MODEL 1
REMARK VINA RESULT:    -8.302      0.000      0.000
REMARK INTER + INTRA:         -13.365
REMARK INTER:                 -12.185
REMARK INTRA:                  -1.180
REMARK UNBOUND:                -1.180
REMARK  Name = 
REMARK  12 active torsions:
REMARK  status: ('A' for Active; 'I' for Inactive)
REMARK    1  A    between atoms: C_1  and  O_2
REMARK    2  A    between atoms: O_2  and  C_3
REMARK    3  A    between atoms: C_5  and  C_6
REMARK    4  A    between atoms: C_6  and  C_7
REMARK    5  A    between atoms: C_6  and  C_8
REMARK    6  A    between atoms: C_8  and  N_9
REMARK    7  A    between atoms: N_9  and  C_10
REMARK    8  A    between atoms: C_13  and  C_14
REMARK    9  A    between atoms: C_20  and  O_21
REMARK   10  A    between atoms: O_21  and  C_22
REMARK   11  A    between atoms: C_23  and  C_24
REMARK   12  A    between atoms: C_28  and  C_29
REMARK                            x       y       z     vdW  Elec       q    Type
REMARK                         _______ _______ _______ _____ _____    ______ ____
ROOT
ATOM      1  C   UNL     1      47.009   5.647  13.834  0.00  0.00    +0.000 A 
ATOM      2  C   UNL     1      45.805   4.947  13.643  0.00  0.00    +0.000 A 
ATOM      3  C   UNL     1      44.779   5.456  12.837  0.00  0.00    +0.000 A 
ATOM      4  C   UNL     1      44.971   6.716  12.265  0.00  0.00    +0.000 A 
ATOM      5  C   UNL     1      46.156   7.442  12.446  0.00  0.00    +0.000 A 
ATOM      6  C   UNL     1      47.235   6.897  13.191  0.00  0.00    +0.000 A 
ENDROOT
BRANCH   6   7
ATOM      7  C   UNL     1      48.567   7.581  13.239  0.00  0.00    +0.000 A 
ATOM      8  C   UNL     1      49.009   8.299  14.356  0.00  0.00    +0.000 A 
ATOM      9  C   UNL     1      50.290   8.831  14.368  0.00  0.00    +0.000 A 
ATOM     10  N   UNL     1      51.151   8.755  13.334  0.00  0.00    +0.000 NA
ATOM     11  C   UNL     1      50.723   8.096  12.237  0.00  0.00    +0.000 A 
ATOM     12  C   UNL     1      51.648   8.033  11.059  0.00  0.00    +0.000 C 
ATOM     13  C   UNL     1      49.470   7.492  12.165  0.00  0.00    +0.000 A 
ENDBRANCH   6   7
BRANCH   1  15
ATOM     14  C   UNL     1      47.726   4.621  15.887  0.00  0.00    +0.000 C 
ATOM     15  O   UNL     1      48.034   5.137  14.598  0.00  0.00    +0.000 OA
ENDBRANCH   1  15
BRANCH   3  16
ATOM     16  C   UNL     1      43.527   4.615  12.590  0.00  0.00    +0.000 C 
ATOM     17  C   UNL     1      42.398   5.497  12.030  0.00  0.00    +0.000 C 
BRANCH  16  18
ATOM     18  C   UNL     1      43.699   3.412  11.629  0.00  0.00    +0.000 C 
BRANCH  18  19
ATOM     19  N   UNL     1      43.615   3.805  10.218  0.00  0.00    +0.000 N 
ATOM     20  H   UNL     1      43.339   4.777  10.085  0.00  0.00    +0.000 HD
BRANCH  19  21
ATOM     21  C   UNL     1      44.636   3.396   9.351  0.00  0.00    +0.000 A 
ATOM     22  C   UNL     1      45.055   2.065   9.249  0.00  0.00    +0.000 A 
ATOM     23  C   UNL     1      46.037   1.692   8.333  0.00  0.00    +0.000 A 
ATOM     24  C   UNL     1      46.560   2.668   7.500  0.00  0.00    +0.000 A 
ATOM     25  N   UNL     1      46.160   3.970   7.518  0.00  0.00    +0.000 NA
ATOM     26  C   UNL     1      45.200   4.282   8.427  0.00  0.00    +0.000 A 
BRANCH  24  27
ATOM     27  C   UNL     1      47.620   2.292   6.518  0.00  0.00    +0.000 C 
ATOM     28  N   UNL     1      47.726   3.112   5.427  0.00  0.00    +0.000 N 
ATOM     29  O   UNL     1      48.352   1.319   6.668  0.00  0.00    +0.000 OA
ATOM     30  H   UNL     1      47.096   3.899   5.331  0.00  0.00    +0.000 HD
ATOM     31  H   UNL     1      48.415   2.909   4.720  0.00  0.00    +0.000 HD
ENDBRANCH  24  27
ENDBRANCH  19  21
ENDBRANCH  18  19
ENDBRANCH  16  18
ENDBRANCH   3  16
BRANCH   5  32
ATOM     32  O   UNL     1      46.332   8.684  11.877  0.00  0.00    +0.000 OA
ATOM     33  C   UNL     1      45.433   9.716  12.266  0.00  0.00    +0.000 C 
ENDBRANCH   5  32
TORSDOF 8
ENDMDL
MODEL 2
REMARK VINA RESULT:    -8.288      0.741      2.753
REMARK INTER + INTRA:         -13.345
REMARK INTER:                 -12.074
REMARK INTRA:                  -1.271
REMARK UNBOUND:                -1.180
REMARK  Name = 
REMARK  12 active torsions:
REMARK  status: ('A' for Active; 'I' for Inactive)
REMARK    1  A    between atoms: C_1  and  O_2
REMARK    2  A    between atoms: O_2  and  C_3
REMARK    3  A    between atoms: C_5  and  C_6
REMARK    4  A    between atoms: C_6  and  C_7
REMARK    5  A    between atoms: C_6  and  C_8
REMARK    6  A    between atoms: C_8  and  N_9
REMARK    7  A    between atoms: N_9  and  C_10
REMARK    8  A    between atoms: C_13  and  C_14
REMARK    9  A    between atoms: C_20  and  O_21
REMARK   10  A    between atoms: O_21  and  C_22
REMARK   11  A    between atoms: C_23  and  C_24
REMARK   12  A    between atoms: C_28  and  C_29
REMARK                            x       y       z     vdW  Elec       q    Type
REMARK                         _______ _______ _______ _____ _____    ______ ____
ROOT
ATOM      1  C   UNL     1      46.233   7.151  12.469  0.00  0.00    +0.000 A 
ATOM      2  C   UNL     1      45.078   6.394  12.203  0.00  0.00    +0.000 A 
ATOM      3  C   UNL     1      44.846   5.162  12.829  0.00  0.00    +0.000 A 
ATOM      4  C   UNL     1      45.832   4.682  13.695  0.00  0.00    +0.000 A 
ATOM      5  C   UNL     1      46.998   5.408  13.971  0.00  0.00    +0.000 A 
ATOM      6  C   UNL     1      47.201   6.696  13.408  0.00  0.00    +0.000 A 
ENDROOT
BRANCH   6   7
ATOM      7  C   UNL     1      48.351   7.556  13.836  0.00  0.00    +0.000 A 
ATOM      8  C   UNL     1      49.597   7.527  13.199  0.00  0.00    +0.000 A 
ATOM      9  C   UNL     1      50.589   8.414  13.589  0.00  0.00    +0.000 A 
ATOM     10  N   UNL     1      50.462   9.295  14.602  0.00  0.00    +0.000 NA
ATOM     11  C   UNL     1      49.277   9.308  15.248  0.00  0.00    +0.000 A 
ATOM     12  C   UNL     1      49.126  10.250  16.404  0.00  0.00    +0.000 C 
ATOM     13  C   UNL     1      48.215   8.483  14.885  0.00  0.00    +0.000 A 
ENDBRANCH   6   7
BRANCH   1  15
ATOM     14  C   UNL     1      45.567   9.444  12.198  0.00  0.00    +0.000 C 
ATOM     15  O   UNL     1      46.450   8.376  11.882  0.00  0.00    +0.000 OA
ENDBRANCH   1  15
BRANCH   3  16
ATOM     16  C   UNL     1      43.534   4.422  12.573  0.00  0.00    +0.000 C 
ATOM     17  C   UNL     1      42.450   5.408  12.109  0.00  0.00    +0.000 C 
BRANCH  16  18
ATOM     18  C   UNL     1      43.597   3.274  11.534  0.00  0.00    +0.000 C 
BRANCH  18  19
ATOM     19  N   UNL     1      43.575   3.768  10.152  0.00  0.00    +0.000 N 
ATOM     20  H   UNL     1      43.338   4.756  10.080  0.00  0.00    +0.000 HD
BRANCH  19  21
ATOM     21  C   UNL     1      44.610   3.382   9.292  0.00  0.00    +0.000 A 
ATOM     22  C   UNL     1      45.020   2.053   9.148  0.00  0.00    +0.000 A 
ATOM     23  C   UNL     1      46.018   1.705   8.239  0.00  0.00    +0.000 A 
ATOM     24  C   UNL     1      46.565   2.707   7.453  0.00  0.00    +0.000 A 
ATOM     25  N   UNL     1      46.175   4.011   7.512  0.00  0.00    +0.000 NA
ATOM     26  C   UNL     1      45.200   4.297   8.413  0.00  0.00    +0.000 A 
BRANCH  24  27
ATOM     27  C   UNL     1      47.642   2.359   6.479  0.00  0.00    +0.000 C 
ATOM     28  N   UNL     1      47.689   3.137   5.355  0.00  0.00    +0.000 N 
ATOM     29  O   UNL     1      48.436   1.442   6.664  0.00  0.00    +0.000 OA
ATOM     30  H   UNL     1      47.009   3.877   5.231  0.00  0.00    +0.000 HD
ATOM     31  H   UNL     1      48.386   2.948   4.651  0.00  0.00    +0.000 HD
ENDBRANCH  24  27
ENDBRANCH  19  21
ENDBRANCH  18  19
ENDBRANCH  16  18
ENDBRANCH   3  16
BRANCH   5  32
ATOM     32  O   UNL     1      47.961   4.922  14.827  0.00  0.00    +0.000 OA
ATOM     33  C   UNL     1      47.517   4.318  16.037  0.00  0.00    +0.000 C 
ENDBRANCH   5  32
TORSDOF 8
ENDMDL
MODEL 3
REMARK VINA RESULT:    -8.217      0.711      1.572
REMARK INTER + INTRA:         -13.240
REMARK INTER:                 -11.901
REMARK INTRA:                  -1.338
REMARK UNBOUND:                -1.180
REMARK  Name = 
REMARK  12 active torsions:
REMARK  status: ('A' for Active; 'I' for Inactive)
REMARK    1  A    between atoms: C_1  and  O_2
REMARK    2  A    between atoms: O_2  and  C_3
REMARK    3  A    between atoms: C_5  and  C_6
REMARK    4  A    between atoms: C_6  and  C_7
REMARK    5  A    between atoms: C_6  and  C_8
REMARK    6  A    between atoms: C_8  and  N_9
REMARK    7  A    between atoms: N_9  and  C_10
REMARK    8  A    between atoms: C_13  and  C_14
REMARK    9  A    between atoms: C_20  and  O_21
REMARK   10  A    between atoms: O_21  and  C_22
REMARK   11  A    between atoms: C_23  and  C_24
REMARK   12  A    between atoms: C_28  and  C_29
REMARK                            x       y       z     vdW  Elec       q    Type
REMARK                         _______ _______ _______ _____ _____    ______ ____
ROOT
ATOM      1  C   UNL     1      46.810   5.607  13.684  0.00  0.00    +0.000 A 
ATOM      2  C   UNL     1      45.589   4.951  13.450  0.00  0.00    +0.000 A 
ATOM      3  C   UNL     1      44.568   5.544  12.696  0.00  0.00    +0.000 A 
ATOM      4  C   UNL     1      44.785   6.840  12.222  0.00  0.00    +0.000 A 
ATOM      5  C   UNL     1      45.988   7.523  12.447  0.00  0.00    +0.000 A 
ATOM      6  C   UNL     1      47.060   6.897  13.136  0.00  0.00    +0.000 A 
ENDROOT
BRANCH   6   7
ATOM      7  C   UNL     1      48.408   7.544  13.225  0.00  0.00    +0.000 A 
ATOM      8  C   UNL     1      49.401   7.362  12.256  0.00  0.00    +0.000 A 
ATOM      9  C   UNL     1      50.594   8.062  12.353  0.00  0.00    +0.000 A 
ATOM     10  N   UNL     1      50.904   8.892  13.369  0.00  0.00    +0.000 NA
ATOM     11  C   UNL     1      49.969   9.049  14.329  0.00  0.00    +0.000 A 
ATOM     12  C   UNL     1      50.306   9.935  15.490  0.00  0.00    +0.000 C 
ATOM     13  C   UNL     1      48.728   8.419  14.279  0.00  0.00    +0.000 A 
ENDBRANCH   6   7
BRANCH   1  15
ATOM     14  C   UNL     1      47.558   4.562  15.716  0.00  0.00    +0.000 C 
ATOM     15  O   UNL     1      47.828   5.015  14.395  0.00  0.00    +0.000 OA
ENDBRANCH   1  15
BRANCH   3  16
ATOM     16  C   UNL     1      43.294   4.753  12.397  0.00  0.00    +0.000 C 
ATOM     17  C   UNL     1      42.210   5.688  11.836  0.00  0.00    +0.000 C 
BRANCH  16  18
ATOM     18  C   UNL     1      43.449   3.571  11.408  0.00  0.00    +0.000 C 
BRANCH  18  19
ATOM     19  N   UNL     1      43.473   4.012  10.008  0.00  0.00    +0.000 N 
ATOM     20  H   UNL     1      43.296   5.009   9.895  0.00  0.00    +0.000 HD
BRANCH  19  21
ATOM     21  C   UNL     1      44.492   3.533   9.177  0.00  0.00    +0.000 A 
ATOM     22  C   UNL     1      45.281   4.372   8.383  0.00  0.00    +0.000 A 
ATOM     23  C   UNL     1      46.322   3.859   7.612  0.00  0.00    +0.000 A 
ATOM     24  C   UNL     1      46.579   2.499   7.682  0.00  0.00    +0.000 A 
ATOM     25  N   UNL     1      45.879   1.637   8.471  0.00  0.00    +0.000 NA
ATOM     26  C   UNL     1      44.876   2.187   9.204  0.00  0.00    +0.000 A 
BRANCH  24  27
ATOM     27  C   UNL     1      47.684   1.926   6.856  0.00  0.00    +0.000 C 
ATOM     28  N   UNL     1      48.622   2.825   6.428  0.00  0.00    +0.000 N 
ATOM     29  O   UNL     1      47.757   0.734   6.577  0.00  0.00    +0.000 OA
ATOM     30  H   UNL     1      48.522   3.804   6.668  0.00  0.00    +0.000 HD
ATOM     31  H   UNL     1      49.390   2.506   5.857  0.00  0.00    +0.000 HD
ENDBRANCH  24  27
ENDBRANCH  19  21
ENDBRANCH  18  19
ENDBRANCH  16  18
ENDBRANCH   3  16
BRANCH   5  32
ATOM     32  O   UNL     1      46.188   8.800  11.973  0.00  0.00    +0.000 OA
ATOM     33  C   UNL     1      45.134   9.739  12.155  0.00  0.00    +0.000 C 
ENDBRANCH   5  32
TORSDOF 8
ENDMDL
MODEL 4
REMARK VINA RESULT:    -7.768      1.698      3.144
REMARK INTER + INTRA:         -12.581
REMARK INTER:                 -11.385
REMARK INTRA:                  -1.196
REMARK UNBOUND:                -1.180
REMARK  Name = 
REMARK  12 active torsions:
REMARK  status: ('A' for Active; 'I' for Inactive)
REMARK    1  A    between atoms: C_1  and  O_2
REMARK    2  A    between atoms: O_2  and  C_3
REMARK    3  A    between atoms: C_5  and  C_6
REMARK    4  A    between atoms: C_6  and  C_7
REMARK    5  A    between atoms: C_6  and  C_8
REMARK    6  A    between atoms: C_8  and  N_9
REMARK    7  A    between atoms: N_9  and  C_10
REMARK    8  A    between atoms: C_13  and  C_14
REMARK    9  A    between atoms: C_20  and  O_21
REMARK   10  A    between atoms: O_21  and  C_22
REMARK   11  A    between atoms: C_23  and  C_24
REMARK   12  A    between atoms: C_28  and  C_29
REMARK                            x       y       z     vdW  Elec       q    Type
REMARK                         _______ _______ _______ _____ _____    ______ ____
ROOT
ATOM      1  C   UNL     1      47.588   7.138  13.279  0.00  0.00    +0.000 A 
ATOM      2  C   UNL     1      46.578   6.509  12.530  0.00  0.00    +0.000 A 
ATOM      3  C   UNL     1      46.067   5.255  12.890  0.00  0.00    +0.000 A 
ATOM      4  C   UNL     1      46.635   4.621  13.998  0.00  0.00    +0.000 A 
ATOM      5  C   UNL     1      47.650   5.218  14.758  0.00  0.00    +0.000 A 
ATOM      6  C   UNL     1      48.113   6.525  14.452  0.00  0.00    +0.000 A 
ENDROOT
BRANCH   6   7
ATOM      7  C   UNL     1      49.062   7.243  15.361  0.00  0.00    +0.000 A 
ATOM      8  C   UNL     1      48.634   8.010  16.451  0.00  0.00    +0.000 A 
ATOM      9  C   UNL     1      49.571   8.575  17.304  0.00  0.00    +0.000 A 
ATOM     10  N   UNL     1      50.904   8.485  17.131  0.00  0.00    +0.000 NA
ATOM     11  C   UNL     1      51.330   7.778  16.062  0.00  0.00    +0.000 A 
ATOM     12  C   UNL     1      52.808   7.699  15.825  0.00  0.00    +0.000 C 
ATOM     13  C   UNL     1      50.454   7.141  15.186  0.00  0.00    +0.000 A 
ENDBRANCH   6   7
BRANCH   1  15
ATOM     14  C   UNL     1      49.030   8.485  11.906  0.00  0.00    +0.000 C 
ATOM     15  O   UNL     1      48.069   8.384  12.949  0.00  0.00    +0.000 OA
ENDBRANCH   1  15
BRANCH   3  16
ATOM     16  C   UNL     1      44.909   4.655  12.094  0.00  0.00    +0.000 C 
ATOM     17  C   UNL     1      43.775   4.235  13.043  0.00  0.00    +0.000 C 
BRANCH  16  18
ATOM     18  C   UNL     1      44.292   5.569  11.005  0.00  0.00    +0.000 C 
BRANCH  18  19
ATOM     19  N   UNL     1      43.745   4.805   9.877  0.00  0.00    +0.000 N 
ATOM     20  H   UNL     1      43.101   5.343   9.300  0.00  0.00    +0.000 HD
BRANCH  19  21
ATOM     21  C   UNL     1      44.616   4.000   9.133  0.00  0.00    +0.000 A 
ATOM     22  C   UNL     1      45.622   4.527   8.316  0.00  0.00    +0.000 A 
ATOM     23  C   UNL     1      46.504   3.689   7.636  0.00  0.00    +0.000 A 
ATOM     24  C   UNL     1      46.380   2.321   7.819  0.00  0.00    +0.000 A 
ATOM     25  N   UNL     1      45.453   1.749   8.638  0.00  0.00    +0.000 NA
ATOM     26  C   UNL     1      44.619   2.609   9.279  0.00  0.00    +0.000 A 
BRANCH  24  27
ATOM     27  C   UNL     1      47.308   1.404   7.092  0.00  0.00    +0.000 C 
ATOM     28  N   UNL     1      48.406   2.002   6.537  0.00  0.00    +0.000 N 
ATOM     29  O   UNL     1      47.110   0.198   6.993  0.00  0.00    +0.000 OA
ATOM     30  H   UNL     1      48.531   3.003   6.629  0.00  0.00    +0.000 HD
ATOM     31  H   UNL     1      49.069   1.441   6.023  0.00  0.00    +0.000 HD
ENDBRANCH  24  27
ENDBRANCH  19  21
ENDBRANCH  18  19
ENDBRANCH  16  18
ENDBRANCH   3  16
BRANCH   5  32
ATOM     32  O   UNL     1      48.199   4.581  15.849  0.00  0.00    +0.000 OA
ATOM     33  C   UNL     1      47.350   4.345  16.966  0.00  0.00    +0.000 C 
ENDBRANCH   5  32
TORSDOF 8
ENDMDL
MODEL 5
REMARK VINA RESULT:    -7.559      1.697      2.139
REMARK INTER + INTRA:         -12.275
REMARK INTER:                 -11.078
REMARK INTRA:                  -1.197
REMARK UNBOUND:                -1.180
REMARK  Name = 
REMARK  12 active torsions:
REMARK  status: ('A' for Active; 'I' for Inactive)
REMARK    1  A    between atoms: C_1  and  O_2
REMARK    2  A    between atoms: O_2  and  C_3
REMARK    3  A    between atoms: C_5  and  C_6
REMARK    4  A    between atoms: C_6  and  C_7
REMARK    5  A    between atoms: C_6  and  C_8
REMARK    6  A    between atoms: C_8  and  N_9
REMARK    7  A    between atoms: N_9  and  C_10
REMARK    8  A    between atoms: C_13  and  C_14
REMARK    9  A    between atoms: C_20  and  O_21
REMARK   10  A    between atoms: O_21  and  C_22
REMARK   11  A    between atoms: C_23  and  C_24
REMARK   12  A    between atoms: C_28  and  C_29
REMARK                            x       y       z     vdW  Elec       q    Type
REMARK                         _______ _______ _______ _____ _____    ______ ____
ROOT
ATOM      1  C   UNL     1      47.551   5.332  14.845  0.00  0.00    +0.000 A 
ATOM      2  C   UNL     1      46.603   4.708  14.015  0.00  0.00    +0.000 A 
ATOM      3  C   UNL     1      46.006   5.384  12.943  0.00  0.00    +0.000 A 
ATOM      4  C   UNL     1      46.349   6.726  12.754  0.00  0.00    +0.000 A 
ATOM      5  C   UNL     1      47.283   7.377  13.572  0.00  0.00    +0.000 A 
ATOM      6  C   UNL     1      47.956   6.675  14.606  0.00  0.00    +0.000 A 
ENDROOT
BRANCH   6   7
ATOM      7  C   UNL     1      49.083   7.307  15.365  0.00  0.00    +0.000 A 
ATOM      8  C   UNL     1      48.912   7.899  16.621  0.00  0.00    +0.000 A 
ATOM      9  C   UNL     1      50.014   8.386  17.308  0.00  0.00    +0.000 A 
ATOM     10  N   UNL     1      51.271   8.381  16.823  0.00  0.00    +0.000 NA
ATOM     11  C   UNL     1      51.444   7.844  15.596  0.00  0.00    +0.000 A 
ATOM     12  C   UNL     1      52.827   7.865  15.017  0.00  0.00    +0.000 C 
ATOM     13  C   UNL     1      50.396   7.292  14.863  0.00  0.00    +0.000 A 
ENDBRANCH   6   7
BRANCH   1  15
ATOM     14  C   UNL     1      47.380   4.291  17.006  0.00  0.00    +0.000 C 
ATOM     15  O   UNL     1      48.164   4.662  15.879  0.00  0.00    +0.000 OA
ENDBRANCH   1  15
BRANCH   3  16
ATOM     16  C   UNL     1      45.049   4.635  12.017  0.00  0.00    +0.000 C 
ATOM     17  C   UNL     1      44.018   3.848  12.845  0.00  0.00    +0.000 C 
BRANCH  16  18
ATOM     18  C   UNL     1      44.266   5.507  11.004  0.00  0.00    +0.000 C 
BRANCH  18  19
ATOM     19  N   UNL     1      43.740   4.724   9.880  0.00  0.00    +0.000 N 
ATOM     20  H   UNL     1      43.038   5.222   9.334  0.00  0.00    +0.000 HD
BRANCH  19  21
ATOM     21  C   UNL     1      44.643   4.001   9.092  0.00  0.00    +0.000 A 
ATOM     22  C   UNL     1      45.629   4.615   8.312  0.00  0.00    +0.000 A 
ATOM     23  C   UNL     1      46.544   3.855   7.586  0.00  0.00    +0.000 A 
ATOM     24  C   UNL     1      46.474   2.475   7.686  0.00  0.00    +0.000 A 
ATOM     25  N   UNL     1      45.570   1.818   8.466  0.00  0.00    +0.000 NA
ATOM     26  C   UNL     1      44.701   2.604   9.154  0.00  0.00    +0.000 A 
BRANCH  24  27
ATOM     27  C   UNL     1      47.439   1.641   6.909  0.00  0.00    +0.000 C 
ATOM     28  N   UNL     1      48.434   2.333   6.275  0.00  0.00    +0.000 N 
ATOM     29  O   UNL     1      47.356   0.419   6.837  0.00  0.00    +0.000 OA
ATOM     30  H   UNL     1      48.463   3.343   6.347  0.00  0.00    +0.000 HD
ATOM     31  H   UNL     1      49.113   1.831   5.724  0.00  0.00    +0.000 HD
ENDBRANCH  24  27
ENDBRANCH  19  21
ENDBRANCH  18  19
ENDBRANCH  16  18
ENDBRANCH   3  16
BRANCH   5  32
ATOM     32  O   UNL     1      47.612   8.700  13.374  0.00  0.00    +0.000 OA
ATOM     33  C   UNL     1      48.235   9.042  12.141  0.00  0.00    +0.000 C 
ENDBRANCH   5  32
TORSDOF 8
ENDMDL
MODEL 6
REMARK VINA RESULT:    -6.906      2.701      8.146
REMARK INTER + INTRA:         -11.316
REMARK INTER:                  -9.682
REMARK INTRA:                  -1.634
REMARK UNBOUND:                -1.180
REMARK  Name = 
REMARK  12 active torsions:
REMARK  status: ('A' for Active; 'I' for Inactive)
REMARK    1  A    between atoms: C_1  and  O_2
REMARK    2  A    between atoms: O_2  and  C_3
REMARK    3  A    between atoms: C_5  and  C_6
REMARK    4  A    between atoms: C_6  and  C_7
REMARK    5  A    between atoms: C_6  and  C_8
REMARK    6  A    between atoms: C_8  and  N_9
REMARK    7  A    between atoms: N_9  and  C_10
REMARK    8  A    between atoms: C_13  and  C_14
REMARK    9  A    between atoms: C_20  and  O_21
REMARK   10  A    between atoms: O_21  and  C_22
REMARK   11  A    between atoms: C_23  and  C_24
REMARK   12  A    between atoms: C_28  and  C_29
REMARK                            x       y       z     vdW  Elec       q    Type
REMARK                         _______ _______ _______ _____ _____    ______ ____
ROOT
ATOM      1  C   UNL     1      45.836   7.681  12.600  0.00  0.00    +0.000 A 
ATOM      2  C   UNL     1      46.768   8.574  13.158  0.00  0.00    +0.000 A 
ATOM      3  C   UNL     1      47.920   8.122  13.812  0.00  0.00    +0.000 A 
ATOM      4  C   UNL     1      48.091   6.740  13.939  0.00  0.00    +0.000 A 
ATOM      5  C   UNL     1      47.175   5.825  13.402  0.00  0.00    +0.000 A 
ATOM      6  C   UNL     1      46.049   6.275  12.663  0.00  0.00    +0.000 A 
ENDROOT
BRANCH   6   7
ATOM      7  C   UNL     1      45.166   5.309  11.933  0.00  0.00    +0.000 A 
ATOM      8  C   UNL     1      44.095   4.650  12.546  0.00  0.00    +0.000 A 
ATOM      9  C   UNL     1      43.263   3.838  11.789  0.00  0.00    +0.000 A 
ATOM     10  N   UNL     1      43.442   3.583  10.478  0.00  0.00    +0.000 NA
ATOM     11  C   UNL     1      44.494   4.184   9.883  0.00  0.00    +0.000 A 
ATOM     12  C   UNL     1      44.739   3.884   8.435  0.00  0.00    +0.000 C 
ATOM     13  C   UNL     1      45.347   5.051  10.562  0.00  0.00    +0.000 A 
ENDBRANCH   6   7
BRANCH   1  15
ATOM     14  C   UNL     1      44.664   9.483  11.525  0.00  0.00    +0.000 C 
ATOM     15  O   UNL     1      44.720   8.120  11.927  0.00  0.00    +0.000 OA
ENDBRANCH   1  15
BRANCH   3  16
ATOM     16  C   UNL     1      48.945   9.134  14.323  0.00  0.00    +0.000 C 
ATOM     17  C   UNL     1      48.787  10.470  13.578  0.00  0.00    +0.000 C 
BRANCH  16  18
ATOM     18  C   UNL     1      48.897   9.438  15.841  0.00  0.00    +0.000 C 
BRANCH  18  19
ATOM     19  N   UNL     1      49.953   8.741  16.586  0.00  0.00    +0.000 N 
ATOM     20  H   UNL     1      50.390   9.319  17.302  0.00  0.00    +0.000 HD
BRANCH  19  21
ATOM     21  C   UNL     1      49.717   7.426  17.002  0.00  0.00    +0.000 A 
ATOM     22  C   UNL     1      48.558   7.045  17.688  0.00  0.00    +0.000 A 
ATOM     23  C   UNL     1      48.338   5.713  18.036  0.00  0.00    +0.000 A 
ATOM     24  C   UNL     1      49.279   4.772  17.651  0.00  0.00    +0.000 A 
ATOM     25  N   UNL     1      50.402   5.072  16.941  0.00  0.00    +0.000 NA
ATOM     26  C   UNL     1      50.570   6.383  16.626  0.00  0.00    +0.000 A 
BRANCH  24  27
ATOM     27  C   UNL     1      49.067   3.341  18.022  0.00  0.00    +0.000 C 
ATOM     28  N   UNL     1      48.500   3.131  19.249  0.00  0.00    +0.000 N 
ATOM     29  O   UNL     1      49.375   2.409  17.285  0.00  0.00    +0.000 OA
ATOM     30  H   UNL     1      48.271   3.924  19.836  0.00  0.00    +0.000 HD
ATOM     31  H   UNL     1      48.339   2.187  19.566  0.00  0.00    +0.000 HD
ENDBRANCH  24  27
ENDBRANCH  19  21
ENDBRANCH  18  19
ENDBRANCH  16  18
ENDBRANCH   3  16
BRANCH   5  32
ATOM     32  O   UNL     1      47.357   4.467  13.534  0.00  0.00    +0.000 OA
ATOM     33  C   UNL     1      47.126   3.897  14.817  0.00  0.00    +0.000 C 
ENDBRANCH   5  32
TORSDOF 8
ENDMDL
MODEL 7
REMARK VINA RESULT:    -6.778      2.904      7.815
REMARK INTER + INTRA:         -11.128
REMARK INTER:                  -9.532
REMARK INTRA:                  -1.595
REMARK UNBOUND:                -1.180
REMARK  Name = 
REMARK  12 active torsions:
REMARK  status: ('A' for Active; 'I' for Inactive)
REMARK    1  A    between atoms: C_1  and  O_2
REMARK    2  A    between atoms: O_2  and  C_3
REMARK    3  A    between atoms: C_5  and  C_6
REMARK    4  A    between atoms: C_6  and  C_7
REMARK    5  A    between atoms: C_6  and  C_8
REMARK    6  A    between atoms: C_8  and  N_9
REMARK    7  A    between atoms: N_9  and  C_10
REMARK    8  A    between atoms: C_13  and  C_14
REMARK    9  A    between atoms: C_20  and  O_21
REMARK   10  A    between atoms: O_21  and  C_22
REMARK   11  A    between atoms: C_23  and  C_24
REMARK   12  A    between atoms: C_28  and  C_29
REMARK                            x       y       z     vdW  Elec       q    Type
REMARK                         _______ _______ _______ _____ _____    ______ ____
ROOT
ATOM      1  C   UNL     1      47.284   6.112  13.459  0.00  0.00    +0.000 A 
ATOM      2  C   UNL     1      48.161   7.012  14.090  0.00  0.00    +0.000 A 
ATOM      3  C   UNL     1      47.980   8.398  14.004  0.00  0.00    +0.000 A 
ATOM      4  C   UNL     1      46.919   8.864  13.221  0.00  0.00    +0.000 A 
ATOM      5  C   UNL     1      46.035   7.991  12.572  0.00  0.00    +0.000 A 
ATOM      6  C   UNL     1      46.160   6.585  12.724  0.00  0.00    +0.000 A 
ENDROOT
BRANCH   6   7
ATOM      7  C   UNL     1      45.118   5.652  12.187  0.00  0.00    +0.000 A 
ATOM      8  C   UNL     1      43.973   5.300  12.909  0.00  0.00    +0.000 A 
ATOM      9  C   UNL     1      43.005   4.502  12.317  0.00  0.00    +0.000 A 
ATOM     10  N   UNL     1      43.109   3.978  11.079  0.00  0.00    +0.000 NA
ATOM     11  C   UNL     1      44.226   4.282  10.386  0.00  0.00    +0.000 A 
ATOM     12  C   UNL     1      44.384   3.678   9.023  0.00  0.00    +0.000 C 
ATOM     13  C   UNL     1      45.221   5.114  10.892  0.00  0.00    +0.000 A 
ENDBRANCH   6   7
BRANCH   1  15
ATOM     14  C   UNL     1      47.092   4.124  14.797  0.00  0.00    +0.000 C 
ATOM     15  O   UNL     1      47.439   4.750  13.568  0.00  0.00    +0.000 OA
ENDBRANCH   1  15
BRANCH   3  16
ATOM     16  C   UNL     1      48.909   9.331  14.781  0.00  0.00    +0.000 C 
ATOM     17  C   UNL     1      48.965  10.710  14.103  0.00  0.00    +0.000 C 
BRANCH  16  18
ATOM     18  C   UNL     1      48.548   9.557  16.270  0.00  0.00    +0.000 C 
BRANCH  18  19
ATOM     19  N   UNL     1      49.507   8.922  17.182  0.00  0.00    +0.000 N 
ATOM     20  H   UNL     1      49.659   9.450  18.040  0.00  0.00    +0.000 HD
BRANCH  19  21
ATOM     21  C   UNL     1      49.413   7.541  17.390  0.00  0.00    +0.000 A 
ATOM     22  C   UNL     1      48.310   6.941  18.008  0.00  0.00    +0.000 A 
ATOM     23  C   UNL     1      48.232   5.556  18.146  0.00  0.00    +0.000 A 
ATOM     24  C   UNL     1      49.259   4.787  17.621  0.00  0.00    +0.000 A 
ATOM     25  N   UNL     1      50.335   5.308  16.967  0.00  0.00    +0.000 NA
ATOM     26  C   UNL     1      50.363   6.662  16.858  0.00  0.00    +0.000 A 
BRANCH  24  27
ATOM     27  C   UNL     1      49.201   3.303  17.766  0.00  0.00    +0.000 C 
ATOM     28  N   UNL     1      48.514   2.847  18.859  0.00  0.00    +0.000 N 
ATOM     29  O   UNL     1      49.727   2.534  16.968  0.00  0.00    +0.000 OA
ATOM     30  H   UNL     1      48.103   3.512  19.503  0.00  0.00    +0.000 HD
ATOM     31  H   UNL     1      48.445   1.854  19.022  0.00  0.00    +0.000 HD
ENDBRANCH  24  27
ENDBRANCH  19  21
ENDBRANCH  18  19
ENDBRANCH  16  18
ENDBRANCH   3  16
BRANCH   5  32
ATOM     32  O   UNL     1      44.994   8.464  11.805  0.00  0.00    +0.000 OA
ATOM     33  C   UNL     1      44.769   9.869  11.801  0.00  0.00    +0.000 C 
ENDBRANCH   5  32
TORSDOF 8
ENDMDL
MODEL 8
REMARK VINA RESULT:    -6.371      3.549      6.131
REMARK INTER + INTRA:         -10.530
REMARK INTER:                  -9.160
REMARK INTRA:                  -1.370
REMARK UNBOUND:                -1.180
REMARK  Name = 
REMARK  12 active torsions:
REMARK  status: ('A' for Active; 'I' for Inactive)
REMARK    1  A    between atoms: C_1  and  O_2
REMARK    2  A    between atoms: O_2  and  C_3
REMARK    3  A    between atoms: C_5  and  C_6
REMARK    4  A    between atoms: C_6  and  C_7
REMARK    5  A    between atoms: C_6  and  C_8
REMARK    6  A    between atoms: C_8  and  N_9
REMARK    7  A    between atoms: N_9  and  C_10
REMARK    8  A    between atoms: C_13  and  C_14
REMARK    9  A    between atoms: C_20  and  O_21
REMARK   10  A    between atoms: O_21  and  C_22
REMARK   11  A    between atoms: C_23  and  C_24
REMARK   12  A    between atoms: C_28  and  C_29
REMARK                            x       y       z     vdW  Elec       q    Type
REMARK                         _______ _______ _______ _____ _____    ______ ____
ROOT
ATOM      1  C   UNL     1      48.795   8.355  16.790  0.00  0.00    +0.000 A 
ATOM      2  C   UNL     1      48.728   8.791  15.454  0.00  0.00    +0.000 A 
ATOM      3  C   UNL     1      48.586   7.887  14.393  0.00  0.00    +0.000 A 
ATOM      4  C   UNL     1      48.563   6.525  14.703  0.00  0.00    +0.000 A 
ATOM      5  C   UNL     1      48.639   6.061  16.023  0.00  0.00    +0.000 A 
ATOM      6  C   UNL     1      48.696   6.972  17.110  0.00  0.00    +0.000 A 
ENDROOT
BRANCH   6   7
ATOM      7  C   UNL     1      48.593   6.496  18.527  0.00  0.00    +0.000 A 
ATOM      8  C   UNL     1      47.379   6.439  19.221  0.00  0.00    +0.000 A 
ATOM      9  C   UNL     1      47.343   5.903  20.500  0.00  0.00    +0.000 A 
ATOM     10  N   UNL     1      48.428   5.467  21.169  0.00  0.00    +0.000 NA
ATOM     11  C   UNL     1      49.611   5.549  20.524  0.00  0.00    +0.000 A 
ATOM     12  C   UNL     1      50.838   5.109  21.263  0.00  0.00    +0.000 C 
ATOM     13  C   UNL     1      49.724   6.030  19.222  0.00  0.00    +0.000 A 
ENDBRANCH   6   7
BRANCH   1  15
ATOM     14  C   UNL     1      47.799  10.096  18.116  0.00  0.00    +0.000 C 
ATOM     15  O   UNL     1      48.901   9.240  17.837  0.00  0.00    +0.000 OA
ENDBRANCH   1  15
BRANCH   3  16
ATOM     16  C   UNL     1      48.428   8.417  12.968  0.00  0.00    +0.000 C 
ATOM     17  C   UNL     1      49.093   7.455  11.968  0.00  0.00    +0.000 C 
BRANCH  16  18
ATOM     18  C   UNL     1      46.974   8.653  12.491  0.00  0.00    +0.000 C 
BRANCH  18  19
ATOM     19  N   UNL     1      46.003   7.832  13.225  0.00  0.00    +0.000 N 
ATOM     20  H   UNL     1      45.279   8.380  13.687  0.00  0.00    +0.000 HD
BRANCH  19  21
ATOM     21  C   UNL     1      45.514   6.673  12.612  0.00  0.00    +0.000 A 
ATOM     22  C   UNL     1      45.534   6.482  11.226  0.00  0.00    +0.000 A 
ATOM     23  C   UNL     1      45.088   5.288  10.661  0.00  0.00    +0.000 A 
ATOM     24  C   UNL     1      44.659   4.282  11.512  0.00  0.00    +0.000 A 
ATOM     25  N   UNL     1      44.661   4.388  12.870  0.00  0.00    +0.000 NA
ATOM     26  C   UNL     1      45.106   5.570  13.371  0.00  0.00    +0.000 A 
BRANCH  24  27
ATOM     27  C   UNL     1      44.167   2.999  10.928  0.00  0.00    +0.000 C 
ATOM     28  N   UNL     1      44.981   2.435   9.983  0.00  0.00    +0.000 N 
ATOM     29  O   UNL     1      43.110   2.475  11.264  0.00  0.00    +0.000 OA
ATOM     30  H   UNL     1      45.841   2.902   9.721  0.00  0.00    +0.000 HD
ATOM     31  H   UNL     1      44.703   1.572   9.540  0.00  0.00    +0.000 HD
ENDBRANCH  24  27
ENDBRANCH  19  21
ENDBRANCH  18  19
ENDBRANCH  16  18
ENDBRANCH   3  16
BRANCH   5  32
ATOM     32  O   UNL     1      48.615   4.715  16.314  0.00  0.00    +0.000 OA
ATOM     33  C   UNL     1      47.407   4.010  16.052  0.00  0.00    +0.000 C 
ENDBRANCH   5  32
TORSDOF 8
ENDMDL
MODEL 9
REMARK VINA RESULT:    -6.212      3.482      5.780
REMARK INTER + INTRA:         -10.298
REMARK INTER:                  -9.000
REMARK INTRA:                  -1.297
REMARK UNBOUND:                -1.180
REMARK  Name = 
REMARK  12 active torsions:
REMARK  status: ('A' for Active; 'I' for Inactive)
REMARK    1  A    between atoms: C_1  and  O_2
REMARK    2  A    between atoms: O_2  and  C_3
REMARK    3  A    between atoms: C_5  and  C_6
REMARK    4  A    between atoms: C_6  and  C_7
REMARK    5  A    between atoms: C_6  and  C_8
REMARK    6  A    between atoms: C_8  and  N_9
REMARK    7  A    between atoms: N_9  and  C_10
REMARK    8  A    between atoms: C_13  and  C_14
REMARK    9  A    between atoms: C_20  and  O_21
REMARK   10  A    between atoms: O_21  and  C_22
REMARK   11  A    between atoms: C_23  and  C_24
REMARK   12  A    between atoms: C_28  and  C_29
REMARK                            x       y       z     vdW  Elec       q    Type
REMARK                         _______ _______ _______ _____ _____    ______ ____
ROOT
ATOM      1  C   UNL     1      48.630   6.335  15.760  0.00  0.00    +0.000 A 
ATOM      2  C   UNL     1      48.390   6.783  14.449  0.00  0.00    +0.000 A 
ATOM      3  C   UNL     1      48.347   8.147  14.134  0.00  0.00    +0.000 A 
ATOM      4  C   UNL     1      48.503   9.058  15.183  0.00  0.00    +0.000 A 
ATOM      5  C   UNL     1      48.734   8.641  16.501  0.00  0.00    +0.000 A 
ATOM      6  C   UNL     1      48.863   7.262  16.815  0.00  0.00    +0.000 A 
ENDROOT
BRANCH   6   7
ATOM      7  C   UNL     1      49.289   6.815  18.180  0.00  0.00    +0.000 A 
ATOM      8  C   UNL     1      50.632   6.687  18.550  0.00  0.00    +0.000 A 
ATOM      9  C   UNL     1      50.956   6.354  19.857  0.00  0.00    +0.000 A 
ATOM     10  N   UNL     1      50.049   6.083  20.817  0.00  0.00    +0.000 NA
ATOM     11  C   UNL     1      48.750   6.168  20.462  0.00  0.00    +0.000 A 
ATOM     12  C   UNL     1      47.722   5.832  21.501  0.00  0.00    +0.000 C 
ATOM     13  C   UNL     1      48.343   6.543  19.184  0.00  0.00    +0.000 A 
ENDBRANCH   6   7
BRANCH   1  15
ATOM     14  C   UNL     1      47.496   4.257  16.178  0.00  0.00    +0.000 C 
ATOM     15  O   UNL     1      48.705   4.997  16.068  0.00  0.00    +0.000 OA
ENDBRANCH   1  15
BRANCH   3  16
ATOM     16  C   UNL     1      48.171   8.581  12.679  0.00  0.00    +0.000 C 
ATOM     17  C   UNL     1      48.911   7.611  11.743  0.00  0.00    +0.000 C 
BRANCH  16  18
ATOM     18  C   UNL     1      46.709   8.689  12.178  0.00  0.00    +0.000 C 
BRANCH  18  19
ATOM     19  N   UNL     1      45.780   7.887  12.984  0.00  0.00    +0.000 N 
ATOM     20  H   UNL     1      45.056   8.442  13.436  0.00  0.00    +0.000 HD
BRANCH  19  21
ATOM     21  C   UNL     1      45.304   6.684  12.450  0.00  0.00    +0.000 A 
ATOM     22  C   UNL     1      45.562   6.284  11.135  0.00  0.00    +0.000 A 
ATOM     23  C   UNL     1      45.116   5.052  10.660  0.00  0.00    +0.000 A 
ATOM     24  C   UNL     1      44.441   4.218  11.538  0.00  0.00    +0.000 A 
ATOM     25  N   UNL     1      44.201   4.529  12.842  0.00  0.00    +0.000 NA
ATOM     26  C   UNL     1      44.658   5.740  13.256  0.00  0.00    +0.000 A 
BRANCH  24  27
ATOM     27  C   UNL     1      43.946   2.897  11.048  0.00  0.00    +0.000 C 
ATOM     28  N   UNL     1      44.672   2.338  10.033  0.00  0.00    +0.000 N 
ATOM     29  O   UNL     1      42.957   2.341  11.516  0.00  0.00    +0.000 OA
ATOM     30  H   UNL     1      45.476   2.832   9.663  0.00  0.00    +0.000 HD
ATOM     31  H   UNL     1      44.386   1.451   9.648  0.00  0.00    +0.000 HD
ENDBRANCH  24  27
ENDBRANCH  19  21
ENDBRANCH  18  19
ENDBRANCH  16  18
ENDBRANCH   3  16
BRANCH   5  32
ATOM     32  O   UNL     1      48.885   9.550  17.525  0.00  0.00    +0.000 OA
ATOM     33  C   UNL     1      47.740  10.303  17.907  0.00  0.00    +0.000 C 
ENDBRANCH   5  32
TORSDOF 8
ENDMDL
