MODEL 1
REMARK VINA RESULT:    -8.689      0.000      0.000
REMARK INTER + INTRA:         -13.737
REMARK INTER:                 -12.498
REMARK INTRA:                  -1.238
REMARK UNBOUND:                -1.238
REMARK  Name = 
REMARK  8 active torsions:
REMARK  status: ('A' for Active; 'I' for Inactive)
REMARK    1  A    between atoms: C_2  and  C_27
REMARK    2  A    between atoms: N_3  and  CA_4
REMARK    3  A    between atoms: CA_4  and  C_5
REMARK    4  A    between atoms: CA_4  and  C_7
REMARK    5  A    between atoms: C_5  and  O_6
REMARK    6  A    between atoms: C_11  and  C_12
REMARK    7  A    between atoms: C_12  and  N_13
REMARK    8  A    between atoms: C_14  and  C_16
REMARK                            x       y       z     vdW  Elec       q    Type
REMARK                         _______ _______ _______ _____ _____    ______ ____
ROOT
ATOM      1  C   UNL     1      44.883   7.235  11.659  0.00  0.00    +0.000 A 
ATOM      2  C   UNL     1      44.105   8.323  11.233  0.00  0.00    +0.000 A 
ATOM      3  C   UNL     1      44.489   9.631  11.528  0.00  0.00    +0.000 A 
ATOM      4  C   UNL     1      45.668   9.872  12.230  0.00  0.00    +0.000 A 
ATOM      5  C   UNL     1      46.494   8.806  12.608  0.00  0.00    +0.000 A 
ATOM      6  C   UNL     1      46.091   7.493  12.322  0.00  0.00    +0.000 A 
ENDROOT
BRANCH   1   7
ATOM      7  CA  UNL     1      44.397   5.805  11.508  0.00  0.00    +0.000 C 
BRANCH   7  10
ATOM      8  O   UNL     1      43.913   3.115  10.703  0.00  0.00    +0.000 OA
ATOM      9  C   UNL     1      44.776   3.775  10.138  0.00  0.00    +0.000 C 
ATOM     10  N   UNL     1      45.118   5.065  10.476  0.00  0.00    +0.000 N 
ATOM     11  H   UNL     1      45.465   5.647   9.721  0.00  0.00    +0.000 HD
BRANCH   9  12
ATOM     12  C   UNL     1      45.507   3.202   8.971  0.00  0.00    +0.000 A 
ATOM     13  C   UNL     1      45.911   4.058   7.937  0.00  0.00    +0.000 A 
ATOM     14  C   UNL     1      46.560   3.544   6.813  0.00  0.00    +0.000 A 
ATOM     15  C   UNL     1      46.799   2.172   6.714  0.00  0.00    +0.000 A 
ATOM     16  C   UNL     1      46.392   1.322   7.742  0.00  0.00    +0.000 A 
ATOM     17 CL   UNL     1      46.670  -0.371   7.607  0.00  0.00    +0.000 Cl
ATOM     18  C   UNL     1      45.749   1.826   8.871  0.00  0.00    +0.000 A 
ENDBRANCH   9  12
ENDBRANCH   7  10
BRANCH   7  19
ATOM     19  C   UNL     1      42.887   5.821  11.173  0.00  0.00    +0.000 C 
BRANCH  19  20
ATOM     20  O   UNL     1      42.146   5.059  12.129  0.00  0.00    +0.000 OA
ATOM     21  H   UNL     1      42.270   4.120  11.900  0.00  0.00    +0.000 HD
ENDBRANCH  19  20
ENDBRANCH   7  19
ENDBRANCH   1   7
BRANCH   5  22
ATOM     22  C   UNL     1      47.769   9.053  13.366  0.00  0.00    +0.000 C 
BRANCH  22  23
ATOM     23  N   UNL     1      47.867   8.181  14.512  0.00  0.00    +0.000 N 
ATOM     24  C   UNL     1      49.019   7.509  14.829  0.00  0.00    +0.000 C 
ATOM     25  O   UNL     1      50.052   7.631  14.174  0.00  0.00    +0.000 OA
ATOM     26  H   UNL     1      46.991   7.886  14.927  0.00  0.00    +0.000 HD
BRANCH  24  27
ATOM     27  C   UNL     1      48.980   6.675  16.036  0.00  0.00    +0.000 A 
ATOM     28  C   UNL     1      49.722   7.052  17.146  0.00  0.00    +0.000 A 
ATOM     29  S   UNL     1      49.532   6.014  18.483  0.00  0.00    +0.000 S 
ATOM     30  C   UNL     1      48.490   4.993  17.610  0.00  0.00    +0.000 A 
ATOM     31  N   UNL     1      47.969   3.874  18.183  0.00  0.00    +0.000 NA
ATOM     32  C   UNL     1      47.221   3.173  17.399  0.00  0.00    +0.000 A 
ATOM     33  N   UNL     1      46.945   3.489  16.097  0.00  0.00    +0.000 N 
ATOM     34  C   UNL     1      47.407   4.633  15.489  0.00  0.00    +0.000 A 
ATOM     35  O   UNL     1      47.074   4.924  14.345  0.00  0.00    +0.000 OA
ATOM     36  C   UNL     1      48.276   5.448  16.321  0.00  0.00    +0.000 A 
ATOM     37  H   UNL     1      46.337   2.904  15.539  0.00  0.00    +0.000 HD
ENDBRANCH  24  27
ENDBRANCH  22  23
ENDBRANCH   5  22
TORSDOF 8
ENDMDL
MODEL 2
REMARK VINA RESULT:    -8.137      1.626      1.954
REMARK INTER + INTRA:         -12.943
REMARK INTER:                 -11.931
REMARK INTRA:                  -1.012
REMARK UNBOUND:                -1.238
REMARK  Name = 
REMARK  8 active torsions:
REMARK  status: ('A' for Active; 'I' for Inactive)
REMARK    1  A    between atoms: C_2  and  C_27
REMARK    2  A    between atoms: N_3  and  CA_4
REMARK    3  A    between atoms: CA_4  and  C_5
REMARK    4  A    between atoms: CA_4  and  C_7
REMARK    5  A    between atoms: C_5  and  O_6
REMARK    6  A    between atoms: C_11  and  C_12
REMARK    7  A    between atoms: C_12  and  N_13
REMARK    8  A    between atoms: C_14  and  C_16
REMARK                            x       y       z     vdW  Elec       q    Type
REMARK                         _______ _______ _______ _____ _____    ______ ____
ROOT
ATOM      1  C   UNL     1      45.365   6.594  12.138  0.00  0.00    +0.000 A 
ATOM      2  C   UNL     1      44.850   7.899  12.107  0.00  0.00    +0.000 A 
ATOM      3  C   UNL     1      45.522   8.945  12.741  0.00  0.00    +0.000 A 
ATOM      4  C   UNL     1      46.729   8.705  13.394  0.00  0.00    +0.000 A 
ATOM      5  C   UNL     1      47.294   7.423  13.383  0.00  0.00    +0.000 A 
ATOM      6  C   UNL     1      46.603   6.376  12.757  0.00  0.00    +0.000 A 
ENDROOT
BRANCH   1   7
ATOM      7  CA  UNL     1      44.567   5.414  11.612  0.00  0.00    +0.000 C 
BRANCH   7  10
ATOM      8  O   UNL     1      43.591   3.137  10.206  0.00  0.00    +0.000 OA
ATOM      9  C   UNL     1      44.694   3.595   9.935  0.00  0.00    +0.000 C 
ATOM     10  N   UNL     1      45.276   4.663  10.581  0.00  0.00    +0.000 N 
ATOM     11  H   UNL     1      45.912   5.226  10.027  0.00  0.00    +0.000 HD
BRANCH   9  12
ATOM     12  C   UNL     1      45.484   3.018   8.809  0.00  0.00    +0.000 A 
ATOM     13  C   UNL     1      45.913   3.865   7.778  0.00  0.00    +0.000 A 
ATOM     14  C   UNL     1      46.617   3.346   6.690  0.00  0.00    +0.000 A 
ATOM     15  C   UNL     1      46.888   1.979   6.624  0.00  0.00    +0.000 A 
ATOM     16  C   UNL     1      46.456   1.137   7.649  0.00  0.00    +0.000 A 
ATOM     17 CL   UNL     1      46.773  -0.552   7.554  0.00  0.00    +0.000 Cl
ATOM     18  C   UNL     1      45.757   1.647   8.742  0.00  0.00    +0.000 A 
ENDBRANCH   9  12
ENDBRANCH   7  10
BRANCH   7  19
ATOM     19  C   UNL     1      43.223   5.931  11.045  0.00  0.00    +0.000 C 
BRANCH  19  20
ATOM     20  O   UNL     1      42.120   5.324  11.722  0.00  0.00    +0.000 OA
ATOM     21  H   UNL     1      42.239   4.360  11.649  0.00  0.00    +0.000 HD
ENDBRANCH  19  20
ENDBRANCH   7  19
ENDBRANCH   1   7
BRANCH   5  22
ATOM     22  C   UNL     1      48.597   7.152  14.085  0.00  0.00    +0.000 C 
BRANCH  22  23
ATOM     23  N   UNL     1      48.387   6.914  15.492  0.00  0.00    +0.000 N 
ATOM     24  C   UNL     1      48.962   7.691  16.464  0.00  0.00    +0.000 C 
ATOM     25  O   UNL     1      49.668   8.661  16.197  0.00  0.00    +0.000 OA
ATOM     26  H   UNL     1      48.008   6.007  15.742  0.00  0.00    +0.000 HD
BRANCH  24  27
ATOM     27  C   UNL     1      48.642   7.346  17.853  0.00  0.00    +0.000 A 
ATOM     28  C   UNL     1      48.103   8.317  18.687  0.00  0.00    +0.000 A 
ATOM     29  S   UNL     1      47.737   7.750  20.251  0.00  0.00    +0.000 S 
ATOM     30  C   UNL     1      48.333   6.199  19.887  0.00  0.00    +0.000 A 
ATOM     31  N   UNL     1      48.330   5.214  20.825  0.00  0.00    +0.000 NA
ATOM     32  C   UNL     1      48.840   4.097  20.427  0.00  0.00    +0.000 A 
ATOM     33  N   UNL     1      49.350   3.876  19.177  0.00  0.00    +0.000 N 
ATOM     34  C   UNL     1      49.331   4.825  18.181  0.00  0.00    +0.000 A 
ATOM     35  O   UNL     1      49.726   4.565  17.048  0.00  0.00    +0.000 OA
ATOM     36  C   UNL     1      48.789   6.110  18.584  0.00  0.00    +0.000 A 
ATOM     37  H   UNL     1      49.723   2.971  18.922  0.00  0.00    +0.000 HD
ENDBRANCH  24  27
ENDBRANCH  22  23
ENDBRANCH   5  22
TORSDOF 8
ENDMDL
MODEL 3
REMARK VINA RESULT:    -8.117      2.142      2.772
REMARK INTER + INTRA:         -12.915
REMARK INTER:                 -11.857
REMARK INTRA:                  -1.058
REMARK UNBOUND:                -1.238
REMARK  Name = 
REMARK  8 active torsions:
REMARK  status: ('A' for Active; 'I' for Inactive)
REMARK    1  A    between atoms: C_2  and  C_27
REMARK    2  A    between atoms: N_3  and  CA_4
REMARK    3  A    between atoms: CA_4  and  C_5
REMARK    4  A    between atoms: CA_4  and  C_7
REMARK    5  A    between atoms: C_5  and  O_6
REMARK    6  A    between atoms: C_11  and  C_12
REMARK    7  A    between atoms: C_12  and  N_13
REMARK    8  A    between atoms: C_14  and  C_16
REMARK                            x       y       z     vdW  Elec       q    Type
REMARK                         _______ _______ _______ _____ _____    ______ ____
ROOT
ATOM      1  C   UNL     1      45.415   6.685  12.208  0.00  0.00    +0.000 A 
ATOM      2  C   UNL     1      45.023   8.033  12.170  0.00  0.00    +0.000 A 
ATOM      3  C   UNL     1      45.744   9.003  12.867  0.00  0.00    +0.000 A 
ATOM      4  C   UNL     1      46.880   8.645  13.590  0.00  0.00    +0.000 A 
ATOM      5  C   UNL     1      47.326   7.317  13.590  0.00  0.00    +0.000 A 
ATOM      6  C   UNL     1      46.586   6.346  12.900  0.00  0.00    +0.000 A 
ENDROOT
BRANCH   1   7
ATOM      7  CA  UNL     1      44.549   5.591  11.610  0.00  0.00    +0.000 C 
BRANCH   7  10
ATOM      8  O   UNL     1      43.619   3.197  10.376  0.00  0.00    +0.000 OA
ATOM      9  C   UNL     1      44.676   3.699  10.015  0.00  0.00    +0.000 C 
ATOM     10  N   UNL     1      45.235   4.827  10.572  0.00  0.00    +0.000 N 
ATOM     11  H   UNL     1      45.804   5.395   9.953  0.00  0.00    +0.000 HD
BRANCH   9  12
ATOM     12  C   UNL     1      45.427   3.109   8.870  0.00  0.00    +0.000 A 
ATOM     13  C   UNL     1      45.826   3.945   7.817  0.00  0.00    +0.000 A 
ATOM     14  C   UNL     1      46.494   3.413   6.713  0.00  0.00    +0.000 A 
ATOM     15  C   UNL     1      46.757   2.044   6.651  0.00  0.00    +0.000 A 
ATOM     16  C   UNL     1      46.355   1.214   7.697  0.00  0.00    +0.000 A 
ATOM     17 CL   UNL     1      46.663  -0.477   7.608  0.00  0.00    +0.000 Cl
ATOM     18  C   UNL     1      45.693   1.736   8.807  0.00  0.00    +0.000 A 
ENDBRANCH   9  12
ENDBRANCH   7  10
BRANCH   7  19
ATOM     19  C   UNL     1      43.269   6.230  11.021  0.00  0.00    +0.000 C 
BRANCH  19  20
ATOM     20  O   UNL     1      42.099   5.680  11.631  0.00  0.00    +0.000 OA
ATOM     21  H   UNL     1      42.325   5.496  12.561  0.00  0.00    +0.000 HD
ENDBRANCH  19  20
ENDBRANCH   7  19
ENDBRANCH   1   7
BRANCH   5  22
ATOM     22  C   UNL     1      48.551   6.918  14.366  0.00  0.00    +0.000 C 
BRANCH  22  23
ATOM     23  N   UNL     1      48.269   6.855  15.780  0.00  0.00    +0.000 N 
ATOM     24  C   UNL     1      49.127   6.274  16.677  0.00  0.00    +0.000 C 
ATOM     25  O   UNL     1      50.208   5.797  16.337  0.00  0.00    +0.000 OA
ATOM     26  H   UNL     1      47.308   7.027  16.054  0.00  0.00    +0.000 HD
BRANCH  24  27
ATOM     27  C   UNL     1      48.721   6.303  18.086  0.00  0.00    +0.000 A 
ATOM     28  C   UNL     1      48.842   5.152  18.852  0.00  0.00    +0.000 A 
ATOM     29  S   UNL     1      48.380   5.358  20.478  0.00  0.00    +0.000 S 
ATOM     30  C   UNL     1      47.951   6.982  20.207  0.00  0.00    +0.000 A 
ATOM     31  N   UNL     1      47.451   7.748  21.213  0.00  0.00    +0.000 NA
ATOM     32  C   UNL     1      47.137   8.950  20.862  0.00  0.00    +0.000 A 
ATOM     33  N   UNL     1      47.280   9.455  19.599  0.00  0.00    +0.000 N 
ATOM     34  C   UNL     1      47.827   8.736  18.562  0.00  0.00    +0.000 A 
ATOM     35  O   UNL     1      48.013   9.247  17.461  0.00  0.00    +0.000 OA
ATOM     36  C   UNL     1      48.175   7.366  18.896  0.00  0.00    +0.000 A 
ATOM     37  H   UNL     1      47.030  10.413  19.392  0.00  0.00    +0.000 HD
ENDBRANCH  24  27
ENDBRANCH  22  23
ENDBRANCH   5  22
TORSDOF 8
ENDMDL
MODEL 4
REMARK VINA RESULT:    -7.833      1.498      2.264
REMARK INTER + INTRA:         -12.505
REMARK INTER:                 -10.984
REMARK INTRA:                  -1.521
REMARK UNBOUND:                -1.238
REMARK  Name = 
REMARK  8 active torsions:
REMARK  status: ('A' for Active; 'I' for Inactive)
REMARK    1  A    between atoms: C_2  and  C_27
REMARK    2  A    between atoms: N_3  and  CA_4
REMARK    3  A    between atoms: CA_4  and  C_5
REMARK    4  A    between atoms: CA_4  and  C_7
REMARK    5  A    between atoms: C_5  and  O_6
REMARK    6  A    between atoms: C_11  and  C_12
REMARK    7  A    between atoms: C_12  and  N_13
REMARK    8  A    between atoms: C_14  and  C_16
REMARK                            x       y       z     vdW  Elec       q    Type
REMARK                         _______ _______ _______ _____ _____    ______ ____
ROOT
ATOM      1  C   UNL     1      46.305   8.788  11.849  0.00  0.00    +0.000 A 
ATOM      2  C   UNL     1      46.298  10.191  11.889  0.00  0.00    +0.000 A 
ATOM      3  C   UNL     1      47.455  10.900  12.213  0.00  0.00    +0.000 A 
ATOM      4  C   UNL     1      48.641  10.218  12.478  0.00  0.00    +0.000 A 
ATOM      5  C   UNL     1      48.688   8.821  12.381  0.00  0.00    +0.000 A 
ATOM      6  C   UNL     1      47.516   8.117  12.070  0.00  0.00    +0.000 A 
ENDROOT
BRANCH   1   7
ATOM      7  CA  UNL     1      45.023   7.993  11.676  0.00  0.00    +0.000 C 
BRANCH   7  10
ATOM      8  O   UNL     1      43.768   5.478  12.141  0.00  0.00    +0.000 OA
ATOM      9  C   UNL     1      44.524   5.615  11.188  0.00  0.00    +0.000 C 
ATOM     10  N   UNL     1      45.212   6.772  10.898  0.00  0.00    +0.000 N 
ATOM     11  H   UNL     1      45.414   6.937   9.918  0.00  0.00    +0.000 HD
BRANCH   9  12
ATOM     12  C   UNL     1      44.714   4.496  10.221  0.00  0.00    +0.000 A 
ATOM     13  C   UNL     1      44.172   3.239  10.522  0.00  0.00    +0.000 A 
ATOM     14  C   UNL     1      44.370   2.163   9.656  0.00  0.00    +0.000 A 
ATOM     15  C   UNL     1      45.118   2.335   8.491  0.00  0.00    +0.000 A 
ATOM     16  C   UNL     1      45.661   3.585   8.195  0.00  0.00    +0.000 A 
ATOM     17 CL   UNL     1      46.600   3.789   6.767  0.00  0.00    +0.000 Cl
ATOM     18  C   UNL     1      45.464   4.668   9.051  0.00  0.00    +0.000 A 
ENDBRANCH   9  12
ENDBRANCH   7  10
BRANCH   7  19
ATOM     19  C   UNL     1      43.968   8.888  10.985  0.00  0.00    +0.000 C 
BRANCH  19  20
ATOM     20  O   UNL     1      42.705   8.222  10.914  0.00  0.00    +0.000 OA
ATOM     21  H   UNL     1      42.888   7.266  10.922  0.00  0.00    +0.000 HD
ENDBRANCH  19  20
ENDBRANCH   7  19
ENDBRANCH   1   7
BRANCH   5  22
ATOM     22  C   UNL     1      49.962   8.074  12.665  0.00  0.00    +0.000 C 
BRANCH  22  23
ATOM     23  N   UNL     1      49.806   7.199  13.800  0.00  0.00    +0.000 N 
ATOM     24  C   UNL     1      49.789   7.662  15.091  0.00  0.00    +0.000 C 
ATOM     25  O   UNL     1      49.873   8.857  15.360  0.00  0.00    +0.000 OA
ATOM     26  H   UNL     1      49.963   6.211  13.631  0.00  0.00    +0.000 HD
BRANCH  24  27
ATOM     27  C   UNL     1      49.600   6.658  16.145  0.00  0.00    +0.000 A 
ATOM     28  C   UNL     1      50.435   6.673  17.253  0.00  0.00    +0.000 A 
ATOM     29  S   UNL     1      50.058   5.482  18.411  0.00  0.00    +0.000 S 
ATOM     30  C   UNL     1      48.796   4.869  17.449  0.00  0.00    +0.000 A 
ATOM     31  N   UNL     1      48.059   3.803  17.862  0.00  0.00    +0.000 NA
ATOM     32  C   UNL     1      47.156   3.421  17.022  0.00  0.00    +0.000 A 
ATOM     33  N   UNL     1      46.923   4.010  15.809  0.00  0.00    +0.000 N 
ATOM     34  C   UNL     1      47.607   5.119  15.370  0.00  0.00    +0.000 A 
ATOM     35  O   UNL     1      47.316   5.667  14.311  0.00  0.00    +0.000 OA
ATOM     36  C   UNL     1      48.653   5.576  16.268  0.00  0.00    +0.000 A 
ATOM     37  H   UNL     1      46.188   3.671  15.202  0.00  0.00    +0.000 HD
ENDBRANCH  24  27
ENDBRANCH  22  23
ENDBRANCH   5  22
TORSDOF 8
ENDMDL
MODEL 5
REMARK VINA RESULT:    -7.729      3.340      6.322
REMARK INTER + INTRA:         -12.357
REMARK INTER:                 -10.392
REMARK INTRA:                  -1.964
REMARK UNBOUND:                -1.238
REMARK  Name = 
REMARK  8 active torsions:
REMARK  status: ('A' for Active; 'I' for Inactive)
REMARK    1  A    between atoms: C_2  and  C_27
REMARK    2  A    between atoms: N_3  and  CA_4
REMARK    3  A    between atoms: CA_4  and  C_5
REMARK    4  A    between atoms: CA_4  and  C_7
REMARK    5  A    between atoms: C_5  and  O_6
REMARK    6  A    between atoms: C_11  and  C_12
REMARK    7  A    between atoms: C_12  and  N_13
REMARK    8  A    between atoms: C_14  and  C_16
REMARK                            x       y       z     vdW  Elec       q    Type
REMARK                         _______ _______ _______ _____ _____    ______ ____
ROOT
ATOM      1  C   UNL     1      48.738   6.126  16.511  0.00  0.00    +0.000 A 
ATOM      2  C   UNL     1      49.089   6.488  17.821  0.00  0.00    +0.000 A 
ATOM      3  C   UNL     1      49.993   7.526  18.054  0.00  0.00    +0.000 A 
ATOM      4  C   UNL     1      50.538   8.231  16.983  0.00  0.00    +0.000 A 
ATOM      5  C   UNL     1      50.153   7.929  15.671  0.00  0.00    +0.000 A 
ATOM      6  C   UNL     1      49.257   6.874  15.446  0.00  0.00    +0.000 A 
ENDROOT
BRANCH   1   7
ATOM      7  CA  UNL     1      47.901   4.891  16.228  0.00  0.00    +0.000 C 
BRANCH   7  10
ATOM      8  O   UNL     1      47.316   2.947  14.229  0.00  0.00    +0.000 OA
ATOM      9  C   UNL     1      46.762   4.040  14.198  0.00  0.00    +0.000 C 
ATOM     10  N   UNL     1      47.004   5.061  15.089  0.00  0.00    +0.000 N 
ATOM     11  H   UNL     1      46.227   5.689  15.269  0.00  0.00    +0.000 HD
BRANCH   9  12
ATOM     12  C   UNL     1      45.716   4.316  13.173  0.00  0.00    +0.000 A 
ATOM     13  C   UNL     1      44.905   5.450  13.319  0.00  0.00    +0.000 A 
ATOM     14  C   UNL     1      43.890   5.711  12.397  0.00  0.00    +0.000 A 
ATOM     15  C   UNL     1      43.676   4.837  11.331  0.00  0.00    +0.000 A 
ATOM     16  C   UNL     1      44.481   3.707  11.190  0.00  0.00    +0.000 A 
ATOM     17 CL   UNL     1      44.201   2.620   9.885  0.00  0.00    +0.000 Cl
ATOM     18  C   UNL     1      45.501   3.440  12.102  0.00  0.00    +0.000 A 
ENDBRANCH   9  12
ENDBRANCH   7  10
BRANCH   7  19
ATOM     19  C   UNL     1      47.076   4.544  17.490  0.00  0.00    +0.000 C 
BRANCH  19  20
ATOM     20  O   UNL     1      46.625   3.189  17.445  0.00  0.00    +0.000 OA
ATOM     21  H   UNL     1      47.290   2.685  16.943  0.00  0.00    +0.000 HD
ENDBRANCH  19  20
ENDBRANCH   7  19
ENDBRANCH   1   7
BRANCH   5  22
ATOM     22  C   UNL     1      50.735   8.683  14.507  0.00  0.00    +0.000 C 
BRANCH  22  23
ATOM     23  N   UNL     1      49.711   9.411  13.798  0.00  0.00    +0.000 N 
ATOM     24  C   UNL     1      49.605   9.391  12.431  0.00  0.00    +0.000 C 
ATOM     25  O   UNL     1      50.358   8.725  11.724  0.00  0.00    +0.000 OA
ATOM     26  H   UNL     1      49.231  10.135  14.321  0.00  0.00    +0.000 HD
BRANCH  24  27
ATOM     27  C   UNL     1      48.501  10.160  11.848  0.00  0.00    +0.000 A 
ATOM     28  C   UNL     1      48.785  11.214  10.991  0.00  0.00    +0.000 A 
ATOM     29  S   UNL     1      47.400  11.974  10.356  0.00  0.00    +0.000 S 
ATOM     30  C   UNL     1      46.367  10.955  11.243  0.00  0.00    +0.000 A 
ATOM     31  N   UNL     1      45.016  11.092  11.165  0.00  0.00    +0.000 NA
ATOM     32  C   UNL     1      44.353  10.276  11.914  0.00  0.00    +0.000 A 
ATOM     33  N   UNL     1      44.918   9.335  12.730  0.00  0.00    +0.000 N 
ATOM     34  C   UNL     1      46.275   9.125  12.806  0.00  0.00    +0.000 A 
ATOM     35  O   UNL     1      46.741   8.219  13.489  0.00  0.00    +0.000 OA
ATOM     36  C   UNL     1      47.071  10.035  12.000  0.00  0.00    +0.000 A 
ATOM     37  H   UNL     1      44.340   8.714  13.282  0.00  0.00    +0.000 HD
ENDBRANCH  24  27
ENDBRANCH  22  23
ENDBRANCH   5  22
TORSDOF 8
ENDMDL
MODEL 6
REMARK VINA RESULT:    -7.722      4.131      8.184
REMARK INTER + INTRA:         -12.346
REMARK INTER:                 -12.113
REMARK INTRA:                  -0.233
REMARK UNBOUND:                -1.238
REMARK  Name = 
REMARK  8 active torsions:
REMARK  status: ('A' for Active; 'I' for Inactive)
REMARK    1  A    between atoms: C_2  and  C_27
REMARK    2  A    between atoms: N_3  and  CA_4
REMARK    3  A    between atoms: CA_4  and  C_5
REMARK    4  A    between atoms: CA_4  and  C_7
REMARK    5  A    between atoms: C_5  and  O_6
REMARK    6  A    between atoms: C_11  and  C_12
REMARK    7  A    between atoms: C_12  and  N_13
REMARK    8  A    between atoms: C_14  and  C_16
REMARK                            x       y       z     vdW  Elec       q    Type
REMARK                         _______ _______ _______ _____ _____    ______ ____
ROOT
ATOM      1  C   UNL     1      48.570   5.139  18.167  0.00  0.00    +0.000 A 
ATOM      2  C   UNL     1      48.550   6.058  19.228  0.00  0.00    +0.000 A 
ATOM      3  C   UNL     1      48.648   7.428  18.985  0.00  0.00    +0.000 A 
ATOM      4  C   UNL     1      48.743   7.901  17.678  0.00  0.00    +0.000 A 
ATOM      5  C   UNL     1      48.699   7.007  16.600  0.00  0.00    +0.000 A 
ATOM      6  C   UNL     1      48.617   5.631  16.856  0.00  0.00    +0.000 A 
ENDROOT
BRANCH   1   7
ATOM      7  CA  UNL     1      48.645   3.643  18.415  0.00  0.00    +0.000 C 
BRANCH   7  10
ATOM      8  O   UNL     1      49.978   2.062  16.456  0.00  0.00    +0.000 OA
ATOM      9  C   UNL     1      50.577   2.418  17.463  0.00  0.00    +0.000 C 
ATOM     10  N   UNL     1      50.016   3.147  18.488  0.00  0.00    +0.000 N 
ATOM     11  H   UNL     1      50.646   3.755  19.000  0.00  0.00    +0.000 HD
BRANCH   9  12
ATOM     12  C   UNL     1      52.026   2.104  17.618  0.00  0.00    +0.000 A 
ATOM     13  C   UNL     1      52.905   3.125  18.007  0.00  0.00    +0.000 A 
ATOM     14  C   UNL     1      54.272   2.870  18.120  0.00  0.00    +0.000 A 
ATOM     15  C   UNL     1      54.769   1.598  17.835  0.00  0.00    +0.000 A 
ATOM     16  C   UNL     1      53.894   0.585  17.443  0.00  0.00    +0.000 A 
ATOM     17 CL   UNL     1      54.513  -0.978  17.072  0.00  0.00    +0.000 Cl
ATOM     18  C   UNL     1      52.526   0.827  17.333  0.00  0.00    +0.000 A 
ENDBRANCH   9  12
ENDBRANCH   7  10
BRANCH   7  19
ATOM     19  C   UNL     1      47.888   2.909  17.282  0.00  0.00    +0.000 C 
BRANCH  19  20
ATOM     20  O   UNL     1      46.505   2.757  17.611  0.00  0.00    +0.000 OA
ATOM     21  H   UNL     1      46.413   1.895  18.055  0.00  0.00    +0.000 HD
ENDBRANCH  19  20
ENDBRANCH   7  19
ENDBRANCH   1   7
BRANCH   5  22
ATOM     22  C   UNL     1      48.800   7.505  15.185  0.00  0.00    +0.000 C 
BRANCH  22  23
ATOM     23  N   UNL     1      47.601   7.202  14.443  0.00  0.00    +0.000 N 
ATOM     24  C   UNL     1      47.599   6.367  13.355  0.00  0.00    +0.000 C 
ATOM     25  O   UNL     1      48.615   5.798  12.963  0.00  0.00    +0.000 OA
ATOM     26  H   UNL     1      46.811   7.819  14.595  0.00  0.00    +0.000 HD
BRANCH  24  27
ATOM     27  C   UNL     1      46.301   6.131  12.712  0.00  0.00    +0.000 A 
ATOM     28  C   UNL     1      45.607   7.204  12.171  0.00  0.00    +0.000 A 
ATOM     29  S   UNL     1      44.146   6.765  11.415  0.00  0.00    +0.000 S 
ATOM     30  C   UNL     1      44.362   5.129  11.828  0.00  0.00    +0.000 A 
ATOM     31  N   UNL     1      43.434   4.195  11.485  0.00  0.00    +0.000 NA
ATOM     32  C   UNL     1      43.706   2.999  11.889  0.00  0.00    +0.000 A 
ATOM     33  N   UNL     1      44.822   2.654  12.601  0.00  0.00    +0.000 N 
ATOM     34  C   UNL     1      45.811   3.552  12.928  0.00  0.00    +0.000 A 
ATOM     35  O   UNL     1      46.835   3.190  13.499  0.00  0.00    +0.000 OA
ATOM     36  C   UNL     1      45.543   4.919  12.519  0.00  0.00    +0.000 A 
ATOM     37  H   UNL     1      44.985   1.694  12.874  0.00  0.00    +0.000 HD
ENDBRANCH  24  27
ENDBRANCH  22  23
ENDBRANCH   5  22
TORSDOF 8
ENDMDL
MODEL 7
REMARK VINA RESULT:    -7.524      3.232      4.880
REMARK INTER + INTRA:         -12.061
REMARK INTER:                 -11.224
REMARK INTRA:                  -0.837
REMARK UNBOUND:                -1.238
REMARK  Name = 
REMARK  8 active torsions:
REMARK  status: ('A' for Active; 'I' for Inactive)
REMARK    1  A    between atoms: C_2  and  C_27
REMARK    2  A    between atoms: N_3  and  CA_4
REMARK    3  A    between atoms: CA_4  and  C_5
REMARK    4  A    between atoms: CA_4  and  C_7
REMARK    5  A    between atoms: C_5  and  O_6
REMARK    6  A    between atoms: C_11  and  C_12
REMARK    7  A    between atoms: C_12  and  N_13
REMARK    8  A    between atoms: C_14  and  C_16
REMARK                            x       y       z     vdW  Elec       q    Type
REMARK                         _______ _______ _______ _____ _____    ______ ____
ROOT
ATOM      1  C   UNL     1      45.051   4.928  12.260  0.00  0.00    +0.000 A 
ATOM      2  C   UNL     1      45.989   4.191  12.999  0.00  0.00    +0.000 A 
ATOM      3  C   UNL     1      47.032   4.832  13.667  0.00  0.00    +0.000 A 
ATOM      4  C   UNL     1      47.137   6.221  13.628  0.00  0.00    +0.000 A 
ATOM      5  C   UNL     1      46.176   6.982  12.951  0.00  0.00    +0.000 A 
ATOM      6  C   UNL     1      45.140   6.327  12.268  0.00  0.00    +0.000 A 
ENDROOT
BRANCH   1   7
ATOM      7  CA  UNL     1      44.018   4.245  11.381  0.00  0.00    +0.000 C 
BRANCH   7  10
ATOM      8  O   UNL     1      45.386   5.386   9.158  0.00  0.00    +0.000 OA
ATOM      9  C   UNL     1      45.288   4.169   9.255  0.00  0.00    +0.000 C 
ATOM     10  N   UNL     1      44.614   3.518  10.264  0.00  0.00    +0.000 N 
ATOM     11  H   UNL     1      44.961   2.598  10.511  0.00  0.00    +0.000 HD
BRANCH   9  12
ATOM     12  C   UNL     1      45.962   3.286   8.261  0.00  0.00    +0.000 A 
ATOM     13  C   UNL     1      46.475   3.854   7.086  0.00  0.00    +0.000 A 
ATOM     14  C   UNL     1      47.074   3.047   6.119  0.00  0.00    +0.000 A 
ATOM     15  C   UNL     1      47.155   1.668   6.316  0.00  0.00    +0.000 A 
ATOM     16  C   UNL     1      46.641   1.104   7.483  0.00  0.00    +0.000 A 
ATOM     17 CL   UNL     1      46.725  -0.600   7.715  0.00  0.00    +0.000 Cl
ATOM     18  C   UNL     1      46.046   1.903   8.459  0.00  0.00    +0.000 A 
ENDBRANCH   9  12
ENDBRANCH   7  10
BRANCH   7  19
ATOM     19  C   UNL     1      43.035   5.310  10.841  0.00  0.00    +0.000 C 
BRANCH  19  20
ATOM     20  O   UNL     1      41.906   5.446  11.708  0.00  0.00    +0.000 OA
ATOM     21  H   UNL     1      41.206   4.871  11.351  0.00  0.00    +0.000 HD
ENDBRANCH  19  20
ENDBRANCH   7  19
ENDBRANCH   1   7
BRANCH   5  22
ATOM     22  C   UNL     1      46.278   8.482  12.901  0.00  0.00    +0.000 C 
BRANCH  22  23
ATOM     23  N   UNL     1      47.468   8.896  12.198  0.00  0.00    +0.000 N 
ATOM     24  C   UNL     1      48.422   9.696  12.772  0.00  0.00    +0.000 C 
ATOM     25  O   UNL     1      48.340  10.085  13.934  0.00  0.00    +0.000 OA
ATOM     26  H   UNL     1      47.454   8.787  11.190  0.00  0.00    +0.000 HD
BRANCH  24  27
ATOM     27  C   UNL     1      49.590  10.018  11.945  0.00  0.00    +0.000 A 
ATOM     28  C   UNL     1      49.884  11.347  11.673  0.00  0.00    +0.000 A 
ATOM     29  S   UNL     1      51.298  11.561  10.747  0.00  0.00    +0.000 S 
ATOM     30  C   UNL     1      51.541   9.882  10.631  0.00  0.00    +0.000 A 
ATOM     31  N   UNL     1      52.595   9.377   9.935  0.00  0.00    +0.000 NA
ATOM     32  C   UNL     1      52.641   8.087   9.899  0.00  0.00    +0.000 A 
ATOM     33  N   UNL     1      51.732   7.259  10.498  0.00  0.00    +0.000 N 
ATOM     34  C   UNL     1      50.680   7.721  11.253  0.00  0.00    +0.000 A 
ATOM     35  O   UNL     1      49.930   6.947  11.840  0.00  0.00    +0.000 OA
ATOM     36  C   UNL     1      50.566   9.168  11.305  0.00  0.00    +0.000 A 
ATOM     37  H   UNL     1      51.835   6.254  10.446  0.00  0.00    +0.000 HD
ENDBRANCH  24  27
ENDBRANCH  22  23
ENDBRANCH   5  22
TORSDOF 8
ENDMDL
MODEL 8
REMARK VINA RESULT:    -7.476      3.338      5.919
REMARK INTER + INTRA:         -11.992
REMARK INTER:                 -10.594
REMARK INTRA:                  -1.397
REMARK UNBOUND:                -1.238
REMARK  Name = 
REMARK  8 active torsions:
REMARK  status: ('A' for Active; 'I' for Inactive)
REMARK    1  A    between atoms: C_2  and  C_27
REMARK    2  A    between atoms: N_3  and  CA_4
REMARK    3  A    between atoms: CA_4  and  C_5
REMARK    4  A    between atoms: CA_4  and  C_7
REMARK    5  A    between atoms: C_5  and  O_6
REMARK    6  A    between atoms: C_11  and  C_12
REMARK    7  A    between atoms: C_12  and  N_13
REMARK    8  A    between atoms: C_14  and  C_16
REMARK                            x       y       z     vdW  Elec       q    Type
REMARK                         _______ _______ _______ _____ _____    ______ ____
ROOT
ATOM      1  C   UNL     1      45.895   5.742  12.948  0.00  0.00    +0.000 A 
ATOM      2  C   UNL     1      46.385   4.960  14.005  0.00  0.00    +0.000 A 
ATOM      3  C   UNL     1      47.443   5.412  14.794  0.00  0.00    +0.000 A 
ATOM      4  C   UNL     1      48.010   6.662  14.553  0.00  0.00    +0.000 A 
ATOM      5  C   UNL     1      47.494   7.487  13.544  0.00  0.00    +0.000 A 
ATOM      6  C   UNL     1      46.441   7.017  12.747  0.00  0.00    +0.000 A 
ENDROOT
BRANCH   1   7
ATOM      7  CA  UNL     1      44.870   5.198  11.968  0.00  0.00    +0.000 C 
BRANCH   7  10
ATOM      8  O   UNL     1      43.599   3.256  10.316  0.00  0.00    +0.000 OA
ATOM      9  C   UNL     1      44.758   3.584  10.091  0.00  0.00    +0.000 C 
ATOM     10  N   UNL     1      45.476   4.480  10.851  0.00  0.00    +0.000 N 
ATOM     11  H   UNL     1      46.189   5.009  10.361  0.00  0.00    +0.000 HD
BRANCH   9  12
ATOM     12  C   UNL     1      45.469   3.038   8.900  0.00  0.00    +0.000 A 
ATOM     13  C   UNL     1      45.814   3.909   7.857  0.00  0.00    +0.000 A 
ATOM     14  C   UNL     1      46.443   3.418   6.712  0.00  0.00    +0.000 A 
ATOM     15  C   UNL     1      46.720   2.055   6.599  0.00  0.00    +0.000 A 
ATOM     16  C   UNL     1      46.371   1.190   7.636  0.00  0.00    +0.000 A 
ATOM     17 CL   UNL     1      46.697  -0.494   7.485  0.00  0.00    +0.000 Cl
ATOM     18  C   UNL     1      45.749   1.671   8.787  0.00  0.00    +0.000 A 
ENDBRANCH   9  12
ENDBRANCH   7  10
BRANCH   7  19
ATOM     19  C   UNL     1      44.020   6.373  11.428  0.00  0.00    +0.000 C 
BRANCH  19  20
ATOM     20  O   UNL     1      42.654   6.237  11.827  0.00  0.00    +0.000 OA
ATOM     21  H   UNL     1      42.490   5.286  11.956  0.00  0.00    +0.000 HD
ENDBRANCH  19  20
ENDBRANCH   7  19
ENDBRANCH   1   7
BRANCH   5  22
ATOM     22  C   UNL     1      48.097   8.839  13.274  0.00  0.00    +0.000 C 
BRANCH  22  23
ATOM     23  N   UNL     1      47.334   9.557  12.284  0.00  0.00    +0.000 N 
ATOM     24  C   UNL     1      47.501  10.898  12.054  0.00  0.00    +0.000 C 
ATOM     25  O   UNL     1      48.337  11.567  12.657  0.00  0.00    +0.000 OA
ATOM     26  H   UNL     1      46.497   9.096  11.941  0.00  0.00    +0.000 HD
BRANCH  24  27
ATOM     27  C   UNL     1      46.672  11.491  10.999  0.00  0.00    +0.000 A 
ATOM     28  C   UNL     1      47.266  12.304  10.044  0.00  0.00    +0.000 A 
ATOM     29  S   UNL     1      46.184  12.873   8.859  0.00  0.00    +0.000 S 
ATOM     30  C   UNL     1      44.870  12.097   9.609  0.00  0.00    +0.000 A 
ATOM     31  N   UNL     1      43.614  12.201   9.096  0.00  0.00    +0.000 NA
ATOM     32  C   UNL     1      42.706  11.590   9.782  0.00  0.00    +0.000 A 
ATOM     33  N   UNL     1      42.941  10.884  10.930  0.00  0.00    +0.000 N 
ATOM     34  C   UNL     1      44.198  10.709  11.458  0.00  0.00    +0.000 A 
ATOM     35  O   UNL     1      44.380  10.003  12.446  0.00  0.00    +0.000 OA
ATOM     36  C   UNL     1      45.256  11.397  10.739  0.00  0.00    +0.000 A 
ATOM     37  H   UNL     1      42.186  10.414  11.412  0.00  0.00    +0.000 HD
ENDBRANCH  24  27
ENDBRANCH  22  23
ENDBRANCH   5  22
TORSDOF 8
ENDMDL
MODEL 9
REMARK VINA RESULT:    -7.416      4.555      9.631
REMARK INTER + INTRA:         -11.906
REMARK INTER:                 -10.596
REMARK INTRA:                  -1.310
REMARK UNBOUND:                -1.238
REMARK  Name = 
REMARK  8 active torsions:
REMARK  status: ('A' for Active; 'I' for Inactive)
REMARK    1  A    between atoms: C_2  and  C_27
REMARK    2  A    between atoms: N_3  and  CA_4
REMARK    3  A    between atoms: CA_4  and  C_5
REMARK    4  A    between atoms: CA_4  and  C_7
REMARK    5  A    between atoms: C_5  and  O_6
REMARK    6  A    between atoms: C_11  and  C_12
REMARK    7  A    between atoms: C_12  and  N_13
REMARK    8  A    between atoms: C_14  and  C_16
REMARK                            x       y       z     vdW  Elec       q    Type
REMARK                         _______ _______ _______ _____ _____    ______ ____
ROOT
ATOM      1  C   UNL     1      50.645   4.871  17.545  0.00  0.00    +0.000 A 
ATOM      2  C   UNL     1      51.449   3.721  17.575  0.00  0.00    +0.000 A 
ATOM      3  C   UNL     1      50.889   2.456  17.398  0.00  0.00    +0.000 A 
ATOM      4  C   UNL     1      49.522   2.324  17.162  0.00  0.00    +0.000 A 
ATOM      5  C   UNL     1      48.710   3.461  17.063  0.00  0.00    +0.000 A 
ATOM      6  C   UNL     1      49.280   4.727  17.259  0.00  0.00    +0.000 A 
ENDROOT
BRANCH   1   7
ATOM      7  CA  UNL     1      51.199   6.236  17.912  0.00  0.00    +0.000 C 
BRANCH   7  10
ATOM      8  O   UNL     1      49.793   6.934  20.290  0.00  0.00    +0.000 OA
ATOM      9  C   UNL     1      49.570   7.539  19.249  0.00  0.00    +0.000 C 
ATOM     10  N   UNL     1      50.161   7.255  18.039  0.00  0.00    +0.000 N 
ATOM     11  H   UNL     1      50.275   8.038  17.403  0.00  0.00    +0.000 HD
BRANCH   9  12
ATOM     12  C   UNL     1      48.633   8.699  19.249  0.00  0.00    +0.000 A 
ATOM     13  C   UNL     1      48.699   9.625  18.199  0.00  0.00    +0.000 A 
ATOM     14  C   UNL     1      47.863  10.743  18.194  0.00  0.00    +0.000 A 
ATOM     15  C   UNL     1      46.965  10.945  19.243  0.00  0.00    +0.000 A 
ATOM     16  C   UNL     1      46.904  10.025  20.290  0.00  0.00    +0.000 A 
ATOM     17 CL   UNL     1      45.809  10.288  21.592  0.00  0.00    +0.000 Cl
ATOM     18  C   UNL     1      47.730   8.902  20.300  0.00  0.00    +0.000 A 
ENDBRANCH   9  12
ENDBRANCH   7  10
BRANCH   7  19
ATOM     19  C   UNL     1      52.220   6.669  16.833  0.00  0.00    +0.000 C 
BRANCH  19  20
ATOM     20  O   UNL     1      51.571   6.889  15.578  0.00  0.00    +0.000 OA
ATOM     21  H   UNL     1      50.918   7.599  15.718  0.00  0.00    +0.000 HD
ENDBRANCH  19  20
ENDBRANCH   7  19
ENDBRANCH   1   7
BRANCH   5  22
ATOM     22  C   UNL     1      47.234   3.331  16.810  0.00  0.00    +0.000 C 
BRANCH  22  23
ATOM     23  N   UNL     1      46.784   4.315  15.855  0.00  0.00    +0.000 N 
ATOM     24  C   UNL     1      46.857   4.114  14.501  0.00  0.00    +0.000 C 
ATOM     25  O   UNL     1      47.281   3.069  14.015  0.00  0.00    +0.000 OA
ATOM     26  H   UNL     1      46.649   5.255  16.210  0.00  0.00    +0.000 HD
BRANCH  24  27
ATOM     27  C   UNL     1      46.342   5.192  13.650  0.00  0.00    +0.000 A 
ATOM     28  C   UNL     1      47.096   6.346  13.484  0.00  0.00    +0.000 A 
ATOM     29  S   UNL     1      46.390   7.480  12.428  0.00  0.00    +0.000 S 
ATOM     30  C   UNL     1      45.024   6.493  12.193  0.00  0.00    +0.000 A 
ATOM     31  N   UNL     1      44.002   6.897  11.392  0.00  0.00    +0.000 NA
ATOM     32  C   UNL     1      43.015   6.067  11.328  0.00  0.00    +0.000 A 
ATOM     33  N   UNL     1      42.959   4.872  11.991  0.00  0.00    +0.000 N 
ATOM     34  C   UNL     1      43.987   4.399  12.772  0.00  0.00    +0.000 A 
ATOM     35  O   UNL     1      43.935   3.286  13.287  0.00  0.00    +0.000 OA
ATOM     36  C   UNL     1      45.115   5.306  12.898  0.00  0.00    +0.000 A 
ATOM     37  H   UNL     1      42.162   4.258  11.886  0.00  0.00    +0.000 HD
ENDBRANCH  24  27
ENDBRANCH  22  23
ENDBRANCH   5  22
TORSDOF 8
ENDMDL
