MODEL 1
REMARK VINA RESULT:    -8.469      0.000      0.000
REMARK INTER + INTRA:         -13.286
REMARK INTER:                 -12.430
REMARK INTRA:                  -0.855
REMARK UNBOUND:                -0.855
REMARK  Name = 
REMARK  9 active torsions:
REMARK  status: ('A' for Active; 'I' for Inactive)
REMARK    1  A    between atoms: C_1  and  C_2
REMARK    2  A    between atoms: C_2  and  C_3
REMARK    3  A    between atoms: C_2  and  C_20
REMARK    4  A    between atoms: C_3  and  N_4
REMARK    5  A    between atoms: N_4  and  C_5
REMARK    6  A    between atoms: C_9  and  C_10
REMARK    7  A    between atoms: C_10  and  N_11
REMARK    8  A    between atoms: N_11  and  C_12
REMARK    9  A    between atoms: C_12  and  C_13
REMARK                            x       y       z     vdW  Elec       q    Type
REMARK                         _______ _______ _______ _____ _____    ______ ____
ROOT
ATOM      1  N   UNL     1      46.607   4.350  14.891  0.00  0.00    +0.000 N 
ATOM      2  H   UNL     1      46.755   3.369  14.668  0.00  0.00    +0.000 HD
ENDROOT
BRANCH   1   3
ATOM      3  C   UNL     1      46.408   5.070  13.711  0.00  0.00    +0.000 A 
ATOM      4  C   UNL     1      47.374   5.872  13.100  0.00  0.00    +0.000 A 
ATOM      5  C   UNL     1      47.080   6.579  11.931  0.00  0.00    +0.000 A 
ATOM      6  C   UNL     1      45.809   6.500  11.362  0.00  0.00    +0.000 A 
ATOM      7  C   UNL     1      44.819   5.710  11.958  0.00  0.00    +0.000 A 
ATOM      8  C   UNL     1      45.125   5.036  13.148  0.00  0.00    +0.000 A 
BRANCH   7   9
ATOM      9  C   UNL     1      43.456   5.540  11.335  0.00  0.00    +0.000 C 
BRANCH   9  10
ATOM     10  N   UNL     1      43.578   5.052   9.961  0.00  0.00    +0.000 NA
ATOM     11  H   UNL     1      44.304   5.598   9.493  0.00  0.00    +0.000 HD
BRANCH  10  12
ATOM     12  C   UNL     1      43.969   3.639   9.939  0.00  0.00    +0.000 C 
BRANCH  12  13
ATOM     13  C   UNL     1      45.027   3.363   8.906  0.00  0.00    +0.000 A 
ATOM     14  C   UNL     1      45.547   2.097   8.718  0.00  0.00    +0.000 A 
ATOM     15  N   UNL     1      46.525   1.826   7.830  0.00  0.00    +0.000 NA
ATOM     16  C   UNL     1      46.947   2.892   7.132  0.00  0.00    +0.000 A 
ATOM     17  N   UNL     1      46.469   4.148   7.252  0.00  0.00    +0.000 NA
ATOM     18  N   UNL     1      45.488   4.389   8.160  0.00  0.00    +0.000 NA
ENDBRANCH  12  13
ENDBRANCH  10  12
ENDBRANCH   9  10
ENDBRANCH   7   9
ENDBRANCH   1   3
BRANCH   1  19
ATOM     19  C   UNL     1      47.506   4.861  15.924  0.00  0.00    +0.000 C 
BRANCH  19  21
ATOM     20  C   UNL     1      47.248   2.919  17.568  0.00  0.00    +0.000 C 
ATOM     21  C   UNL     1      48.219   3.724  16.689  0.00  0.00    +0.000 C 
BRANCH  21  22
ATOM     22  C   UNL     1      49.429   4.214  17.472  0.00  0.00    +0.000 A 
ATOM     23  C   UNL     1      49.548   5.470  18.047  0.00  0.00    +0.000 A 
ATOM     24  S   UNL     1      51.035   5.708  18.852  0.00  0.00    +0.000 S 
ATOM     25  C   UNL     1      51.564   4.141  18.461  0.00  0.00    +0.000 A 
ATOM     26  N   UNL     1      52.784   3.690  18.866  0.00  0.00    +0.000 NA
ATOM     27  C   UNL     1      53.042   2.479  18.505  0.00  0.00    +0.000 A 
ATOM     28  N   UNL     1      52.195   1.672  17.775  0.00  0.00    +0.000 N 
ATOM     29  C   UNL     1      50.963   2.084  17.331  0.00  0.00    +0.000 A 
ATOM     30  O   UNL     1      50.236   1.349  16.674  0.00  0.00    +0.000 OA
ATOM     31  C   UNL     1      50.624   3.442  17.725  0.00  0.00    +0.000 A 
ATOM     32  H   UNL     1      52.468   0.732  17.531  0.00  0.00    +0.000 HD
ENDBRANCH  21  22
ENDBRANCH  19  21
ENDBRANCH   1  19
TORSDOF 8
ENDMDL
MODEL 2
REMARK VINA RESULT:    -7.697      2.008      2.958
REMARK INTER + INTRA:         -12.152
REMARK INTER:                 -10.828
REMARK INTRA:                  -1.324
REMARK UNBOUND:                -0.855
REMARK  Name = 
REMARK  9 active torsions:
REMARK  status: ('A' for Active; 'I' for Inactive)
REMARK    1  A    between atoms: C_1  and  C_2
REMARK    2  A    between atoms: C_2  and  C_3
REMARK    3  A    between atoms: C_2  and  C_20
REMARK    4  A    between atoms: C_3  and  N_4
REMARK    5  A    between atoms: N_4  and  C_5
REMARK    6  A    between atoms: C_9  and  C_10
REMARK    7  A    between atoms: C_10  and  N_11
REMARK    8  A    between atoms: N_11  and  C_12
REMARK    9  A    between atoms: C_12  and  C_13
REMARK                            x       y       z     vdW  Elec       q    Type
REMARK                         _______ _______ _______ _____ _____    ______ ____
ROOT
ATOM      1  N   UNL     1      48.276   6.422  12.733  0.00  0.00    +0.000 N 
ATOM      2  H   UNL     1      48.788   6.062  11.931  0.00  0.00    +0.000 HD
ENDROOT
BRANCH   1   3
ATOM      3  C   UNL     1      47.080   6.999  12.303  0.00  0.00    +0.000 A 
ATOM      4  C   UNL     1      46.888   8.367  12.099  0.00  0.00    +0.000 A 
ATOM      5  C   UNL     1      45.646   8.861  11.690  0.00  0.00    +0.000 A 
ATOM      6  C   UNL     1      44.575   7.991  11.489  0.00  0.00    +0.000 A 
ATOM      7  C   UNL     1      44.737   6.616  11.693  0.00  0.00    +0.000 A 
ATOM      8  C   UNL     1      45.980   6.145  12.135  0.00  0.00    +0.000 A 
BRANCH   7   9
ATOM      9  C   UNL     1      43.625   5.635  11.416  0.00  0.00    +0.000 C 
BRANCH   9  10
ATOM     10  N   UNL     1      43.675   5.183  10.025  0.00  0.00    +0.000 NA
ATOM     11  H   UNL     1      44.406   5.713   9.546  0.00  0.00    +0.000 HD
BRANCH  10  12
ATOM     12  C   UNL     1      44.004   3.757   9.948  0.00  0.00    +0.000 C 
BRANCH  12  13
ATOM     13  C   UNL     1      45.074   3.479   8.929  0.00  0.00    +0.000 A 
ATOM     14  C   UNL     1      45.567   2.206   8.720  0.00  0.00    +0.000 A 
ATOM     15  N   UNL     1      46.555   1.931   7.843  0.00  0.00    +0.000 NA
ATOM     16  C   UNL     1      47.015   3.003   7.179  0.00  0.00    +0.000 A 
ATOM     17  N   UNL     1      46.565   4.267   7.319  0.00  0.00    +0.000 NA
ATOM     18  N   UNL     1      45.573   4.511   8.215  0.00  0.00    +0.000 NA
ENDBRANCH  12  13
ENDBRANCH  10  12
ENDBRANCH   9  10
ENDBRANCH   7   9
ENDBRANCH   1   3
BRANCH   1  19
ATOM     19  C   UNL     1      49.120   7.114  13.706  0.00  0.00    +0.000 C 
BRANCH  19  21
ATOM     20  C   UNL     1      48.304   8.895  15.350  0.00  0.00    +0.000 C 
ATOM     21  C   UNL     1      48.375   7.393  15.029  0.00  0.00    +0.000 C 
BRANCH  21  22
ATOM     22  C   UNL     1      48.926   6.584  16.195  0.00  0.00    +0.000 A 
ATOM     23  C   UNL     1      49.942   7.001  17.041  0.00  0.00    +0.000 A 
ATOM     24  S   UNL     1      50.333   5.856  18.246  0.00  0.00    +0.000 S 
ATOM     25  C   UNL     1      49.156   4.769  17.677  0.00  0.00    +0.000 A 
ATOM     26  N   UNL     1      48.960   3.566  18.284  0.00  0.00    +0.000 NA
ATOM     27  C   UNL     1      48.027   2.855  17.749  0.00  0.00    +0.000 A 
ATOM     28  N   UNL     1      47.269   3.232  16.660  0.00  0.00    +0.000 N 
ATOM     29  C   UNL     1      47.437   4.426  16.005  0.00  0.00    +0.000 A 
ATOM     30  O   UNL     1      46.756   4.730  15.033  0.00  0.00    +0.000 OA
ATOM     31  C   UNL     1      48.474   5.268  16.582  0.00  0.00    +0.000 A 
ATOM     32  H   UNL     1      46.553   2.619  16.298  0.00  0.00    +0.000 HD
ENDBRANCH  21  22
ENDBRANCH  19  21
ENDBRANCH   1  19
TORSDOF 8
ENDMDL
MODEL 3
REMARK VINA RESULT:    -7.179      3.580      8.659
REMARK INTER + INTRA:         -11.392
REMARK INTER:                 -10.372
REMARK INTRA:                  -1.020
REMARK UNBOUND:                -0.855
REMARK  Name = 
REMARK  9 active torsions:
REMARK  status: ('A' for Active; 'I' for Inactive)
REMARK    1  A    between atoms: C_1  and  C_2
REMARK    2  A    between atoms: C_2  and  C_3
REMARK    3  A    between atoms: C_2  and  C_20
REMARK    4  A    between atoms: C_3  and  N_4
REMARK    5  A    between atoms: N_4  and  C_5
REMARK    6  A    between atoms: C_9  and  C_10
REMARK    7  A    between atoms: C_10  and  N_11
REMARK    8  A    between atoms: N_11  and  C_12
REMARK    9  A    between atoms: C_12  and  C_13
REMARK                            x       y       z     vdW  Elec       q    Type
REMARK                         _______ _______ _______ _____ _____    ______ ____
ROOT
ATOM      1  N   UNL     1      47.522   8.433  11.963  0.00  0.00    +0.000 N 
ATOM      2  H   UNL     1      48.102   8.759  11.194  0.00  0.00    +0.000 HD
ENDROOT
BRANCH   1   3
ATOM      3  C   UNL     1      48.092   8.826  13.175  0.00  0.00    +0.000 A 
ATOM      4  C   UNL     1      48.601  10.100  13.435  0.00  0.00    +0.000 A 
ATOM      5  C   UNL     1      49.178  10.400  14.672  0.00  0.00    +0.000 A 
ATOM      6  C   UNL     1      49.263   9.424  15.664  0.00  0.00    +0.000 A 
ATOM      7  C   UNL     1      48.768   8.136  15.428  0.00  0.00    +0.000 A 
ATOM      8  C   UNL     1      48.224   7.847  14.169  0.00  0.00    +0.000 A 
BRANCH   7   9
ATOM      9  C   UNL     1      48.775   7.073  16.499  0.00  0.00    +0.000 C 
BRANCH   9  10
ATOM     10  N   UNL     1      48.156   5.843  16.004  0.00  0.00    +0.000 NA
ATOM     11  H   UNL     1      48.791   5.419  15.325  0.00  0.00    +0.000 HD
BRANCH  10  12
ATOM     12  C   UNL     1      47.933   4.891  17.095  0.00  0.00    +0.000 C 
BRANCH  12  13
ATOM     13  C   UNL     1      48.926   3.762  17.070  0.00  0.00    +0.000 A 
ATOM     14  C   UNL     1      50.098   3.807  17.798  0.00  0.00    +0.000 A 
ATOM     15  N   UNL     1      51.027   2.829  17.763  0.00  0.00    +0.000 NA
ATOM     16  C   UNL     1      50.709   1.797  16.967  0.00  0.00    +0.000 A 
ATOM     17  N   UNL     1      49.575   1.680  16.247  0.00  0.00    +0.000 NA
ATOM     18  N   UNL     1      48.663   2.685  16.298  0.00  0.00    +0.000 NA
ENDBRANCH  12  13
ENDBRANCH  10  12
ENDBRANCH   9  10
ENDBRANCH   7   9
ENDBRANCH   1   3
BRANCH   1  19
ATOM     19  C   UNL     1      47.027   7.068  11.788  0.00  0.00    +0.000 C 
BRANCH  19  21
ATOM     20  C   UNL     1      44.755   8.231  11.623  0.00  0.00    +0.000 C 
ATOM     21  C   UNL     1      45.612   7.037  11.171  0.00  0.00    +0.000 C 
BRANCH  21  22
ATOM     22  C   UNL     1      44.904   5.708  11.393  0.00  0.00    +0.000 A 
ATOM     23  C   UNL     1      44.193   5.368  12.534  0.00  0.00    +0.000 A 
ATOM     24  S   UNL     1      43.524   3.798  12.472  0.00  0.00    +0.000 S 
ATOM     25  C   UNL     1      44.160   3.525  10.919  0.00  0.00    +0.000 A 
ATOM     26  N   UNL     1      43.944   2.349  10.268  0.00  0.00    +0.000 NA
ATOM     27  C   UNL     1      44.478   2.292   9.095  0.00  0.00    +0.000 A 
ATOM     28  N   UNL     1      45.210   3.302   8.509  0.00  0.00    +0.000 N 
ATOM     29  C   UNL     1      45.468   4.500   9.128  0.00  0.00    +0.000 A 
ATOM     30  O   UNL     1      46.133   5.375   8.586  0.00  0.00    +0.000 OA
ATOM     31  C   UNL     1      44.875   4.613  10.451  0.00  0.00    +0.000 A 
ATOM     32  H   UNL     1      45.596   3.183   7.584  0.00  0.00    +0.000 HD
ENDBRANCH  21  22
ENDBRANCH  19  21
ENDBRANCH   1  19
TORSDOF 8
ENDMDL
MODEL 4
REMARK VINA RESULT:    -7.081      1.600      2.263
REMARK INTER + INTRA:         -11.247
REMARK INTER:                 -11.135
REMARK INTRA:                  -0.113
REMARK UNBOUND:                -0.855
REMARK  Name = 
REMARK  9 active torsions:
REMARK  status: ('A' for Active; 'I' for Inactive)
REMARK    1  A    between atoms: C_1  and  C_2
REMARK    2  A    between atoms: C_2  and  C_3
REMARK    3  A    between atoms: C_2  and  C_20
REMARK    4  A    between atoms: C_3  and  N_4
REMARK    5  A    between atoms: N_4  and  C_5
REMARK    6  A    between atoms: C_9  and  C_10
REMARK    7  A    between atoms: C_10  and  N_11
REMARK    8  A    between atoms: N_11  and  C_12
REMARK    9  A    between atoms: C_12  and  C_13
REMARK                            x       y       z     vdW  Elec       q    Type
REMARK                         _______ _______ _______ _____ _____    ______ ____
ROOT
ATOM      1  N   UNL     1      47.163   3.453  14.374  0.00  0.00    +0.000 N 
ATOM      2  H   UNL     1      47.829   2.843  13.907  0.00  0.00    +0.000 HD
ENDROOT
BRANCH   1   3
ATOM      3  C   UNL     1      46.565   4.296  13.435  0.00  0.00    +0.000 A 
ATOM      4  C   UNL     1      47.083   5.529  13.036  0.00  0.00    +0.000 A 
ATOM      5  C   UNL     1      46.404   6.322  12.107  0.00  0.00    +0.000 A 
ATOM      6  C   UNL     1      45.190   5.894  11.571  0.00  0.00    +0.000 A 
ATOM      7  C   UNL     1      44.644   4.665  11.960  0.00  0.00    +0.000 A 
ATOM      8  C   UNL     1      45.324   3.901  12.918  0.00  0.00    +0.000 A 
BRANCH   7   9
ATOM      9  C   UNL     1      43.370   4.133  11.350  0.00  0.00    +0.000 C 
BRANCH   9  10
ATOM     10  N   UNL     1      43.578   3.798   9.940  0.00  0.00    +0.000 NA
ATOM     11  H   UNL     1      44.133   4.544   9.516  0.00  0.00    +0.000 HD
BRANCH  10  12
ATOM     12  C   UNL     1      44.309   2.535   9.802  0.00  0.00    +0.000 C 
BRANCH  12  13
ATOM     13  C   UNL     1      45.382   2.616   8.752  0.00  0.00    +0.000 A 
ATOM     14  C   UNL     1      45.663   3.793   8.087  0.00  0.00    +0.000 A 
ATOM     15  N   UNL     1      46.591   3.886   7.112  0.00  0.00    +0.000 NA
ATOM     16  C   UNL     1      47.229   2.736   6.847  0.00  0.00    +0.000 A 
ATOM     17  N   UNL     1      47.019   1.559   7.472  0.00  0.00    +0.000 NA
ATOM     18  N   UNL     1      46.073   1.497   8.445  0.00  0.00    +0.000 NA
ENDBRANCH  12  13
ENDBRANCH  10  12
ENDBRANCH   9  10
ENDBRANCH   7   9
ENDBRANCH   1   3
BRANCH   1  19
ATOM     19  C   UNL     1      47.648   3.990  15.644  0.00  0.00    +0.000 C 
BRANCH  19  21
ATOM     20  C   UNL     1      47.007   2.761  17.794  0.00  0.00    +0.000 C 
ATOM     21  C   UNL     1      48.021   2.872  16.644  0.00  0.00    +0.000 C 
BRANCH  21  22
ATOM     22  C   UNL     1      49.451   2.993  17.151  0.00  0.00    +0.000 A 
ATOM     23  C   UNL     1      50.427   2.017  17.013  0.00  0.00    +0.000 A 
ATOM     24  S   UNL     1      51.928   2.459  17.698  0.00  0.00    +0.000 S 
ATOM     25  C   UNL     1      51.323   3.968  18.195  0.00  0.00    +0.000 A 
ATOM     26  N   UNL     1      52.114   4.862  18.850  0.00  0.00    +0.000 NA
ATOM     27  C   UNL     1      51.521   5.966  19.153  0.00  0.00    +0.000 A 
ATOM     28  N   UNL     1      50.206   6.263  18.864  0.00  0.00    +0.000 N 
ATOM     29  C   UNL     1      49.363   5.392  18.220  0.00  0.00    +0.000 A 
ATOM     30  O   UNL     1      48.195   5.680  17.987  0.00  0.00    +0.000 OA
ATOM     31  C   UNL     1      49.994   4.136  17.848  0.00  0.00    +0.000 A 
ATOM     32  H   UNL     1      49.811   7.152  19.133  0.00  0.00    +0.000 HD
ENDBRANCH  21  22
ENDBRANCH  19  21
ENDBRANCH   1  19
TORSDOF 8
ENDMDL
MODEL 5
REMARK VINA RESULT:    -7.075      2.271      2.953
REMARK INTER + INTRA:         -11.238
REMARK INTER:                 -10.406
REMARK INTRA:                  -0.833
REMARK UNBOUND:                -0.855
REMARK  Name = 
REMARK  9 active torsions:
REMARK  status: ('A' for Active; 'I' for Inactive)
REMARK    1  A    between atoms: C_1  and  C_2
REMARK    2  A    between atoms: C_2  and  C_3
REMARK    3  A    between atoms: C_2  and  C_20
REMARK    4  A    between atoms: C_3  and  N_4
REMARK    5  A    between atoms: N_4  and  C_5
REMARK    6  A    between atoms: C_9  and  C_10
REMARK    7  A    between atoms: C_10  and  N_11
REMARK    8  A    between atoms: N_11  and  C_12
REMARK    9  A    between atoms: C_12  and  C_13
REMARK                            x       y       z     vdW  Elec       q    Type
REMARK                         _______ _______ _______ _____ _____    ______ ____
ROOT
ATOM      1  N   UNL     1      47.850   5.862  15.147  0.00  0.00    +0.000 N 
ATOM      2  H   UNL     1      47.600   4.924  14.844  0.00  0.00    +0.000 HD
ENDROOT
BRANCH   1   3
ATOM      3  C   UNL     1      47.978   6.694  14.033  0.00  0.00    +0.000 A 
ATOM      4  C   UNL     1      49.189   6.999  13.408  0.00  0.00    +0.000 A 
ATOM      5  C   UNL     1      49.228   7.863  12.310  0.00  0.00    +0.000 A 
ATOM      6  C   UNL     1      48.054   8.442  11.829  0.00  0.00    +0.000 A 
ATOM      7  C   UNL     1      46.827   8.160  12.442  0.00  0.00    +0.000 A 
ATOM      8  C   UNL     1      46.815   7.318  13.561  0.00  0.00    +0.000 A 
BRANCH   7   9
ATOM      9  C   UNL     1      45.527   8.707  11.907  0.00  0.00    +0.000 C 
BRANCH   9  10
ATOM     10  N   UNL     1      44.473   7.696  11.988  0.00  0.00    +0.000 NA
ATOM     11  H   UNL     1      43.574   8.163  11.857  0.00  0.00    +0.000 HD
BRANCH  10  12
ATOM     12  C   UNL     1      44.633   6.685  10.939  0.00  0.00    +0.000 C 
BRANCH  12  13
ATOM     13  C   UNL     1      44.187   5.323  11.394  0.00  0.00    +0.000 A 
ATOM     14  C   UNL     1      44.134   4.984  12.731  0.00  0.00    +0.000 A 
ATOM     15  N   UNL     1      43.778   3.758  13.168  0.00  0.00    +0.000 NA
ATOM     16  C   UNL     1      43.467   2.894  12.190  0.00  0.00    +0.000 A 
ATOM     17  N   UNL     1      43.477   3.165  10.869  0.00  0.00    +0.000 NA
ATOM     18  N   UNL     1      43.847   4.408  10.461  0.00  0.00    +0.000 NA
ENDBRANCH  12  13
ENDBRANCH  10  12
ENDBRANCH   9  10
ENDBRANCH   7   9
ENDBRANCH   1   3
BRANCH   1  19
ATOM     19  C   UNL     1      48.858   5.888  16.207  0.00  0.00    +0.000 C 
BRANCH  19  21
ATOM     20  C   UNL     1      47.649   4.614  18.066  0.00  0.00    +0.000 C 
ATOM     21  C   UNL     1      48.823   4.610  17.073  0.00  0.00    +0.000 C 
BRANCH  21  22
ATOM     22  C   UNL     1      50.153   4.331  17.760  0.00  0.00    +0.000 A 
ATOM     23  C   UNL     1      50.834   5.230  18.567  0.00  0.00    +0.000 A 
ATOM     24  S   UNL     1      52.302   4.611  19.182  0.00  0.00    +0.000 S 
ATOM     25  C   UNL     1      52.072   3.123  18.392  0.00  0.00    +0.000 A 
ATOM     26  N   UNL     1      52.983   2.117  18.511  0.00  0.00    +0.000 NA
ATOM     27  C   UNL     1      52.668   1.046  17.866  0.00  0.00    +0.000 A 
ATOM     28  N   UNL     1      51.527   0.882  17.110  0.00  0.00    +0.000 N 
ATOM     29  C   UNL     1      50.586   1.869  16.947  0.00  0.00    +0.000 A 
ATOM     30  O   UNL     1      49.586   1.700  16.260  0.00  0.00    +0.000 OA
ATOM     31  C   UNL     1      50.895   3.095  17.667  0.00  0.00    +0.000 A 
ATOM     32  H   UNL     1      51.348   0.011  16.634  0.00  0.00    +0.000 HD
ENDBRANCH  21  22
ENDBRANCH  19  21
ENDBRANCH   1  19
TORSDOF 8
ENDMDL
MODEL 6
REMARK VINA RESULT:    -6.965      3.675      8.603
REMARK INTER + INTRA:         -11.078
REMARK INTER:                  -9.894
REMARK INTRA:                  -1.184
REMARK UNBOUND:                -0.855
REMARK  Name = 
REMARK  9 active torsions:
REMARK  status: ('A' for Active; 'I' for Inactive)
REMARK    1  A    between atoms: C_1  and  C_2
REMARK    2  A    between atoms: C_2  and  C_3
REMARK    3  A    between atoms: C_2  and  C_20
REMARK    4  A    between atoms: C_3  and  N_4
REMARK    5  A    between atoms: N_4  and  C_5
REMARK    6  A    between atoms: C_9  and  C_10
REMARK    7  A    between atoms: C_10  and  N_11
REMARK    8  A    between atoms: N_11  and  C_12
REMARK    9  A    between atoms: C_12  and  C_13
REMARK                            x       y       z     vdW  Elec       q    Type
REMARK                         _______ _______ _______ _____ _____    ______ ____
ROOT
ATOM      1  N   UNL     1      48.133   8.007  11.857  0.00  0.00    +0.000 N 
ATOM      2  H   UNL     1      48.544   8.261  10.961  0.00  0.00    +0.000 HD
ENDROOT
BRANCH   1   3
ATOM      3  C   UNL     1      49.044   8.277  12.880  0.00  0.00    +0.000 A 
ATOM      4  C   UNL     1      50.411   8.484  12.688  0.00  0.00    +0.000 A 
ATOM      5  C   UNL     1      51.256   8.724  13.775  0.00  0.00    +0.000 A 
ATOM      6  C   UNL     1      50.745   8.749  15.072  0.00  0.00    +0.000 A 
ATOM      7  C   UNL     1      49.379   8.536  15.294  0.00  0.00    +0.000 A 
ATOM      8  C   UNL     1      48.555   8.264  14.193  0.00  0.00    +0.000 A 
BRANCH   7   9
ATOM      9  C   UNL     1      48.774   8.627  16.673  0.00  0.00    +0.000 C 
BRANCH   9  10
ATOM     10  N   UNL     1      48.161   7.353  17.048  0.00  0.00    +0.000 NA
ATOM     11  H   UNL     1      47.706   6.963  16.220  0.00  0.00    +0.000 HD
BRANCH  10  12
ATOM     12  C   UNL     1      49.171   6.401  17.518  0.00  0.00    +0.000 C 
BRANCH  12  13
ATOM     13  C   UNL     1      48.833   4.986  17.139  0.00  0.00    +0.000 A 
ATOM     14  C   UNL     1      47.528   4.573  16.957  0.00  0.00    +0.000 A 
ATOM     15  N   UNL     1      47.192   3.301  16.657  0.00  0.00    +0.000 NA
ATOM     16  C   UNL     1      48.237   2.468  16.540  0.00  0.00    +0.000 A 
ATOM     17  N   UNL     1      49.534   2.809  16.684  0.00  0.00    +0.000 NA
ATOM     18  N   UNL     1      49.839   4.097  16.992  0.00  0.00    +0.000 NA
ENDBRANCH  12  13
ENDBRANCH  10  12
ENDBRANCH   9  10
ENDBRANCH   7   9
ENDBRANCH   1   3
BRANCH   1  19
ATOM     19  C   UNL     1      47.405   6.739  11.831  0.00  0.00    +0.000 C 
BRANCH  19  21
ATOM     20  C   UNL     1      45.268   8.068  12.285  0.00  0.00    +0.000 C 
ATOM     21  C   UNL     1      45.914   6.931  11.477  0.00  0.00    +0.000 C 
BRANCH  21  22
ATOM     22  C   UNL     1      45.118   5.637  11.572  0.00  0.00    +0.000 A 
ATOM     23  C   UNL     1      44.404   5.224  12.686  0.00  0.00    +0.000 A 
ATOM     24  S   UNL     1      43.624   3.720  12.471  0.00  0.00    +0.000 S 
ATOM     25  C   UNL     1      44.214   3.575  10.883  0.00  0.00    +0.000 A 
ATOM     26  N   UNL     1      43.905   2.494  10.115  0.00  0.00    +0.000 NA
ATOM     27  C   UNL     1      44.414   2.530   8.930  0.00  0.00    +0.000 A 
ATOM     28  N   UNL     1      45.206   3.545   8.438  0.00  0.00    +0.000 N 
ATOM     29  C   UNL     1      45.558   4.648   9.177  0.00  0.00    +0.000 A 
ATOM     30  O   UNL     1      46.274   5.529   8.717  0.00  0.00    +0.000 OA
ATOM     31  C   UNL     1      44.997   4.656  10.518  0.00  0.00    +0.000 A 
ATOM     32  H   UNL     1      45.568   3.502   7.497  0.00  0.00    +0.000 HD
ENDBRANCH  21  22
ENDBRANCH  19  21
ENDBRANCH   1  19
TORSDOF 8
ENDMDL
MODEL 7
REMARK VINA RESULT:    -6.827      3.704      8.355
REMARK INTER + INTRA:         -10.875
REMARK INTER:                  -9.358
REMARK INTRA:                  -1.517
REMARK UNBOUND:                -0.855
REMARK  Name = 
REMARK  9 active torsions:
REMARK  status: ('A' for Active; 'I' for Inactive)
REMARK    1  A    between atoms: C_1  and  C_2
REMARK    2  A    between atoms: C_2  and  C_3
REMARK    3  A    between atoms: C_2  and  C_20
REMARK    4  A    between atoms: C_3  and  N_4
REMARK    5  A    between atoms: N_4  and  C_5
REMARK    6  A    between atoms: C_9  and  C_10
REMARK    7  A    between atoms: C_10  and  N_11
REMARK    8  A    between atoms: N_11  and  C_12
REMARK    9  A    between atoms: C_12  and  C_13
REMARK                            x       y       z     vdW  Elec       q    Type
REMARK                         _______ _______ _______ _____ _____    ______ ____
ROOT
ATOM      1  N   UNL     1      48.396   9.108  12.976  0.00  0.00    +0.000 N 
ATOM      2  H   UNL     1      48.687  10.008  12.602  0.00  0.00    +0.000 HD
ENDROOT
BRANCH   1   3
ATOM      3  C   UNL     1      49.273   8.720  13.991  0.00  0.00    +0.000 A 
ATOM      4  C   UNL     1      50.598   8.330  13.787  0.00  0.00    +0.000 A 
ATOM      5  C   UNL     1      51.399   7.932  14.861  0.00  0.00    +0.000 A 
ATOM      6  C   UNL     1      50.881   7.911  16.155  0.00  0.00    +0.000 A 
ATOM      7  C   UNL     1      49.553   8.289  16.388  0.00  0.00    +0.000 A 
ATOM      8  C   UNL     1      48.757   8.652  15.293  0.00  0.00    +0.000 A 
BRANCH   7   9
ATOM      9  C   UNL     1      48.976   8.350  17.781  0.00  0.00    +0.000 C 
BRANCH   9  10
ATOM     10  N   UNL     1      47.734   7.580  17.854  0.00  0.00    +0.000 NA
ATOM     11  H   UNL     1      47.546   7.193  16.927  0.00  0.00    +0.000 HD
BRANCH  10  12
ATOM     12  C   UNL     1      47.857   6.474  18.807  0.00  0.00    +0.000 C 
BRANCH  12  13
ATOM     13  C   UNL     1      47.923   5.139  18.117  0.00  0.00    +0.000 A 
ATOM     14  C   UNL     1      49.116   4.616  17.656  0.00  0.00    +0.000 A 
ATOM     15  N   UNL     1      49.201   3.442  16.997  0.00  0.00    +0.000 NA
ATOM     16  C   UNL     1      48.026   2.815  16.835  0.00  0.00    +0.000 A 
ATOM     17  N   UNL     1      46.831   3.258  17.278  0.00  0.00    +0.000 NA
ATOM     18  N   UNL     1      46.778   4.448  17.932  0.00  0.00    +0.000 NA
ENDBRANCH  12  13
ENDBRANCH  10  12
ENDBRANCH   9  10
ENDBRANCH   7   9
ENDBRANCH   1   3
BRANCH   1  19
ATOM     19  C   UNL     1      47.985   8.150  11.951  0.00  0.00    +0.000 C 
BRANCH  19  21
ATOM     20  C   UNL     1      45.721   8.697  13.007  0.00  0.00    +0.000 C 
ATOM     21  C   UNL     1      46.507   7.730  12.106  0.00  0.00    +0.000 C 
BRANCH  21  22
ATOM     22  C   UNL     1      46.352   6.282  12.549  0.00  0.00    +0.000 A 
ATOM     23  C   UNL     1      47.302   5.562  13.257  0.00  0.00    +0.000 A 
ATOM     24  S   UNL     1      46.824   3.957  13.594  0.00  0.00    +0.000 S 
ATOM     25  C   UNL     1      45.333   4.175  12.807  0.00  0.00    +0.000 A 
ATOM     26  N   UNL     1      44.422   3.166  12.737  0.00  0.00    +0.000 NA
ATOM     27  C   UNL     1      43.334   3.482  12.121  0.00  0.00    +0.000 A 
ATOM     28  N   UNL     1      43.069   4.715  11.565  0.00  0.00    +0.000 N 
ATOM     29  C   UNL     1      43.959   5.761  11.595  0.00  0.00    +0.000 A 
ATOM     30  O   UNL     1      43.700   6.842  11.082  0.00  0.00    +0.000 OA
ATOM     31  C   UNL     1      45.198   5.452  12.292  0.00  0.00    +0.000 A 
ATOM     32  H   UNL     1      42.191   4.888  11.098  0.00  0.00    +0.000 HD
ENDBRANCH  21  22
ENDBRANCH  19  21
ENDBRANCH   1  19
TORSDOF 8
ENDMDL
MODEL 8
REMARK VINA RESULT:    -6.826      2.970      4.026
REMARK INTER + INTRA:         -10.873
REMARK INTER:                  -9.593
REMARK INTRA:                  -1.280
REMARK UNBOUND:                -0.855
REMARK  Name = 
REMARK  9 active torsions:
REMARK  status: ('A' for Active; 'I' for Inactive)
REMARK    1  A    between atoms: C_1  and  C_2
REMARK    2  A    between atoms: C_2  and  C_3
REMARK    3  A    between atoms: C_2  and  C_20
REMARK    4  A    between atoms: C_3  and  N_4
REMARK    5  A    between atoms: N_4  and  C_5
REMARK    6  A    between atoms: C_9  and  C_10
REMARK    7  A    between atoms: C_10  and  N_11
REMARK    8  A    between atoms: N_11  and  C_12
REMARK    9  A    between atoms: C_12  and  C_13
REMARK                            x       y       z     vdW  Elec       q    Type
REMARK                         _______ _______ _______ _____ _____    ______ ____
ROOT
ATOM      1  N   UNL     1      48.097   7.591  13.984  0.00  0.00    +0.000 N 
ATOM      2  H   UNL     1      47.803   7.961  14.885  0.00  0.00    +0.000 HD
ENDROOT
BRANCH   1   3
ATOM      3  C   UNL     1      47.331   6.467  13.670  0.00  0.00    +0.000 A 
ATOM      4  C   UNL     1      47.434   5.232  14.314  0.00  0.00    +0.000 A 
ATOM      5  C   UNL     1      46.644   4.151  13.917  0.00  0.00    +0.000 A 
ATOM      6  C   UNL     1      45.744   4.287  12.861  0.00  0.00    +0.000 A 
ATOM      7  C   UNL     1      45.626   5.511  12.191  0.00  0.00    +0.000 A 
ATOM      8  C   UNL     1      46.452   6.573  12.583  0.00  0.00    +0.000 A 
BRANCH   7   9
ATOM      9  C   UNL     1      44.614   5.721  11.092  0.00  0.00    +0.000 C 
BRANCH   9  10
ATOM     10  N   UNL     1      45.197   5.398   9.790  0.00  0.00    +0.000 NA
ATOM     11  H   UNL     1      46.175   5.140   9.936  0.00  0.00    +0.000 HD
BRANCH  10  12
ATOM     12  C   UNL     1      44.503   4.266   9.170  0.00  0.00    +0.000 C 
BRANCH  12  13
ATOM     13  C   UNL     1      45.452   3.349   8.447  0.00  0.00    +0.000 A 
ATOM     14  C   UNL     1      45.507   1.997   8.721  0.00  0.00    +0.000 A 
ATOM     15  N   UNL     1      46.376   1.157   8.119  0.00  0.00    +0.000 NA
ATOM     16  C   UNL     1      47.178   1.747   7.220  0.00  0.00    +0.000 A 
ATOM     17  N   UNL     1      47.162   3.055   6.891  0.00  0.00    +0.000 NA
ATOM     18  N   UNL     1      46.280   3.875   7.520  0.00  0.00    +0.000 NA
ENDBRANCH  12  13
ENDBRANCH  10  12
ENDBRANCH   9  10
ENDBRANCH   7   9
ENDBRANCH   1   3
BRANCH   1  19
ATOM     19  C   UNL     1      49.548   7.569  13.803  0.00  0.00    +0.000 C 
BRANCH  19  21
ATOM     20  C   UNL     1      51.783   8.372  14.751  0.00  0.00    +0.000 C 
ATOM     21  C   UNL     1      50.297   8.107  15.042  0.00  0.00    +0.000 C 
BRANCH  21  22
ATOM     22  C   UNL     1      50.101   7.231  16.271  0.00  0.00    +0.000 A 
ATOM     23  C   UNL     1      50.850   6.104  16.571  0.00  0.00    +0.000 A 
ATOM     24  S   UNL     1      50.374   5.340  18.022  0.00  0.00    +0.000 S 
ATOM     25  C   UNL     1      49.155   6.492  18.297  0.00  0.00    +0.000 A 
ATOM     26  N   UNL     1      48.359   6.424  19.399  0.00  0.00    +0.000 NA
ATOM     27  C   UNL     1      47.488   7.372  19.478  0.00  0.00    +0.000 A 
ATOM     28  N   UNL     1      47.335   8.385  18.557  0.00  0.00    +0.000 N 
ATOM     29  C   UNL     1      48.102   8.491  17.422  0.00  0.00    +0.000 A 
ATOM     30  O   UNL     1      47.935   9.397  16.614  0.00  0.00    +0.000 OA
ATOM     31  C   UNL     1      49.106   7.447  17.297  0.00  0.00    +0.000 A 
ATOM     32  H   UNL     1      46.630   9.095  18.688  0.00  0.00    +0.000 HD
ENDBRANCH  21  22
ENDBRANCH  19  21
ENDBRANCH   1  19
TORSDOF 8
ENDMDL
MODEL 9
REMARK VINA RESULT:    -6.737      2.860      4.514
REMARK INTER + INTRA:         -10.743
REMARK INTER:                  -9.236
REMARK INTRA:                  -1.507
REMARK UNBOUND:                -0.855
REMARK  Name = 
REMARK  9 active torsions:
REMARK  status: ('A' for Active; 'I' for Inactive)
REMARK    1  A    between atoms: C_1  and  C_2
REMARK    2  A    between atoms: C_2  and  C_3
REMARK    3  A    between atoms: C_2  and  C_20
REMARK    4  A    between atoms: C_3  and  N_4
REMARK    5  A    between atoms: N_4  and  C_5
REMARK    6  A    between atoms: C_9  and  C_10
REMARK    7  A    between atoms: C_10  and  N_11
REMARK    8  A    between atoms: N_11  and  C_12
REMARK    9  A    between atoms: C_12  and  C_13
REMARK                            x       y       z     vdW  Elec       q    Type
REMARK                         _______ _______ _______ _____ _____    ______ ____
ROOT
ATOM      1  N   UNL     1      50.448   7.773  15.870  0.00  0.00    +0.000 N 
ATOM      2  H   UNL     1      49.627   7.609  16.448  0.00  0.00    +0.000 HD
ENDROOT
BRANCH   1   3
ATOM      3  C   UNL     1      50.088   7.714  14.523  0.00  0.00    +0.000 A 
ATOM      4  C   UNL     1      50.783   8.345  13.488  0.00  0.00    +0.000 A 
ATOM      5  C   UNL     1      50.336   8.253  12.168  0.00  0.00    +0.000 A 
ATOM      6  C   UNL     1      49.179   7.535  11.865  0.00  0.00    +0.000 A 
ATOM      7  C   UNL     1      48.458   6.900  12.883  0.00  0.00    +0.000 A 
ATOM      8  C   UNL     1      48.905   7.033  14.204  0.00  0.00    +0.000 A 
BRANCH   7   9
ATOM      9  C   UNL     1      47.244   6.054  12.588  0.00  0.00    +0.000 C 
BRANCH   9  10
ATOM     10  N   UNL     1      46.078   6.562  13.311  0.00  0.00    +0.000 NA
ATOM     11  H   UNL     1      46.301   7.499  13.653  0.00  0.00    +0.000 HD
BRANCH  10  12
ATOM     12  C   UNL     1      44.911   6.650  12.430  0.00  0.00    +0.000 C 
BRANCH  12  13
ATOM     13  C   UNL     1      44.321   5.297  12.138  0.00  0.00    +0.000 A 
ATOM     14  C   UNL     1      44.073   4.380  13.140  0.00  0.00    +0.000 A 
ATOM     15  N   UNL     1      43.584   3.144  12.905  0.00  0.00    +0.000 NA
ATOM     16  C   UNL     1      43.347   2.883  11.610  0.00  0.00    +0.000 A 
ATOM     17  N   UNL     1      43.547   3.739  10.587  0.00  0.00    +0.000 NA
ATOM     18  N   UNL     1      44.046   4.973  10.856  0.00  0.00    +0.000 NA
ENDBRANCH  12  13
ENDBRANCH  10  12
ENDBRANCH   9  10
ENDBRANCH   7   9
ENDBRANCH   1   3
BRANCH   1  19
ATOM     19  C   UNL     1      51.647   7.085  16.344  0.00  0.00    +0.000 C 
BRANCH  19  21
ATOM     20  C   UNL     1      52.686   6.442  18.591  0.00  0.00    +0.000 C 
ATOM     21  C   UNL     1      51.425   6.404  17.712  0.00  0.00    +0.000 C 
BRANCH  21  22
ATOM     22  C   UNL     1      50.860   4.997  17.582  0.00  0.00    +0.000 A 
ATOM     23  C   UNL     1      51.620   3.840  17.508  0.00  0.00    +0.000 A 
ATOM     24  S   UNL     1      50.681   2.421  17.360  0.00  0.00    +0.000 S 
ATOM     25  C   UNL     1      49.231   3.307  17.393  0.00  0.00    +0.000 A 
ATOM     26  N   UNL     1      48.024   2.683  17.313  0.00  0.00    +0.000 NA
ATOM     27  C   UNL     1      47.014   3.483  17.363  0.00  0.00    +0.000 A 
ATOM     28  N   UNL     1      47.095   4.854  17.485  0.00  0.00    +0.000 N 
ATOM     29  C   UNL     1      48.287   5.533  17.555  0.00  0.00    +0.000 A 
ATOM     30  O   UNL     1      48.328   6.753  17.652  0.00  0.00    +0.000 OA
ATOM     31  C   UNL     1      49.455   4.667  17.513  0.00  0.00    +0.000 A 
ATOM     32  H   UNL     1      46.258   5.415  17.518  0.00  0.00    +0.000 HD
ENDBRANCH  21  22
ENDBRANCH  19  21
ENDBRANCH   1  19
TORSDOF 8
ENDMDL
