MODEL 1
REMARK VINA RESULT:    -8.784      0.000      0.000
REMARK INTER + INTRA:         -13.106
REMARK INTER:                 -12.122
REMARK INTRA:                  -0.984
REMARK UNBOUND:                -0.984
REMARK  Name = 
REMARK  7 active torsions:
REMARK  status: ('A' for Active; 'I' for Inactive)
REMARK    1  A    between atoms: N_1  and  C_2
REMARK    2  A    between atoms: C_2  and  C_3
REMARK    3  A    between atoms: C_2  and  C_10
REMARK    4  A    between atoms: C_3  and  C_4
REMARK    5  A    between atoms: C_13  and  C_14
REMARK    6  A    between atoms: C_14  and  N_15
REMARK    7  A    between atoms: C_16  and  C_18
REMARK                            x       y       z     vdW  Elec       q    Type
REMARK                         _______ _______ _______ _____ _____    ______ ____
ROOT
ATOM      1  C   UNL     1      45.143   4.346  11.238  0.00  0.00    +0.000 A 
ATOM      2  C   UNL     1      45.554   5.416  10.441  0.00  0.00    +0.000 A 
ATOM      3  C   UNL     1      46.187   6.512  11.031  0.00  0.00    +0.000 A 
ATOM      4  C   UNL     1      46.394   6.532  12.410  0.00  0.00    +0.000 A 
ATOM      5  C   UNL     1      45.919   5.447  13.134  0.00  0.00    +0.000 A 
ATOM      6  N   UNL     1      45.309   4.368  12.585  0.00  0.00    +0.000 NA
ENDROOT
BRANCH   1   7
ATOM      7  C   UNL     1      44.408   3.146  10.620  0.00  0.00    +0.000 C 
BRANCH   7   8
ATOM      8  N   UNL     1      43.068   2.937  11.219  0.00  0.00    +0.000 NA
ATOM      9  H   UNL     1      42.393   3.483  10.682  0.00  0.00    +0.000 HD
ATOM     10  H   UNL     1      43.069   3.356  12.150  0.00  0.00    +0.000 HD
ENDBRANCH   7   8
BRANCH   7  11
ATOM     11  C   UNL     1      44.302   3.288   9.078  0.00  0.00    +0.000 C 
BRANCH  11  12
ATOM     12  C   UNL     1      45.464   2.739   8.275  0.00  0.00    +0.000 A 
ATOM     13  C   UNL     1      45.875   1.408   8.444  0.00  0.00    +0.000 A 
ATOM     14  C   UNL     1      46.859   0.859   7.620  0.00  0.00    +0.000 A 
ATOM     15  C   UNL     1      47.440   1.632   6.618  0.00  0.00    +0.000 A 
ATOM     16  C   UNL     1      47.060   2.964   6.459  0.00  0.00    +0.000 A 
ATOM     17  C   UNL     1      46.082   3.517   7.288  0.00  0.00    +0.000 A 
ENDBRANCH  11  12
ENDBRANCH   7  11
ENDBRANCH   1   7
BRANCH   4  18
ATOM     18  C   UNL     1      47.045   7.695  13.098  0.00  0.00    +0.000 C 
BRANCH  18  19
ATOM     19  N   UNL     1      47.426   7.351  14.445  0.00  0.00    +0.000 N 
ATOM     20  C   UNL     1      48.696   6.930  14.749  0.00  0.00    +0.000 C 
ATOM     21  O   UNL     1      49.575   6.846  13.898  0.00  0.00    +0.000 OA
ATOM     22  H   UNL     1      46.679   7.193  15.113  0.00  0.00    +0.000 HD
BRANCH  20  23
ATOM     23  C   UNL     1      48.967   6.648  16.166  0.00  0.00    +0.000 A 
ATOM     24  C   UNL     1      49.539   7.626  16.968  0.00  0.00    +0.000 A 
ATOM     25  S   UNL     1      49.740   7.147  18.593  0.00  0.00    +0.000 S 
ATOM     26  C   UNL     1      49.117   5.597  18.272  0.00  0.00    +0.000 A 
ATOM     27  N   UNL     1      49.038   4.656  19.253  0.00  0.00    +0.000 NA
ATOM     28  C   UNL     1      48.574   3.514  18.860  0.00  0.00    +0.000 A 
ATOM     29  N   UNL     1      48.175   3.235  17.578  0.00  0.00    +0.000 N 
ATOM     30  C   UNL     1      48.201   4.163  16.570  0.00  0.00    +0.000 A 
ATOM     31  O   UNL     1      47.778   3.899  15.447  0.00  0.00    +0.000 OA
ATOM     32  C   UNL     1      48.737   5.456  16.949  0.00  0.00    +0.000 A 
ATOM     33  H   UNL     1      47.803   2.327  17.341  0.00  0.00    +0.000 HD
ENDBRANCH  20  23
ENDBRANCH  18  19
ENDBRANCH   4  18
TORSDOF 7
ENDMDL
MODEL 2
REMARK VINA RESULT:    -8.513      1.826      2.364
REMARK INTER + INTRA:         -12.732
REMARK INTER:                 -11.632
REMARK INTRA:                  -1.100
REMARK UNBOUND:                -0.984
REMARK  Name = 
REMARK  7 active torsions:
REMARK  status: ('A' for Active; 'I' for Inactive)
REMARK    1  A    between atoms: N_1  and  C_2
REMARK    2  A    between atoms: C_2  and  C_3
REMARK    3  A    between atoms: C_2  and  C_10
REMARK    4  A    between atoms: C_3  and  C_4
REMARK    5  A    between atoms: C_13  and  C_14
REMARK    6  A    between atoms: C_14  and  N_15
REMARK    7  A    between atoms: C_16  and  C_18
REMARK                            x       y       z     vdW  Elec       q    Type
REMARK                         _______ _______ _______ _____ _____    ______ ____
ROOT
ATOM      1  C   UNL     1      45.246   4.575  11.621  0.00  0.00    +0.000 A 
ATOM      2  C   UNL     1      45.705   5.768  11.061  0.00  0.00    +0.000 A 
ATOM      3  C   UNL     1      46.602   6.564  11.775  0.00  0.00    +0.000 A 
ATOM      4  C   UNL     1      47.024   6.166  13.043  0.00  0.00    +0.000 A 
ATOM      5  C   UNL     1      46.488   4.987  13.543  0.00  0.00    +0.000 A 
ATOM      6  N   UNL     1      45.622   4.192  12.868  0.00  0.00    +0.000 NA
ENDROOT
BRANCH   1   7
ATOM      7  C   UNL     1      44.226   3.700  10.874  0.00  0.00    +0.000 C 
BRANCH   7   8
ATOM      8  N   UNL     1      42.846   3.884  11.383  0.00  0.00    +0.000 NA
ATOM      9  H   UNL     1      42.732   3.293  12.208  0.00  0.00    +0.000 HD
ATOM     10  H   UNL     1      42.200   3.501  10.691  0.00  0.00    +0.000 HD
ENDBRANCH   7   8
BRANCH   7  11
ATOM     11  C   UNL     1      44.284   3.955   9.344  0.00  0.00    +0.000 C 
BRANCH  11  12
ATOM     12  C   UNL     1      45.351   3.196   8.581  0.00  0.00    +0.000 A 
ATOM     13  C   UNL     1      45.497   1.812   8.756  0.00  0.00    +0.000 A 
ATOM     14  C   UNL     1      46.390   1.087   7.964  0.00  0.00    +0.000 A 
ATOM     15  C   UNL     1      47.143   1.736   6.989  0.00  0.00    +0.000 A 
ATOM     16  C   UNL     1      47.027   3.115   6.825  0.00  0.00    +0.000 A 
ATOM     17  C   UNL     1      46.141   3.843   7.622  0.00  0.00    +0.000 A 
ENDBRANCH  11  12
ENDBRANCH   7  11
ENDBRANCH   1   7
BRANCH   4  18
ATOM     18  C   UNL     1      47.966   6.996  13.864  0.00  0.00    +0.000 C 
BRANCH  18  19
ATOM     19  N   UNL     1      47.892   6.637  15.258  0.00  0.00    +0.000 N 
ATOM     20  C   UNL     1      49.019   6.395  16.000  0.00  0.00    +0.000 C 
ATOM     21  O   UNL     1      50.146   6.494  15.524  0.00  0.00    +0.000 OA
ATOM     22  H   UNL     1      46.991   6.329  15.610  0.00  0.00    +0.000 HD
BRANCH  20  23
ATOM     23  C   UNL     1      48.809   6.076  17.419  0.00  0.00    +0.000 A 
ATOM     24  C   UNL     1      49.089   4.799  17.888  0.00  0.00    +0.000 A 
ATOM     25  S   UNL     1      48.835   4.615  19.565  0.00  0.00    +0.000 S 
ATOM     26  C   UNL     1      48.292   6.220  19.716  0.00  0.00    +0.000 A 
ATOM     27  N   UNL     1      47.879   6.711  20.916  0.00  0.00    +0.000 NA
ATOM     28  C   UNL     1      47.463   7.935  20.878  0.00  0.00    +0.000 A 
ATOM     29  N   UNL     1      47.432   8.712  19.748  0.00  0.00    +0.000 N 
ATOM     30  C   UNL     1      47.874   8.271  18.527  0.00  0.00    +0.000 A 
ATOM     31  O   UNL     1      47.891   9.013  17.548  0.00  0.00    +0.000 OA
ATOM     32  C   UNL     1      48.328   6.895  18.508  0.00  0.00    +0.000 A 
ATOM     33  H   UNL     1      47.113   9.669  19.790  0.00  0.00    +0.000 HD
ENDBRANCH  20  23
ENDBRANCH  18  19
ENDBRANCH   4  18
TORSDOF 7
ENDMDL
MODEL 3
REMARK VINA RESULT:    -8.415      1.218      1.613
REMARK INTER + INTRA:         -12.597
REMARK INTER:                 -11.461
REMARK INTRA:                  -1.136
REMARK UNBOUND:                -0.984
REMARK  Name = 
REMARK  7 active torsions:
REMARK  status: ('A' for Active; 'I' for Inactive)
REMARK    1  A    between atoms: N_1  and  C_2
REMARK    2  A    between atoms: C_2  and  C_3
REMARK    3  A    between atoms: C_2  and  C_10
REMARK    4  A    between atoms: C_3  and  C_4
REMARK    5  A    between atoms: C_13  and  C_14
REMARK    6  A    between atoms: C_14  and  N_15
REMARK    7  A    between atoms: C_16  and  C_18
REMARK                            x       y       z     vdW  Elec       q    Type
REMARK                         _______ _______ _______ _____ _____    ______ ____
ROOT
ATOM      1  C   UNL     1      45.310   4.591  11.635  0.00  0.00    +0.000 A 
ATOM      2  C   UNL     1      45.771   5.774  11.055  0.00  0.00    +0.000 A 
ATOM      3  C   UNL     1      46.756   6.521  11.704  0.00  0.00    +0.000 A 
ATOM      4  C   UNL     1      47.264   6.085  12.927  0.00  0.00    +0.000 A 
ATOM      5  C   UNL     1      46.722   4.920  13.453  0.00  0.00    +0.000 A 
ATOM      6  N   UNL     1      45.771   4.173  12.842  0.00  0.00    +0.000 NA
ENDROOT
BRANCH   1   7
ATOM      7  C   UNL     1      44.198   3.770  10.963  0.00  0.00    +0.000 C 
BRANCH   7   8
ATOM      8  N   UNL     1      42.869   4.014  11.576  0.00  0.00    +0.000 NA
ATOM      9  H   UNL     1      42.748   5.023  11.677  0.00  0.00    +0.000 HD
ATOM     10  H   UNL     1      42.890   3.651  12.530  0.00  0.00    +0.000 HD
ENDBRANCH   7   8
BRANCH   7  11
ATOM     11  C   UNL     1      44.152   4.036   9.435  0.00  0.00    +0.000 C 
BRANCH  11  12
ATOM     12  C   UNL     1      45.137   3.251   8.591  0.00  0.00    +0.000 A 
ATOM     13  C   UNL     1      45.956   3.909   7.663  0.00  0.00    +0.000 A 
ATOM     14  C   UNL     1      46.952   3.212   6.975  0.00  0.00    +0.000 A 
ATOM     15  C   UNL     1      47.140   1.852   7.210  0.00  0.00    +0.000 A 
ATOM     16  C   UNL     1      46.313   1.182   8.109  0.00  0.00    +0.000 A 
ATOM     17  C   UNL     1      45.311   1.875   8.791  0.00  0.00    +0.000 A 
ENDBRANCH  11  12
ENDBRANCH   7  11
ENDBRANCH   1   7
BRANCH   4  18
ATOM     18  C   UNL     1      48.304   6.862  13.678  0.00  0.00    +0.000 C 
BRANCH  18  19
ATOM     19  N   UNL     1      48.142   6.701  15.102  0.00  0.00    +0.000 N 
ATOM     20  C   UNL     1      48.873   7.440  15.997  0.00  0.00    +0.000 C 
ATOM     21  O   UNL     1      49.682   8.287  15.634  0.00  0.00    +0.000 OA
ATOM     22  H   UNL     1      47.661   5.868  15.423  0.00  0.00    +0.000 HD
BRANCH  20  23
ATOM     23  C   UNL     1      48.586   7.208  17.420  0.00  0.00    +0.000 A 
ATOM     24  C   UNL     1      48.118   8.251  18.208  0.00  0.00    +0.000 A 
ATOM     25  S   UNL     1      47.793   7.797  19.820  0.00  0.00    +0.000 S 
ATOM     26  C   UNL     1      48.315   6.203  19.536  0.00  0.00    +0.000 A 
ATOM     27  N   UNL     1      48.322   5.279  20.535  0.00  0.00    +0.000 NA
ATOM     28  C   UNL     1      48.773   4.118  20.185  0.00  0.00    +0.000 A 
ATOM     29  N   UNL     1      49.207   3.800  18.924  0.00  0.00    +0.000 N 
ATOM     30  C   UNL     1      49.181   4.687  17.879  0.00  0.00    +0.000 A 
ATOM     31  O   UNL     1      49.519   4.351  16.746  0.00  0.00    +0.000 OA
ATOM     32  C   UNL     1      48.708   6.014  18.222  0.00  0.00    +0.000 A 
ATOM     33  H   UNL     1      49.530   2.867  18.711  0.00  0.00    +0.000 HD
ENDBRANCH  20  23
ENDBRANCH  18  19
ENDBRANCH   4  18
TORSDOF 7
ENDMDL
MODEL 4
REMARK VINA RESULT:    -8.213      1.319      1.822
REMARK INTER + INTRA:         -12.318
REMARK INTER:                 -11.060
REMARK INTRA:                  -1.258
REMARK UNBOUND:                -0.984
REMARK  Name = 
REMARK  7 active torsions:
REMARK  status: ('A' for Active; 'I' for Inactive)
REMARK    1  A    between atoms: N_1  and  C_2
REMARK    2  A    between atoms: C_2  and  C_3
REMARK    3  A    between atoms: C_2  and  C_10
REMARK    4  A    between atoms: C_3  and  C_4
REMARK    5  A    between atoms: C_13  and  C_14
REMARK    6  A    between atoms: C_14  and  N_15
REMARK    7  A    between atoms: C_16  and  C_18
REMARK                            x       y       z     vdW  Elec       q    Type
REMARK                         _______ _______ _______ _____ _____    ______ ____
ROOT
ATOM      1  C   UNL     1      44.976   4.514  11.292  0.00  0.00    +0.000 A 
ATOM      2  C   UNL     1      45.520   5.497  10.466  0.00  0.00    +0.000 A 
ATOM      3  C   UNL     1      45.803   6.760  10.990  0.00  0.00    +0.000 A 
ATOM      4  C   UNL     1      45.531   7.030  12.331  0.00  0.00    +0.000 A 
ATOM      5  C   UNL     1      44.953   6.009  13.073  0.00  0.00    +0.000 A 
ATOM      6  N   UNL     1      44.675   4.774  12.591  0.00  0.00    +0.000 NA
ENDROOT
BRANCH   1   7
ATOM      7  C   UNL     1      44.616   3.129  10.731  0.00  0.00    +0.000 C 
BRANCH   7   8
ATOM      8  N   UNL     1      43.490   2.499  11.461  0.00  0.00    +0.000 NA
ATOM      9  H   UNL     1      43.212   1.660  10.951  0.00  0.00    +0.000 HD
ATOM     10  H   UNL     1      42.686   3.125  11.402  0.00  0.00    +0.000 HD
ENDBRANCH   7   8
BRANCH   7  11
ATOM     11  C   UNL     1      44.310   3.204   9.211  0.00  0.00    +0.000 C 
BRANCH  11  12
ATOM     12  C   UNL     1      45.385   2.669   8.286  0.00  0.00    +0.000 A 
ATOM     13  C   UNL     1      45.989   3.512   7.341  0.00  0.00    +0.000 A 
ATOM     14  C   UNL     1      47.065   3.061   6.575  0.00  0.00    +0.000 A 
ATOM     15  C   UNL     1      47.551   1.767   6.746  0.00  0.00    +0.000 A 
ATOM     16  C   UNL     1      46.941   0.912   7.662  0.00  0.00    +0.000 A 
ATOM     17  C   UNL     1      45.859   1.358   8.424  0.00  0.00    +0.000 A 
ENDBRANCH  11  12
ENDBRANCH   7  11
ENDBRANCH   1   7
BRANCH   4  18
ATOM     18  C   UNL     1      45.792   8.376  12.939  0.00  0.00    +0.000 C 
BRANCH  18  19
ATOM     19  N   UNL     1      46.664   8.267  14.082  0.00  0.00    +0.000 N 
ATOM     20  C   UNL     1      47.968   8.688  14.034  0.00  0.00    +0.000 C 
ATOM     21  O   UNL     1      48.452   9.196  13.028  0.00  0.00    +0.000 OA
ATOM     22  H   UNL     1      46.367   7.655  14.835  0.00  0.00    +0.000 HD
BRANCH  20  23
ATOM     23  C   UNL     1      48.741   8.557  15.278  0.00  0.00    +0.000 A 
ATOM     24  C   UNL     1      49.324   9.680  15.849  0.00  0.00    +0.000 A 
ATOM     25  S   UNL     1      50.141   9.358  17.311  0.00  0.00    +0.000 S 
ATOM     26  C   UNL     1      49.789   7.697  17.207  0.00  0.00    +0.000 A 
ATOM     27  N   UNL     1      50.235   6.825  18.152  0.00  0.00    +0.000 NA
ATOM     28  C   UNL     1      49.920   5.590  17.930  0.00  0.00    +0.000 A 
ATOM     29  N   UNL     1      49.193   5.154  16.853  0.00  0.00    +0.000 N 
ATOM     30  C   UNL     1      48.691   6.001  15.899  0.00  0.00    +0.000 A 
ATOM     31  O   UNL     1      47.990   5.585  14.979  0.00  0.00    +0.000 OA
ATOM     32  C   UNL     1      49.036   7.397  16.085  0.00  0.00    +0.000 A 
ATOM     33  H   UNL     1      48.964   4.176  16.748  0.00  0.00    +0.000 HD
ENDBRANCH  20  23
ENDBRANCH  18  19
ENDBRANCH   4  18
TORSDOF 7
ENDMDL
MODEL 5
REMARK VINA RESULT:    -8.126      3.335      5.354
REMARK INTER + INTRA:         -12.198
REMARK INTER:                 -11.474
REMARK INTRA:                  -0.724
REMARK UNBOUND:                -0.984
REMARK  Name = 
REMARK  7 active torsions:
REMARK  status: ('A' for Active; 'I' for Inactive)
REMARK    1  A    between atoms: N_1  and  C_2
REMARK    2  A    between atoms: C_2  and  C_3
REMARK    3  A    between atoms: C_2  and  C_10
REMARK    4  A    between atoms: C_3  and  C_4
REMARK    5  A    between atoms: C_13  and  C_14
REMARK    6  A    between atoms: C_14  and  N_15
REMARK    7  A    between atoms: C_16  and  C_18
REMARK                            x       y       z     vdW  Elec       q    Type
REMARK                         _______ _______ _______ _____ _____    ______ ____
ROOT
ATOM      1  C   UNL     1      45.203   3.973  11.686  0.00  0.00    +0.000 A 
ATOM      2  C   UNL     1      45.837   3.487  12.829  0.00  0.00    +0.000 A 
ATOM      3  C   UNL     1      46.722   4.310  13.529  0.00  0.00    +0.000 A 
ATOM      4  C   UNL     1      46.970   5.605  13.075  0.00  0.00    +0.000 A 
ATOM      5  C   UNL     1      46.329   5.996  11.908  0.00  0.00    +0.000 A 
ATOM      6  N   UNL     1      45.462   5.220  11.214  0.00  0.00    +0.000 NA
ENDROOT
BRANCH   1   7
ATOM      7  C   UNL     1      44.256   3.076  10.873  0.00  0.00    +0.000 C 
BRANCH   7   8
ATOM      8  N   UNL     1      42.874   3.082  11.409  0.00  0.00    +0.000 NA
ATOM      9  H   UNL     1      42.858   2.500  12.248  0.00  0.00    +0.000 HD
ATOM     10  H   UNL     1      42.273   2.600  10.740  0.00  0.00    +0.000 HD
ENDBRANCH   7   8
BRANCH   7  11
ATOM     11  C   UNL     1      44.263   3.470   9.372  0.00  0.00    +0.000 C 
BRANCH  11  12
ATOM     12  C   UNL     1      45.396   2.905   8.538  0.00  0.00    +0.000 A 
ATOM     13  C   UNL     1      45.704   1.538   8.597  0.00  0.00    +0.000 A 
ATOM     14  C   UNL     1      46.660   0.989   7.739  0.00  0.00    +0.000 A 
ATOM     15  C   UNL     1      47.314   1.799   6.814  0.00  0.00    +0.000 A 
ATOM     16  C   UNL     1      47.036   3.164   6.766  0.00  0.00    +0.000 A 
ATOM     17  C   UNL     1      46.087   3.716   7.628  0.00  0.00    +0.000 A 
ENDBRANCH  11  12
ENDBRANCH   7  11
ENDBRANCH   1   7
BRANCH   4  18
ATOM     18  C   UNL     1      47.930   6.521  13.774  0.00  0.00    +0.000 C 
BRANCH  18  19
ATOM     19  N   UNL     1      47.781   7.878  13.311  0.00  0.00    +0.000 N 
ATOM     20  C   UNL     1      48.510   8.363  12.256  0.00  0.00    +0.000 C 
ATOM     21  O   UNL     1      49.308   7.663  11.640  0.00  0.00    +0.000 OA
ATOM     22  H   UNL     1      47.311   8.531  13.930  0.00  0.00    +0.000 HD
BRANCH  20  23
ATOM     23  C   UNL     1      48.237   9.751  11.858  0.00  0.00    +0.000 A 
ATOM     24  C   UNL     1      49.281  10.572  11.452  0.00  0.00    +0.000 A 
ATOM     25  S   UNL     1      48.781  12.132  10.980  0.00  0.00    +0.000 S 
ATOM     26  C   UNL     1      47.157  11.786  11.350  0.00  0.00    +0.000 A 
ATOM     27  N   UNL     1      46.186  12.728  11.199  0.00  0.00    +0.000 NA
ATOM     28  C   UNL     1      45.004  12.336  11.547  0.00  0.00    +0.000 A 
ATOM     29  N   UNL     1      44.707  11.086  12.025  0.00  0.00    +0.000 N 
ATOM     30  C   UNL     1      45.646  10.095  12.157  0.00  0.00    +0.000 A 
ATOM     31  O   UNL     1      45.335   8.965  12.529  0.00  0.00    +0.000 OA
ATOM     32  C   UNL     1      46.996  10.488  11.803  0.00  0.00    +0.000 A 
ATOM     33  H   UNL     1      43.757  10.836  12.262  0.00  0.00    +0.000 HD
ENDBRANCH  20  23
ENDBRANCH  18  19
ENDBRANCH   4  18
TORSDOF 7
ENDMDL
MODEL 6
REMARK VINA RESULT:    -7.983      3.831      4.697
REMARK INTER + INTRA:         -12.001
REMARK INTER:                 -10.703
REMARK INTRA:                  -1.299
REMARK UNBOUND:                -0.984
REMARK  Name = 
REMARK  7 active torsions:
REMARK  status: ('A' for Active; 'I' for Inactive)
REMARK    1  A    between atoms: N_1  and  C_2
REMARK    2  A    between atoms: C_2  and  C_3
REMARK    3  A    between atoms: C_2  and  C_10
REMARK    4  A    between atoms: C_3  and  C_4
REMARK    5  A    between atoms: C_13  and  C_14
REMARK    6  A    between atoms: C_14  and  N_15
REMARK    7  A    between atoms: C_16  and  C_18
REMARK                            x       y       z     vdW  Elec       q    Type
REMARK                         _______ _______ _______ _____ _____    ______ ____
ROOT
ATOM      1  C   UNL     1      44.978   4.513  11.219  0.00  0.00    +0.000 A 
ATOM      2  C   UNL     1      45.444   5.568  10.433  0.00  0.00    +0.000 A 
ATOM      3  C   UNL     1      45.680   6.813  11.020  0.00  0.00    +0.000 A 
ATOM      4  C   UNL     1      45.440   6.993  12.381  0.00  0.00    +0.000 A 
ATOM      5  C   UNL     1      44.940   5.904  13.082  0.00  0.00    +0.000 A 
ATOM      6  N   UNL     1      44.709   4.684  12.539  0.00  0.00    +0.000 NA
ENDROOT
BRANCH   1   7
ATOM      7  C   UNL     1      44.671   3.144  10.591  0.00  0.00    +0.000 C 
BRANCH   7   8
ATOM      8  N   UNL     1      43.550   2.451  11.270  0.00  0.00    +0.000 NA
ATOM      9  H   UNL     1      43.307   1.627  10.718  0.00  0.00    +0.000 HD
ATOM     10  H   UNL     1      42.729   3.055  11.222  0.00  0.00    +0.000 HD
ENDBRANCH   7   8
BRANCH   7  11
ATOM     11  C   UNL     1      44.391   3.277   9.070  0.00  0.00    +0.000 C 
BRANCH  11  12
ATOM     12  C   UNL     1      45.445   2.701   8.145  0.00  0.00    +0.000 A 
ATOM     13  C   UNL     1      45.998   3.488   7.125  0.00  0.00    +0.000 A 
ATOM     14  C   UNL     1      47.057   3.007   6.352  0.00  0.00    +0.000 A 
ATOM     15  C   UNL     1      47.575   1.737   6.592  0.00  0.00    +0.000 A 
ATOM     16  C   UNL     1      47.014   0.935   7.584  0.00  0.00    +0.000 A 
ATOM     17  C   UNL     1      45.950   1.411   8.352  0.00  0.00    +0.000 A 
ENDBRANCH  11  12
ENDBRANCH   7  11
ENDBRANCH   1   7
BRANCH   4  18
ATOM     18  C   UNL     1      45.652   8.315  13.057  0.00  0.00    +0.000 C 
BRANCH  18  19
ATOM     19  N   UNL     1      47.018   8.754  12.919  0.00  0.00    +0.000 N 
ATOM     20  C   UNL     1      47.350   9.848  12.162  0.00  0.00    +0.000 C 
ATOM     21  O   UNL     1      46.502  10.521  11.584  0.00  0.00    +0.000 OA
ATOM     22  H   UNL     1      47.745   8.100  13.189  0.00  0.00    +0.000 HD
BRANCH  20  23
ATOM     23  C   UNL     1      48.773  10.214  12.133  0.00  0.00    +0.000 A 
ATOM     24  C   UNL     1      49.153  11.528  12.372  0.00  0.00    +0.000 A 
ATOM     25  S   UNL     1      50.842  11.767  12.349  0.00  0.00    +0.000 S 
ATOM     26  C   UNL     1      51.124  10.133  11.966  0.00  0.00    +0.000 A 
ATOM     27  N   UNL     1      52.388   9.666  11.773  0.00  0.00    +0.000 NA
ATOM     28  C   UNL     1      52.451   8.413  11.458  0.00  0.00    +0.000 A 
ATOM     29  N   UNL     1      51.365   7.587  11.329  0.00  0.00    +0.000 N 
ATOM     30  C   UNL     1      50.078   8.005  11.552  0.00  0.00    +0.000 A 
ATOM     31  O   UNL     1      49.132   7.224  11.488  0.00  0.00    +0.000 OA
ATOM     32  C   UNL     1      49.947   9.410  11.884  0.00  0.00    +0.000 A 
ATOM     33  H   UNL     1      51.484   6.611  11.099  0.00  0.00    +0.000 HD
ENDBRANCH  20  23
ENDBRANCH  18  19
ENDBRANCH   4  18
TORSDOF 7
ENDMDL
MODEL 7
REMARK VINA RESULT:    -7.597      2.714      4.041
REMARK INTER + INTRA:         -11.469
REMARK INTER:                 -10.407
REMARK INTRA:                  -1.062
REMARK UNBOUND:                -0.984
REMARK  Name = 
REMARK  7 active torsions:
REMARK  status: ('A' for Active; 'I' for Inactive)
REMARK    1  A    between atoms: N_1  and  C_2
REMARK    2  A    between atoms: C_2  and  C_3
REMARK    3  A    between atoms: C_2  and  C_10
REMARK    4  A    between atoms: C_3  and  C_4
REMARK    5  A    between atoms: C_13  and  C_14
REMARK    6  A    between atoms: C_14  and  N_15
REMARK    7  A    between atoms: C_16  and  C_18
REMARK                            x       y       z     vdW  Elec       q    Type
REMARK                         _______ _______ _______ _____ _____    ______ ____
ROOT
ATOM      1  C   UNL     1      45.336   4.661  11.359  0.00  0.00    +0.000 A 
ATOM      2  C   UNL     1      45.488   3.714  12.372  0.00  0.00    +0.000 A 
ATOM      3  C   UNL     1      46.266   4.021  13.491  0.00  0.00    +0.000 A 
ATOM      4  C   UNL     1      46.890   5.264  13.581  0.00  0.00    +0.000 A 
ATOM      5  C   UNL     1      46.720   6.132  12.511  0.00  0.00    +0.000 A 
ATOM      6  N   UNL     1      45.966   5.862  11.418  0.00  0.00    +0.000 NA
ENDROOT
BRANCH   1   7
ATOM      7  C   UNL     1      44.519   4.335  10.098  0.00  0.00    +0.000 C 
BRANCH   7   8
ATOM      8  N   UNL     1      43.226   5.060  10.061  0.00  0.00    +0.000 NA
ATOM      9  H   UNL     1      42.476   4.367  10.066  0.00  0.00    +0.000 HD
ATOM     10  H   UNL     1      43.151   5.526   9.157  0.00  0.00    +0.000 HD
ENDBRANCH   7   8
BRANCH   7  11
ATOM     11  C   UNL     1      45.341   4.616   8.812  0.00  0.00    +0.000 C 
BRANCH  11  12
ATOM     12  C   UNL     1      45.940   3.405   8.125  0.00  0.00    +0.000 A 
ATOM     13  C   UNL     1      46.854   3.567   7.074  0.00  0.00    +0.000 A 
ATOM     14  C   UNL     1      47.505   2.462   6.522  0.00  0.00    +0.000 A 
ATOM     15  C   UNL     1      47.252   1.185   7.017  0.00  0.00    +0.000 A 
ATOM     16  C   UNL     1      46.324   1.008   8.042  0.00  0.00    +0.000 A 
ATOM     17  C   UNL     1      45.666   2.112   8.589  0.00  0.00    +0.000 A 
ENDBRANCH  11  12
ENDBRANCH   7  11
ENDBRANCH   1   7
BRANCH   4  18
ATOM     18  C   UNL     1      47.757   5.635  14.747  0.00  0.00    +0.000 C 
BRANCH  18  19
ATOM     19  N   UNL     1      48.035   7.050  14.756  0.00  0.00    +0.000 N 
ATOM     20  C   UNL     1      49.299   7.534  14.974  0.00  0.00    +0.000 C 
ATOM     21  O   UNL     1      50.260   6.790  15.150  0.00  0.00    +0.000 OA
ATOM     22  H   UNL     1      47.242   7.677  14.842  0.00  0.00    +0.000 HD
BRANCH  20  23
ATOM     23  C   UNL     1      49.456   8.994  14.921  0.00  0.00    +0.000 A 
ATOM     24  C   UNL     1      50.203   9.571  13.902  0.00  0.00    +0.000 A 
ATOM     25  S   UNL     1      50.242  11.275  13.964  0.00  0.00    +0.000 S 
ATOM     26  C   UNL     1      49.305  11.302  15.384  0.00  0.00    +0.000 A 
ATOM     27  N   UNL     1      48.992  12.476  15.996  0.00  0.00    +0.000 NA
ATOM     28  C   UNL     1      48.302  12.345  17.082  0.00  0.00    +0.000 A 
ATOM     29  N   UNL     1      47.894  11.145  17.604  0.00  0.00    +0.000 N 
ATOM     30  C   UNL     1      48.154   9.941  17.001  0.00  0.00    +0.000 A 
ATOM     31  O   UNL     1      47.720   8.888  17.462  0.00  0.00    +0.000 OA
ATOM     32  C   UNL     1      48.947  10.028  15.791  0.00  0.00    +0.000 A 
ATOM     33  H   UNL     1      47.340  11.112  18.448  0.00  0.00    +0.000 HD
ENDBRANCH  20  23
ENDBRANCH  18  19
ENDBRANCH   4  18
TORSDOF 7
ENDMDL
MODEL 8
REMARK VINA RESULT:    -7.024      3.039      8.423
REMARK INTER + INTRA:         -10.678
REMARK INTER:                  -9.365
REMARK INTRA:                  -1.313
REMARK UNBOUND:                -0.984
REMARK  Name = 
REMARK  7 active torsions:
REMARK  status: ('A' for Active; 'I' for Inactive)
REMARK    1  A    between atoms: N_1  and  C_2
REMARK    2  A    between atoms: C_2  and  C_3
REMARK    3  A    between atoms: C_2  and  C_10
REMARK    4  A    between atoms: C_3  and  C_4
REMARK    5  A    between atoms: C_13  and  C_14
REMARK    6  A    between atoms: C_14  and  N_15
REMARK    7  A    between atoms: C_16  and  C_18
REMARK                            x       y       z     vdW  Elec       q    Type
REMARK                         _______ _______ _______ _____ _____    ______ ____
ROOT
ATOM      1  C   UNL     1      49.257   7.709  16.054  0.00  0.00    +0.000 A 
ATOM      2  C   UNL     1      48.328   8.697  15.727  0.00  0.00    +0.000 A 
ATOM      3  C   UNL     1      47.774   8.726  14.446  0.00  0.00    +0.000 A 
ATOM      4  C   UNL     1      48.159   7.775  13.503  0.00  0.00    +0.000 A 
ATOM      5  C   UNL     1      49.118   6.851  13.897  0.00  0.00    +0.000 A 
ATOM      6  N   UNL     1      49.666   6.797  15.135  0.00  0.00    +0.000 NA
ENDROOT
BRANCH   1   7
ATOM      7  C   UNL     1      49.913   7.678  17.444  0.00  0.00    +0.000 C 
BRANCH   7   8
ATOM      8  N   UNL     1      50.190   9.038  17.966  0.00  0.00    +0.000 NA
ATOM      9  H   UNL     1      50.003   9.708  17.219  0.00  0.00    +0.000 HD
ATOM     10  H   UNL     1      51.192   9.110  18.144  0.00  0.00    +0.000 HD
ENDBRANCH   7   8
BRANCH   7  11
ATOM     11  C   UNL     1      49.053   6.869  18.451  0.00  0.00    +0.000 C 
BRANCH  11  12
ATOM     12  C   UNL     1      48.776   5.425  18.083  0.00  0.00    +0.000 A 
ATOM     13  C   UNL     1      47.465   5.001  17.820  0.00  0.00    +0.000 A 
ATOM     14  C   UNL     1      47.218   3.706  17.359  0.00  0.00    +0.000 A 
ATOM     15  C   UNL     1      48.276   2.825  17.152  0.00  0.00    +0.000 A 
ATOM     16  C   UNL     1      49.580   3.227  17.436  0.00  0.00    +0.000 A 
ATOM     17  C   UNL     1      49.829   4.518  17.906  0.00  0.00    +0.000 A 
ENDBRANCH  11  12
ENDBRANCH   7  11
ENDBRANCH   1   7
BRANCH   4  18
ATOM     18  C   UNL     1      47.615   7.775  12.105  0.00  0.00    +0.000 C 
BRANCH  18  19
ATOM     19  N   UNL     1      46.908   6.551  11.825  0.00  0.00    +0.000 N 
ATOM     20  C   UNL     1      45.562   6.427  12.056  0.00  0.00    +0.000 C 
ATOM     21  O   UNL     1      44.889   7.356  12.491  0.00  0.00    +0.000 OA
ATOM     22  H   UNL     1      47.466   5.714  11.686  0.00  0.00    +0.000 HD
BRANCH  20  23
ATOM     23  C   UNL     1      44.954   5.140  11.692  0.00  0.00    +0.000 A 
ATOM     24  C   UNL     1      44.231   4.426  12.639  0.00  0.00    +0.000 A 
ATOM     25  S   UNL     1      43.554   2.981  12.035  0.00  0.00    +0.000 S 
ATOM     26  C   UNL     1      44.247   3.231  10.501  0.00  0.00    +0.000 A 
ATOM     27  N   UNL     1      44.078   2.325   9.500  0.00  0.00    +0.000 NA
ATOM     28  C   UNL     1      44.685   2.628   8.398  0.00  0.00    +0.000 A 
ATOM     29  N   UNL     1      45.438   3.759   8.210  0.00  0.00    +0.000 N 
ATOM     30  C   UNL     1      45.603   4.715   9.179  0.00  0.00    +0.000 A 
ATOM     31  O   UNL     1      46.232   5.747   8.957  0.00  0.00    +0.000 OA
ATOM     32  C   UNL     1      44.963   4.414  10.444  0.00  0.00    +0.000 A 
ATOM     33  H   UNL     1      45.872   3.946   7.318  0.00  0.00    +0.000 HD
ENDBRANCH  20  23
ENDBRANCH  18  19
ENDBRANCH   4  18
TORSDOF 7
ENDMDL
MODEL 9
REMARK VINA RESULT:    -6.953      1.676      2.360
REMARK INTER + INTRA:         -10.579
REMARK INTER:                  -9.440
REMARK INTRA:                  -1.139
REMARK UNBOUND:                -0.984
REMARK  Name = 
REMARK  7 active torsions:
REMARK  status: ('A' for Active; 'I' for Inactive)
REMARK    1  A    between atoms: N_1  and  C_2
REMARK    2  A    between atoms: C_2  and  C_3
REMARK    3  A    between atoms: C_2  and  C_10
REMARK    4  A    between atoms: C_3  and  C_4
REMARK    5  A    between atoms: C_13  and  C_14
REMARK    6  A    between atoms: C_14  and  N_15
REMARK    7  A    between atoms: C_16  and  C_18
REMARK                            x       y       z     vdW  Elec       q    Type
REMARK                         _______ _______ _______ _____ _____    ______ ____
ROOT
ATOM      1  C   UNL     1      46.097   5.672  12.653  0.00  0.00    +0.000 A 
ATOM      2  C   UNL     1      46.837   6.610  11.933  0.00  0.00    +0.000 A 
ATOM      3  C   UNL     1      48.021   7.116  12.474  0.00  0.00    +0.000 A 
ATOM      4  C   UNL     1      48.447   6.688  13.730  0.00  0.00    +0.000 A 
ATOM      5  C   UNL     1      47.632   5.783  14.396  0.00  0.00    +0.000 A 
ATOM      6  N   UNL     1      46.483   5.272  13.892  0.00  0.00    +0.000 NA
ENDROOT
BRANCH   1   7
ATOM      7  C   UNL     1      44.770   5.129  12.100  0.00  0.00    +0.000 C 
BRANCH   7   8
ATOM      8  N   UNL     1      43.594   5.662  12.830  0.00  0.00    +0.000 NA
ATOM      9  H   UNL     1      43.714   6.672  12.928  0.00  0.00    +0.000 HD
ATOM     10  H   UNL     1      43.622   5.298  13.783  0.00  0.00    +0.000 HD
ENDBRANCH   7   8
BRANCH   7  11
ATOM     11  C   UNL     1      44.641   5.409  10.578  0.00  0.00    +0.000 C 
BRANCH  11  12
ATOM     12  C   UNL     1      45.177   4.334   9.654  0.00  0.00    +0.000 A 
ATOM     13  C   UNL     1      44.890   2.983   9.899  0.00  0.00    +0.000 A 
ATOM     14  C   UNL     1      45.272   1.999   8.984  0.00  0.00    +0.000 A 
ATOM     15  C   UNL     1      45.942   2.356   7.816  0.00  0.00    +0.000 A 
ATOM     16  C   UNL     1      46.258   3.692   7.577  0.00  0.00    +0.000 A 
ATOM     17  C   UNL     1      45.884   4.675   8.494  0.00  0.00    +0.000 A 
ENDBRANCH  11  12
ENDBRANCH   7  11
ENDBRANCH   1   7
BRANCH   4  18
ATOM     18  C   UNL     1      49.697   7.218  14.368  0.00  0.00    +0.000 C 
BRANCH  18  19
ATOM     19  N   UNL     1      49.631   7.108  15.804  0.00  0.00    +0.000 N 
ATOM     20  C   UNL     1      50.744   6.832  16.556  0.00  0.00    +0.000 C 
ATOM     21  O   UNL     1      51.852   6.686  16.050  0.00  0.00    +0.000 OA
ATOM     22  H   UNL     1      48.712   6.997  16.219  0.00  0.00    +0.000 HD
BRANCH  20  23
ATOM     23  C   UNL     1      50.550   6.784  18.013  0.00  0.00    +0.000 A 
ATOM     24  C   UNL     1      51.105   7.771  18.815  0.00  0.00    +0.000 A 
ATOM     25  S   UNL     1      50.743   7.590  20.472  0.00  0.00    +0.000 S 
ATOM     26  C   UNL     1      49.875   6.155  20.183  0.00  0.00    +0.000 A 
ATOM     27  N   UNL     1      49.314   5.456  21.208  0.00  0.00    +0.000 NA
ATOM     28  C   UNL     1      48.712   4.370  20.845  0.00  0.00    +0.000 A 
ATOM     29  N   UNL     1      48.616   3.928  19.551  0.00  0.00    +0.000 N 
ATOM     30  C   UNL     1      49.132   4.619  18.486  0.00  0.00    +0.000 A 
ATOM     31  O   UNL     1      48.974   4.227  17.332  0.00  0.00    +0.000 OA
ATOM     32  C   UNL     1      49.841   5.834  18.838  0.00  0.00    +0.000 A 
ATOM     33  H   UNL     1      48.114   3.079  19.333  0.00  0.00    +0.000 HD
ENDBRANCH  20  23
ENDBRANCH  18  19
ENDBRANCH   4  18
TORSDOF 7
ENDMDL
