MODEL 1
REMARK VINA RESULT:    -7.320      0.000      0.000
REMARK INTER + INTRA:         -11.088
REMARK INTER:                  -9.887
REMARK INTRA:                  -1.200
REMARK UNBOUND:                -1.200
REMARK  Name = 
REMARK  6 active torsions:
REMARK  status: ('A' for Active; 'I' for Inactive)
REMARK    1  A    between atoms: C_2  and  C_20
REMARK    2  A    between atoms: N_3  and  C_4
REMARK    3  A    between atoms: C_4  and  C_5
REMARK    4  A    between atoms: C_8  and  C_9
REMARK    5  A    between atoms: C_9  and  C_10
REMARK    6  A    between atoms: C_10  and  C_11
REMARK                            x       y       z     vdW  Elec       q    Type
REMARK                         _______ _______ _______ _____ _____    ______ ____
ROOT
ATOM      1  C   UNL     1      48.253   7.747  12.555  0.00  0.00    +0.000 C 
ENDROOT
BRANCH   1   2
ATOM      2  C   UNL     1      48.863   7.328  13.868  0.00  0.00    +0.000 A 
ATOM      3  C   UNL     1      50.159   7.735  14.206  0.00  0.00    +0.000 A 
ATOM      4  C   UNL     1      50.745   7.324  15.409  0.00  0.00    +0.000 A 
ATOM      5  C   UNL     1      50.047   6.497  16.299  0.00  0.00    +0.000 A 
ATOM      6  C   UNL     1      48.756   6.080  15.951  0.00  0.00    +0.000 A 
ATOM      7  C   UNL     1      48.171   6.485  14.747  0.00  0.00    +0.000 A 
BRANCH   5   8
ATOM      8  C   UNL     1      50.697   6.005  17.573  0.00  0.00    +0.000 C 
BRANCH   8   9
ATOM      9  C   UNL     1      49.992   4.799  18.205  0.00  0.00    +0.000 C 
BRANCH   9  10
ATOM     10  C   UNL     1      50.735   3.519  17.925  0.00  0.00    +0.000 A 
ATOM     11  N   UNL     1      52.029   3.471  18.358  0.00  0.00    +0.000 NA
ATOM     12  C   UNL     1      52.704   2.326  18.101  0.00  0.00    +0.000 A 
ATOM     13  C   UNL     1      52.128   1.261  17.435  0.00  0.00    +0.000 A 
ATOM     14  N   UNL     1      50.854   1.291  16.987  0.00  0.00    +0.000 NA
ATOM     15  C   UNL     1      50.174   2.436  17.243  0.00  0.00    +0.000 A 
ATOM     16 CL   UNL     1      48.568   2.421  16.636  0.00  0.00    +0.000 Cl
ENDBRANCH   9  10
ENDBRANCH   8   9
ENDBRANCH   5   8
ENDBRANCH   1   2
BRANCH   1  19
ATOM     17  O   UNL     1      45.606   7.905  11.607  0.00  0.00    +0.000 OA
ATOM     18  C   UNL     1      46.222   6.851  11.479  0.00  0.00    +0.000 C 
ATOM     19  N   UNL     1      47.491   6.674  11.968  0.00  0.00    +0.000 N 
ATOM     20  H   UNL     1      48.025   5.866  11.667  0.00  0.00    +0.000 HD
BRANCH  18  21
ATOM     21  C   UNL     1      45.605   5.678  10.846  0.00  0.00    +0.000 A 
ATOM     22  C   UNL     1      45.757   5.471   9.481  0.00  0.00    +0.000 A 
ATOM     23  S   UNL     1      44.937   4.092   8.903  0.00  0.00    +0.000 S 
ATOM     24  C   UNL     1      44.394   3.691  10.465  0.00  0.00    +0.000 A 
ATOM     25  N   UNL     1      43.635   2.583  10.680  0.00  0.00    +0.000 NA
ATOM     26  C   UNL     1      43.336   2.373  11.918  0.00  0.00    +0.000 A 
ATOM     27  N   UNL     1      43.721   3.174  12.961  0.00  0.00    +0.000 N 
ATOM     28  C   UNL     1      44.425   4.341  12.784  0.00  0.00    +0.000 A 
ATOM     29  O   UNL     1      44.644   5.097  13.725  0.00  0.00    +0.000 OA
ATOM     30  C   UNL     1      44.819   4.605  11.413  0.00  0.00    +0.000 A 
ATOM     31  H   UNL     1      43.435   2.967  13.906  0.00  0.00    +0.000 HD
ENDBRANCH  18  21
ENDBRANCH   1  19
TORSDOF 6
ENDMDL
MODEL 2
REMARK VINA RESULT:    -7.192      4.763      8.266
REMARK INTER + INTRA:         -10.915
REMARK INTER:                 -10.336
REMARK INTRA:                  -0.579
REMARK UNBOUND:                -1.200
REMARK  Name = 
REMARK  6 active torsions:
REMARK  status: ('A' for Active; 'I' for Inactive)
REMARK    1  A    between atoms: C_2  and  C_20
REMARK    2  A    between atoms: N_3  and  C_4
REMARK    3  A    between atoms: C_4  and  C_5
REMARK    4  A    between atoms: C_8  and  C_9
REMARK    5  A    between atoms: C_9  and  C_10
REMARK    6  A    between atoms: C_10  and  C_11
REMARK                            x       y       z     vdW  Elec       q    Type
REMARK                         _______ _______ _______ _____ _____    ______ ____
ROOT
ATOM      1  C   UNL     1      46.614   5.604  14.081  0.00  0.00    +0.000 C 
ENDROOT
BRANCH   1   2
ATOM      2  C   UNL     1      45.977   4.964  12.875  0.00  0.00    +0.000 A 
ATOM      3  C   UNL     1      45.672   3.597  12.878  0.00  0.00    +0.000 A 
ATOM      4  C   UNL     1      45.109   2.990  11.750  0.00  0.00    +0.000 A 
ATOM      5  C   UNL     1      44.840   3.735  10.595  0.00  0.00    +0.000 A 
ATOM      6  C   UNL     1      45.159   5.100  10.590  0.00  0.00    +0.000 A 
ATOM      7  C   UNL     1      45.726   5.707  11.714  0.00  0.00    +0.000 A 
BRANCH   5   8
ATOM      8  C   UNL     1      44.284   3.072   9.354  0.00  0.00    +0.000 C 
BRANCH   8   9
ATOM      9  C   UNL     1      44.992   1.765   8.977  0.00  0.00    +0.000 C 
BRANCH   9  10
ATOM     10  C   UNL     1      46.100   2.007   7.985  0.00  0.00    +0.000 A 
ATOM     11  N   UNL     1      46.323   3.310   7.643  0.00  0.00    +0.000 NA
ATOM     12  C   UNL     1      47.312   3.533   6.746  0.00  0.00    +0.000 A 
ATOM     13  C   UNL     1      48.057   2.507   6.196  0.00  0.00    +0.000 A 
ATOM     14  N   UNL     1      47.846   1.211   6.511  0.00  0.00    +0.000 NA
ATOM     15  C   UNL     1      46.856   0.983   7.410  0.00  0.00    +0.000 A 
ATOM     16 CL   UNL     1      46.625  -0.682   7.757  0.00  0.00    +0.000 Cl
ENDBRANCH   9  10
ENDBRANCH   8   9
ENDBRANCH   5   8
ENDBRANCH   1   2
BRANCH   1  19
ATOM     17  O   UNL     1      48.992   6.451  12.832  0.00  0.00    +0.000 OA
ATOM     18  C   UNL     1      48.151   7.290  13.143  0.00  0.00    +0.000 C 
ATOM     19  N   UNL     1      46.996   6.966  13.809  0.00  0.00    +0.000 N 
ATOM     20  H   UNL     1      46.253   7.653  13.865  0.00  0.00    +0.000 HD
BRANCH  18  21
ATOM     21  C   UNL     1      48.364   8.719  12.879  0.00  0.00    +0.000 A 
ATOM     22  C   UNL     1      49.647   9.247  12.933  0.00  0.00    +0.000 A 
ATOM     23  S   UNL     1      49.706  10.928  12.650  0.00  0.00    +0.000 S 
ATOM     24  C   UNL     1      48.026  11.001  12.392  0.00  0.00    +0.000 A 
ATOM     25  N   UNL     1      47.416  12.177  12.084  0.00  0.00    +0.000 NA
ATOM     26  C   UNL     1      46.147  12.078  11.865  0.00  0.00    +0.000 A 
ATOM     27  N   UNL     1      45.431  10.910  11.935  0.00  0.00    +0.000 N 
ATOM     28  C   UNL     1      45.992   9.715  12.315  0.00  0.00    +0.000 A 
ATOM     29  O   UNL     1      45.298   8.718  12.487  0.00  0.00    +0.000 OA
ATOM     30  C   UNL     1      47.425   9.763  12.535  0.00  0.00    +0.000 A 
ATOM     31  H   UNL     1      44.435  10.904  11.775  0.00  0.00    +0.000 HD
ENDBRANCH  18  21
ENDBRANCH   1  19
TORSDOF 6
ENDMDL
MODEL 3
REMARK VINA RESULT:    -7.022      3.925      8.959
REMARK INTER + INTRA:         -10.685
REMARK INTER:                  -9.589
REMARK INTRA:                  -1.096
REMARK UNBOUND:                -1.200
REMARK  Name = 
REMARK  6 active torsions:
REMARK  status: ('A' for Active; 'I' for Inactive)
REMARK    1  A    between atoms: C_2  and  C_20
REMARK    2  A    between atoms: N_3  and  C_4
REMARK    3  A    between atoms: C_4  and  C_5
REMARK    4  A    between atoms: C_8  and  C_9
REMARK    5  A    between atoms: C_9  and  C_10
REMARK    6  A    between atoms: C_10  and  C_11
REMARK                            x       y       z     vdW  Elec       q    Type
REMARK                         _______ _______ _______ _____ _____    ______ ____
ROOT
ATOM      1  C   UNL     1      48.021   4.732  16.981  0.00  0.00    +0.000 C 
ENDROOT
BRANCH   1   2
ATOM      2  C   UNL     1      47.648   5.161  15.586  0.00  0.00    +0.000 A 
ATOM      3  C   UNL     1      46.769   4.386  14.820  0.00  0.00    +0.000 A 
ATOM      4  C   UNL     1      46.442   4.761  13.512  0.00  0.00    +0.000 A 
ATOM      5  C   UNL     1      46.989   5.918  12.941  0.00  0.00    +0.000 A 
ATOM      6  C   UNL     1      47.879   6.684  13.705  0.00  0.00    +0.000 A 
ATOM      7  C   UNL     1      48.211   6.308  15.010  0.00  0.00    +0.000 A 
BRANCH   5   8
ATOM      8  C   UNL     1      46.682   6.297  11.509  0.00  0.00    +0.000 C 
BRANCH   8   9
ATOM      9  C   UNL     1      45.232   6.026  11.091  0.00  0.00    +0.000 C 
BRANCH   9  10
ATOM     10  C   UNL     1      45.142   4.864  10.137  0.00  0.00    +0.000 A 
ATOM     11  N   UNL     1      45.801   5.012   8.950  0.00  0.00    +0.000 NA
ATOM     12  C   UNL     1      45.718   3.974   8.085  0.00  0.00    +0.000 A 
ATOM     13  C   UNL     1      45.005   2.825   8.374  0.00  0.00    +0.000 A 
ATOM     14  N   UNL     1      44.336   2.663   9.537  0.00  0.00    +0.000 NA
ATOM     15  C   UNL     1      44.417   3.701  10.406  0.00  0.00    +0.000 A 
ATOM     16 CL   UNL     1      43.535   3.442  11.856  0.00  0.00    +0.000 Cl
ENDBRANCH   9  10
ENDBRANCH   8   9
ENDBRANCH   5   8
ENDBRANCH   1   2
BRANCH   1  19
ATOM     17  O   UNL     1      49.713   5.138  19.196  0.00  0.00    +0.000 OA
ATOM     18  C   UNL     1      50.157   4.565  18.205  0.00  0.00    +0.000 C 
ATOM     19  N   UNL     1      49.417   4.383  17.064  0.00  0.00    +0.000 N 
ATOM     20  H   UNL     1      49.754   3.739  16.357  0.00  0.00    +0.000 HD
BRANCH  18  21
ATOM     21  C   UNL     1      51.547   4.092  18.153  0.00  0.00    +0.000 A 
ATOM     22  C   UNL     1      52.581   4.949  18.509  0.00  0.00    +0.000 A 
ATOM     23  S   UNL     1      54.130   4.256  18.344  0.00  0.00    +0.000 S 
ATOM     24  C   UNL     1      53.473   2.769  17.842  0.00  0.00    +0.000 A 
ATOM     25  N   UNL     1      54.277   1.711  17.549  0.00  0.00    +0.000 NA
ATOM     26  C   UNL     1      53.644   0.632  17.231  0.00  0.00    +0.000 A 
ATOM     27  N   UNL     1      52.280   0.516  17.172  0.00  0.00    +0.000 N 
ATOM     28  C   UNL     1      51.432   1.575  17.388  0.00  0.00    +0.000 A 
ATOM     29  O   UNL     1      50.224   1.466  17.204  0.00  0.00    +0.000 OA
ATOM     30  C   UNL     1      52.092   2.804  17.786  0.00  0.00    +0.000 A 
ATOM     31  H   UNL     1      51.846  -0.352  16.894  0.00  0.00    +0.000 HD
ENDBRANCH  18  21
ENDBRANCH   1  19
TORSDOF 6
ENDMDL
MODEL 4
REMARK VINA RESULT:    -6.902      4.755      8.848
REMARK INTER + INTRA:         -10.523
REMARK INTER:                  -9.364
REMARK INTRA:                  -1.159
REMARK UNBOUND:                -1.200
REMARK  Name = 
REMARK  6 active torsions:
REMARK  status: ('A' for Active; 'I' for Inactive)
REMARK    1  A    between atoms: C_2  and  C_20
REMARK    2  A    between atoms: N_3  and  C_4
REMARK    3  A    between atoms: C_4  and  C_5
REMARK    4  A    between atoms: C_8  and  C_9
REMARK    5  A    between atoms: C_9  and  C_10
REMARK    6  A    between atoms: C_10  and  C_11
REMARK                            x       y       z     vdW  Elec       q    Type
REMARK                         _______ _______ _______ _____ _____    ______ ____
ROOT
ATOM      1  C   UNL     1      48.067   4.946  16.403  0.00  0.00    +0.000 C 
ENDROOT
BRANCH   1   2
ATOM      2  C   UNL     1      47.580   5.277  15.016  0.00  0.00    +0.000 A 
ATOM      3  C   UNL     1      48.097   6.383  14.331  0.00  0.00    +0.000 A 
ATOM      4  C   UNL     1      47.628   6.715  13.055  0.00  0.00    +0.000 A 
ATOM      5  C   UNL     1      46.631   5.949  12.437  0.00  0.00    +0.000 A 
ATOM      6  C   UNL     1      46.105   4.851  13.131  0.00  0.00    +0.000 A 
ATOM      7  C   UNL     1      46.569   4.521  14.408  0.00  0.00    +0.000 A 
BRANCH   5   8
ATOM      8  C   UNL     1      46.081   6.337  11.082  0.00  0.00    +0.000 C 
BRANCH   8   9
ATOM      9  C   UNL     1      44.758   5.649  10.728  0.00  0.00    +0.000 C 
BRANCH   9  10
ATOM     10  C   UNL     1      44.977   4.476   9.808  0.00  0.00    +0.000 A 
ATOM     11  N   UNL     1      45.692   4.731   8.673  0.00  0.00    +0.000 NA
ATOM     12  C   UNL     1      45.886   3.682   7.839  0.00  0.00    +0.000 A 
ATOM     13  C   UNL     1      45.388   2.421   8.109  0.00  0.00    +0.000 A 
ATOM     14  N   UNL     1      44.668   2.150   9.219  0.00  0.00    +0.000 NA
ATOM     15  C   UNL     1      44.473   3.197  10.057  0.00  0.00    +0.000 A 
ATOM     16 CL   UNL     1      43.539   2.794  11.440  0.00  0.00    +0.000 Cl
ENDBRANCH   9  10
ENDBRANCH   8   9
ENDBRANCH   5   8
ENDBRANCH   1   2
BRANCH   1  19
ATOM     17  O   UNL     1      49.659   5.860  18.538  0.00  0.00    +0.000 OA
ATOM     18  C   UNL     1      48.584   6.411  18.319  0.00  0.00    +0.000 C 
ATOM     19  N   UNL     1      47.724   5.987  17.338  0.00  0.00    +0.000 N 
ATOM     20  H   UNL     1      46.953   6.587  17.068  0.00  0.00    +0.000 HD
BRANCH  18  21
ATOM     21  C   UNL     1      48.116   7.531  19.146  0.00  0.00    +0.000 A 
ATOM     22  C   UNL     1      47.897   7.340  20.504  0.00  0.00    +0.000 A 
ATOM     23  S   UNL     1      47.308   8.727  21.303  0.00  0.00    +0.000 S 
ATOM     24  C   UNL     1      47.378   9.648  19.874  0.00  0.00    +0.000 A 
ATOM     25  N   UNL     1      47.017  10.960  19.868  0.00  0.00    +0.000 NA
ATOM     26  C   UNL     1      47.166  11.549  18.729  0.00  0.00    +0.000 A 
ATOM     27  N   UNL     1      47.637  10.943  17.592  0.00  0.00    +0.000 N 
ATOM     28  C   UNL     1      47.943   9.605  17.534  0.00  0.00    +0.000 A 
ATOM     29  O   UNL     1      48.241   9.071  16.470  0.00  0.00    +0.000 OA
ATOM     30  C   UNL     1      47.828   8.904  18.798  0.00  0.00    +0.000 A 
ATOM     31  H   UNL     1      47.709  11.455  16.726  0.00  0.00    +0.000 HD
ENDBRANCH  18  21
ENDBRANCH   1  19
TORSDOF 6
ENDMDL
MODEL 5
REMARK VINA RESULT:    -6.886      3.993      8.458
REMARK INTER + INTRA:         -10.502
REMARK INTER:                  -9.789
REMARK INTRA:                  -0.713
REMARK UNBOUND:                -1.200
REMARK  Name = 
REMARK  6 active torsions:
REMARK  status: ('A' for Active; 'I' for Inactive)
REMARK    1  A    between atoms: C_2  and  C_20
REMARK    2  A    between atoms: N_3  and  C_4
REMARK    3  A    between atoms: C_4  and  C_5
REMARK    4  A    between atoms: C_8  and  C_9
REMARK    5  A    between atoms: C_9  and  C_10
REMARK    6  A    between atoms: C_10  and  C_11
REMARK                            x       y       z     vdW  Elec       q    Type
REMARK                         _______ _______ _______ _____ _____    ______ ____
ROOT
ATOM      1  C   UNL     1      48.227   7.658  13.802  0.00  0.00    +0.000 C 
ENDROOT
BRANCH   1   2
ATOM      2  C   UNL     1      47.328   6.722  13.036  0.00  0.00    +0.000 A 
ATOM      3  C   UNL     1      46.936   7.031  11.728  0.00  0.00    +0.000 A 
ATOM      4  C   UNL     1      46.076   6.183  11.022  0.00  0.00    +0.000 A 
ATOM      5  C   UNL     1      45.587   5.009  11.609  0.00  0.00    +0.000 A 
ATOM      6  C   UNL     1      45.970   4.709  12.923  0.00  0.00    +0.000 A 
ATOM      7  C   UNL     1      46.825   5.558  13.632  0.00  0.00    +0.000 A 
BRANCH   5   8
ATOM      8  C   UNL     1      44.613   4.118  10.870  0.00  0.00    +0.000 C 
BRANCH   8   9
ATOM      9  C   UNL     1      44.436   4.483   9.391  0.00  0.00    +0.000 C 
BRANCH   9  10
ATOM     10  C   UNL     1      45.445   3.775   8.525  0.00  0.00    +0.000 A 
ATOM     11  N   UNL     1      46.305   4.576   7.831  0.00  0.00    +0.000 NA
ATOM     12  C   UNL     1      47.209   3.946   7.046  0.00  0.00    +0.000 A 
ATOM     13  C   UNL     1      47.265   2.568   6.940  0.00  0.00    +0.000 A 
ATOM     14  N   UNL     1      46.417   1.757   7.609  0.00  0.00    +0.000 NA
ATOM     15  C   UNL     1      45.510   2.385   8.397  0.00  0.00    +0.000 A 
ATOM     16 CL   UNL     1      44.451   1.303   9.207  0.00  0.00    +0.000 Cl
ENDBRANCH   9  10
ENDBRANCH   8   9
ENDBRANCH   5   8
ENDBRANCH   1   2
BRANCH   1  19
ATOM     17  O   UNL     1      50.152   6.552  15.536  0.00  0.00    +0.000 OA
ATOM     18  C   UNL     1      49.099   6.973  16.006  0.00  0.00    +0.000 C 
ATOM     19  N   UNL     1      48.087   7.469  15.224  0.00  0.00    +0.000 N 
ATOM     20  H   UNL     1      47.331   7.981  15.665  0.00  0.00    +0.000 HD
BRANCH  18  21
ATOM     21  C   UNL     1      48.826   6.908  17.448  0.00  0.00    +0.000 A 
ATOM     22  C   UNL     1      48.586   8.078  18.157  0.00  0.00    +0.000 A 
ATOM     23  S   UNL     1      48.338   7.827  19.826  0.00  0.00    +0.000 S 
ATOM     24  C   UNL     1      48.487   6.141  19.651  0.00  0.00    +0.000 A 
ATOM     25  N   UNL     1      48.360   5.312  20.722  0.00  0.00    +0.000 NA
ATOM     26  C   UNL     1      48.446   4.056  20.437  0.00  0.00    +0.000 A 
ATOM     27  N   UNL     1      48.656   3.552  19.180  0.00  0.00    +0.000 N 
ATOM     28  C   UNL     1      48.863   4.353  18.083  0.00  0.00    +0.000 A 
ATOM     29  O   UNL     1      49.171   3.871  16.997  0.00  0.00    +0.000 OA
ATOM     30  C   UNL     1      48.739   5.775  18.341  0.00  0.00    +0.000 A 
ATOM     31  H   UNL     1      48.736   2.559  19.027  0.00  0.00    +0.000 HD
ENDBRANCH  18  21
ENDBRANCH   1  19
TORSDOF 6
ENDMDL
MODEL 6
REMARK VINA RESULT:    -6.787      3.067      4.448
REMARK INTER + INTRA:         -10.368
REMARK INTER:                  -9.163
REMARK INTRA:                  -1.206
REMARK UNBOUND:                -1.200
REMARK  Name = 
REMARK  6 active torsions:
REMARK  status: ('A' for Active; 'I' for Inactive)
REMARK    1  A    between atoms: C_2  and  C_20
REMARK    2  A    between atoms: N_3  and  C_4
REMARK    3  A    between atoms: C_4  and  C_5
REMARK    4  A    between atoms: C_8  and  C_9
REMARK    5  A    between atoms: C_9  and  C_10
REMARK    6  A    between atoms: C_10  and  C_11
REMARK                            x       y       z     vdW  Elec       q    Type
REMARK                         _______ _______ _______ _____ _____    ______ ____
ROOT
ATOM      1  C   UNL     1      47.247   3.592  16.846  0.00  0.00    +0.000 C 
ENDROOT
BRANCH   1   2
ATOM      2  C   UNL     1      48.720   3.669  17.153  0.00  0.00    +0.000 A 
ATOM      3  C   UNL     1      49.349   4.912  17.293  0.00  0.00    +0.000 A 
ATOM      4  C   UNL     1      50.723   4.991  17.547  0.00  0.00    +0.000 A 
ATOM      5  C   UNL     1      51.497   3.829  17.665  0.00  0.00    +0.000 A 
ATOM      6  C   UNL     1      50.868   2.587  17.510  0.00  0.00    +0.000 A 
ATOM      7  C   UNL     1      49.496   2.506  17.251  0.00  0.00    +0.000 A 
BRANCH   5   8
ATOM      8  C   UNL     1      52.992   3.912  17.884  0.00  0.00    +0.000 C 
BRANCH   8   9
ATOM      9  C   UNL     1      53.420   3.698  19.341  0.00  0.00    +0.000 C 
BRANCH   9  10
ATOM     10  C   UNL     1      53.577   5.010  20.065  0.00  0.00    +0.000 A 
ATOM     11  N   UNL     1      54.779   5.639  19.911  0.00  0.00    +0.000 NA
ATOM     12  C   UNL     1      54.929   6.814  20.565  0.00  0.00    +0.000 A 
ATOM     13  C   UNL     1      53.930   7.355  21.353  0.00  0.00    +0.000 A 
ATOM     14  N   UNL     1      52.738   6.744  21.529  0.00  0.00    +0.000 NA
ATOM     15  C   UNL     1      52.584   5.567  20.874  0.00  0.00    +0.000 A 
ATOM     16 CL   UNL     1      51.057   4.833  21.149  0.00  0.00    +0.000 Cl
ENDBRANCH   9  10
ENDBRANCH   8   9
ENDBRANCH   5   8
ENDBRANCH   1   2
BRANCH   1  19
ATOM     17  O   UNL     1      47.263   3.119  14.070  0.00  0.00    +0.000 OA
ATOM     18  C   UNL     1      46.861   4.201  14.487  0.00  0.00    +0.000 C 
ATOM     19  N   UNL     1      46.879   4.532  15.818  0.00  0.00    +0.000 N 
ATOM     20  H   UNL     1      46.360   5.346  16.128  0.00  0.00    +0.000 HD
BRANCH  18  21
ATOM     21  C   UNL     1      46.394   5.248  13.568  0.00  0.00    +0.000 A 
ATOM     22  C   UNL     1      47.235   6.303  13.239  0.00  0.00    +0.000 A 
ATOM     23  S   UNL     1      46.518   7.452  12.204  0.00  0.00    +0.000 S 
ATOM     24  C   UNL     1      45.076   6.554  12.115  0.00  0.00    +0.000 A 
ATOM     25  N   UNL     1      44.029   6.984  11.359  0.00  0.00    +0.000 NA
ATOM     26  C   UNL     1      43.018   6.181  11.342  0.00  0.00    +0.000 A 
ATOM     27  N   UNL     1      42.955   4.990  12.019  0.00  0.00    +0.000 N 
ATOM     28  C   UNL     1      43.958   4.553  12.851  0.00  0.00    +0.000 A 
ATOM     29  O   UNL     1      43.815   3.546  13.537  0.00  0.00    +0.000 OA
ATOM     30  C   UNL     1      45.134   5.401  12.876  0.00  0.00    +0.000 A 
ATOM     31  H   UNL     1      42.126   4.418  11.983  0.00  0.00    +0.000 HD
ENDBRANCH  18  21
ENDBRANCH   1  19
TORSDOF 6
ENDMDL
MODEL 7
REMARK VINA RESULT:    -6.687      4.303      8.886
REMARK INTER + INTRA:         -10.233
REMARK INTER:                  -9.079
REMARK INTRA:                  -1.153
REMARK UNBOUND:                -1.200
REMARK  Name = 
REMARK  6 active torsions:
REMARK  status: ('A' for Active; 'I' for Inactive)
REMARK    1  A    between atoms: C_2  and  C_20
REMARK    2  A    between atoms: N_3  and  C_4
REMARK    3  A    between atoms: C_4  and  C_5
REMARK    4  A    between atoms: C_8  and  C_9
REMARK    5  A    between atoms: C_9  and  C_10
REMARK    6  A    between atoms: C_10  and  C_11
REMARK                            x       y       z     vdW  Elec       q    Type
REMARK                         _______ _______ _______ _____ _____    ______ ____
ROOT
ATOM      1  C   UNL     1      47.380   4.325  15.865  0.00  0.00    +0.000 C 
ENDROOT
BRANCH   1   2
ATOM      2  C   UNL     1      46.938   4.826  14.515  0.00  0.00    +0.000 A 
ATOM      3  C   UNL     1      45.836   4.248  13.873  0.00  0.00    +0.000 A 
ATOM      4  C   UNL     1      45.438   4.686  12.605  0.00  0.00    +0.000 A 
ATOM      5  C   UNL     1      46.134   5.711  11.951  0.00  0.00    +0.000 A 
ATOM      6  C   UNL     1      47.245   6.278  12.590  0.00  0.00    +0.000 A 
ATOM      7  C   UNL     1      47.647   5.838  13.854  0.00  0.00    +0.000 A 
BRANCH   5   8
ATOM      8  C   UNL     1      45.742   6.150  10.557  0.00  0.00    +0.000 C 
BRANCH   8   9
ATOM      9  C   UNL     1      44.679   5.260   9.902  0.00  0.00    +0.000 C 
BRANCH   9  10
ATOM     10  C   UNL     1      45.309   4.172   9.072  0.00  0.00    +0.000 A 
ATOM     11  N   UNL     1      46.106   4.587   8.045  0.00  0.00    +0.000 NA
ATOM     12  C   UNL     1      46.669   3.613   7.292  0.00  0.00    +0.000 A 
ATOM     13  C   UNL     1      46.451   2.270   7.536  0.00  0.00    +0.000 A 
ATOM     14  N   UNL     1      45.656   1.837   8.539  0.00  0.00    +0.000 NA
ATOM     15  C   UNL     1      45.091   2.810   9.296  0.00  0.00    +0.000 A 
ATOM     16 CL   UNL     1      44.081   2.199  10.543  0.00  0.00    +0.000 Cl
ENDBRANCH   9  10
ENDBRANCH   8   9
ENDBRANCH   5   8
ENDBRANCH   1   2
BRANCH   1  19
ATOM     17  O   UNL     1      49.969   4.496  16.961  0.00  0.00    +0.000 OA
ATOM     18  C   UNL     1      49.190   5.431  17.126  0.00  0.00    +0.000 C 
ATOM     19  N   UNL     1      47.894   5.399  16.677  0.00  0.00    +0.000 N 
ATOM     20  H   UNL     1      47.358   6.260  16.661  0.00  0.00    +0.000 HD
BRANCH  18  21
ATOM     21  C   UNL     1      49.581   6.628  17.882  0.00  0.00    +0.000 A 
ATOM     22  C   UNL     1      50.686   7.367  17.480  0.00  0.00    +0.000 A 
ATOM     23  S   UNL     1      51.028   8.693  18.495  0.00  0.00    +0.000 S 
ATOM     24  C   UNL     1      49.679   8.360  19.478  0.00  0.00    +0.000 A 
ATOM     25  N   UNL     1      49.380   9.147  20.547  0.00  0.00    +0.000 NA
ATOM     26  C   UNL     1      48.303   8.809  21.173  0.00  0.00    +0.000 A 
ATOM     27  N   UNL     1      47.501   7.750  20.833  0.00  0.00    +0.000 N 
ATOM     28  C   UNL     1      47.804   6.886  19.808  0.00  0.00    +0.000 A 
ATOM     29  O   UNL     1      47.132   5.878  19.612  0.00  0.00    +0.000 OA
ATOM     30  C   UNL     1      48.986   7.243  19.047  0.00  0.00    +0.000 A 
ATOM     31  H   UNL     1      46.683   7.524  21.378  0.00  0.00    +0.000 HD
ENDBRANCH  18  21
ENDBRANCH   1  19
TORSDOF 6
ENDMDL
MODEL 8
REMARK VINA RESULT:    -6.665      2.987      4.381
REMARK INTER + INTRA:         -10.203
REMARK INTER:                  -8.976
REMARK INTRA:                  -1.227
REMARK UNBOUND:                -1.200
REMARK  Name = 
REMARK  6 active torsions:
REMARK  status: ('A' for Active; 'I' for Inactive)
REMARK    1  A    between atoms: C_2  and  C_20
REMARK    2  A    between atoms: N_3  and  C_4
REMARK    3  A    between atoms: C_4  and  C_5
REMARK    4  A    between atoms: C_8  and  C_9
REMARK    5  A    between atoms: C_9  and  C_10
REMARK    6  A    between atoms: C_10  and  C_11
REMARK                            x       y       z     vdW  Elec       q    Type
REMARK                         _______ _______ _______ _____ _____    ______ ____
ROOT
ATOM      1  C   UNL     1      46.983   3.415  16.848  0.00  0.00    +0.000 C 
ENDROOT
BRANCH   1   2
ATOM      2  C   UNL     1      48.417   3.565  17.285  0.00  0.00    +0.000 A 
ATOM      3  C   UNL     1      48.838   4.730  17.938  0.00  0.00    +0.000 A 
ATOM      4  C   UNL     1      50.174   4.890  18.320  0.00  0.00    +0.000 A 
ATOM      5  C   UNL     1      51.119   3.890  18.056  0.00  0.00    +0.000 A 
ATOM      6  C   UNL     1      50.698   2.732  17.389  0.00  0.00    +0.000 A 
ATOM      7  C   UNL     1      49.364   2.572  17.003  0.00  0.00    +0.000 A 
BRANCH   5   8
ATOM      8  C   UNL     1      52.576   4.083  18.416  0.00  0.00    +0.000 C 
BRANCH   8   9
ATOM      9  C   UNL     1      53.024   5.550  18.427  0.00  0.00    +0.000 C 
BRANCH   9  10
ATOM     10  C   UNL     1      53.566   5.969  17.085  0.00  0.00    +0.000 A 
ATOM     11  N   UNL     1      54.728   5.369  16.694  0.00  0.00    +0.000 NA
ATOM     12  C   UNL     1      55.223   5.748  15.493  0.00  0.00    +0.000 A 
ATOM     13  C   UNL     1      54.599   6.692  14.700  0.00  0.00    +0.000 A 
ATOM     14  N   UNL     1      53.455   7.307  15.073  0.00  0.00    +0.000 NA
ATOM     15  C   UNL     1      52.956   6.930  16.275  0.00  0.00    +0.000 A 
ATOM     16 CL   UNL     1      51.512   7.757  16.700  0.00  0.00    +0.000 Cl
ENDBRANCH   9  10
ENDBRANCH   8   9
ENDBRANCH   5   8
ENDBRANCH   1   2
BRANCH   1  19
ATOM     17  O   UNL     1      47.336   3.097  14.072  0.00  0.00    +0.000 OA
ATOM     18  C   UNL     1      46.798   4.118  14.491  0.00  0.00    +0.000 C 
ATOM     19  N   UNL     1      46.644   4.376  15.829  0.00  0.00    +0.000 N 
ATOM     20  H   UNL     1      46.025   5.126  16.117  0.00  0.00    +0.000 HD
BRANCH  18  21
ATOM     21  C   UNL     1      46.340   5.172  13.575  0.00  0.00    +0.000 A 
ATOM     22  C   UNL     1      47.201   6.204  13.225  0.00  0.00    +0.000 A 
ATOM     23  S   UNL     1      46.493   7.365  12.197  0.00  0.00    +0.000 S 
ATOM     24  C   UNL     1      45.028   6.503  12.138  0.00  0.00    +0.000 A 
ATOM     25  N   UNL     1      43.979   6.954  11.399  0.00  0.00    +0.000 NA
ATOM     26  C   UNL     1      42.948   6.177  11.405  0.00  0.00    +0.000 A 
ATOM     27  N   UNL     1      42.868   4.991  12.090  0.00  0.00    +0.000 N 
ATOM     28  C   UNL     1      43.874   4.534  12.906  0.00  0.00    +0.000 A 
ATOM     29  O   UNL     1      43.720   3.534  13.600  0.00  0.00    +0.000 OA
ATOM     30  C   UNL     1      45.072   5.353  12.905  0.00  0.00    +0.000 A 
ATOM     31  H   UNL     1      42.024   4.440  12.072  0.00  0.00    +0.000 HD
ENDBRANCH  18  21
ENDBRANCH   1  19
TORSDOF 6
ENDMDL
MODEL 9
REMARK VINA RESULT:    -6.660      2.097      2.588
REMARK INTER + INTRA:         -10.197
REMARK INTER:                  -8.689
REMARK INTRA:                  -1.507
REMARK UNBOUND:                -1.200
REMARK  Name = 
REMARK  6 active torsions:
REMARK  status: ('A' for Active; 'I' for Inactive)
REMARK    1  A    between atoms: C_2  and  C_20
REMARK    2  A    between atoms: N_3  and  C_4
REMARK    3  A    between atoms: C_4  and  C_5
REMARK    4  A    between atoms: C_8  and  C_9
REMARK    5  A    between atoms: C_9  and  C_10
REMARK    6  A    between atoms: C_10  and  C_11
REMARK                            x       y       z     vdW  Elec       q    Type
REMARK                         _______ _______ _______ _____ _____    ______ ____
ROOT
ATOM      1  C   UNL     1      48.093   9.178  14.739  0.00  0.00    +0.000 C 
ENDROOT
BRANCH   1   2
ATOM      2  C   UNL     1      48.854   8.340  15.734  0.00  0.00    +0.000 A 
ATOM      3  C   UNL     1      49.837   7.444  15.298  0.00  0.00    +0.000 A 
ATOM      4  C   UNL     1      50.526   6.640  16.213  0.00  0.00    +0.000 A 
ATOM      5  C   UNL     1      50.244   6.713  17.584  0.00  0.00    +0.000 A 
ATOM      6  C   UNL     1      49.250   7.600  18.016  0.00  0.00    +0.000 A 
ATOM      7  C   UNL     1      48.557   8.401  17.102  0.00  0.00    +0.000 A 
BRANCH   5   8
ATOM      8  C   UNL     1      50.946   5.806  18.570  0.00  0.00    +0.000 C 
BRANCH   8   9
ATOM      9  C   UNL     1      50.035   4.742  19.194  0.00  0.00    +0.000 C 
BRANCH   9  10
ATOM     10  C   UNL     1      49.398   3.876  18.139  0.00  0.00    +0.000 A 
ATOM     11  N   UNL     1      48.071   4.093  17.906  0.00  0.00    +0.000 NA
ATOM     12  C   UNL     1      47.492   3.313  16.964  0.00  0.00    +0.000 A 
ATOM     13  C   UNL     1      48.194   2.342  16.274  0.00  0.00    +0.000 A 
ATOM     14  N   UNL     1      49.504   2.102  16.497  0.00  0.00    +0.000 NA
ATOM     15  C   UNL     1      50.088   2.883  17.439  0.00  0.00    +0.000 A 
ATOM     16 CL   UNL     1      51.747   2.519  17.688  0.00  0.00    +0.000 Cl
ENDBRANCH   9  10
ENDBRANCH   8   9
ENDBRANCH   5   8
ENDBRANCH   1   2
BRANCH   1  19
ATOM     17  O   UNL     1      48.120   8.052  12.158  0.00  0.00    +0.000 OA
ATOM     18  C   UNL     1      47.147   7.860  12.881  0.00  0.00    +0.000 C 
ATOM     19  N   UNL     1      47.030   8.423  14.126  0.00  0.00    +0.000 N 
ATOM     20  H   UNL     1      46.313   8.079  14.755  0.00  0.00    +0.000 HD
BRANCH  18  21
ATOM     21  C   UNL     1      46.002   7.060  12.426  0.00  0.00    +0.000 A 
ATOM     22  C   UNL     1      44.961   7.673  11.740  0.00  0.00    +0.000 A 
ATOM     23  S   UNL     1      43.693   6.609  11.330  0.00  0.00    +0.000 S 
ATOM     24  C   UNL     1      44.513   5.281  12.007  0.00  0.00    +0.000 A 
ATOM     25  N   UNL     1      43.971   4.033  11.976  0.00  0.00    +0.000 NA
ATOM     26  C   UNL     1      44.722   3.113  12.479  0.00  0.00    +0.000 A 
ATOM     27  N   UNL     1      45.964   3.327  13.019  0.00  0.00    +0.000 N 
ATOM     28  C   UNL     1      46.519   4.578  13.138  0.00  0.00    +0.000 A 
ATOM     29  O   UNL     1      47.576   4.747  13.738  0.00  0.00    +0.000 OA
ATOM     30  C   UNL     1      45.731   5.645  12.552  0.00  0.00    +0.000 A 
ATOM     31  H   UNL     1      46.493   2.566  13.418  0.00  0.00    +0.000 HD
ENDBRANCH  18  21
ENDBRANCH   1  19
TORSDOF 6
ENDMDL
