MODEL 1
REMARK VINA RESULT:    -8.064      0.000      0.000
REMARK INTER + INTRA:         -11.097
REMARK INTER:                 -10.421
REMARK INTRA:                  -0.677
REMARK UNBOUND:                -0.677
REMARK  Name = 
REMARK  6 active torsions:
REMARK  status: ('A' for Active; 'I' for Inactive)
REMARK    1  A    between atoms: C_1  and  C_2
REMARK    2  A    between atoms: C_2  and  N_3
REMARK    3  A    between atoms: C_2  and  C_16
REMARK    4  A    between atoms: C_4  and  C_6
REMARK    5  A    between atoms: C_19  and  O_20
REMARK    6  A    between atoms: O_20  and  C_21
REMARK                            x       y       z     vdW  Elec       q    Type
REMARK                         _______ _______ _______ _____ _____    ______ ____
ROOT
ATOM      1  C   UNL     1      45.454   8.807  12.955  0.00  0.00    +0.000 C 
ATOM      2  C   UNL     1      46.508   7.719  12.738  0.00  0.00    +0.000 C 
ENDROOT
BRANCH   2   3
ATOM      3  C   UNL     1      45.996   6.601  11.848  0.00  0.00    +0.000 A 
ATOM      4  C   UNL     1      45.043   5.708  12.356  0.00  0.00    +0.000 A 
ATOM      5  C   UNL     1      44.503   4.707  11.551  0.00  0.00    +0.000 A 
ATOM      6  C   UNL     1      44.877   4.607  10.207  0.00  0.00    +0.000 A 
ATOM      7  C   UNL     1      45.860   5.457   9.701  0.00  0.00    +0.000 A 
ATOM      8  C   UNL     1      46.415   6.449  10.514  0.00  0.00    +0.000 A 
BRANCH   6   9
ATOM      9  O   UNL     1      44.372   3.656   9.345  0.00  0.00    +0.000 OA
BRANCH   9  10
ATOM     10  C   UNL     1      45.260   2.993   8.509  0.00  0.00    +0.000 A 
ATOM     11  C   UNL     1      45.561   1.674   8.814  0.00  0.00    +0.000 A 
ATOM     12  N   UNL     1      46.392   0.918   8.050  0.00  0.00    +0.000 NA
ATOM     13  C   UNL     1      46.918   1.549   6.975  0.00  0.00    +0.000 A 
ATOM     14  C   UNL     1      46.640   2.875   6.685  0.00  0.00    +0.000 A 
ATOM     15  N   UNL     1      45.821   3.629   7.450  0.00  0.00    +0.000 NA
ENDBRANCH   9  10
ENDBRANCH   6   9
ENDBRANCH   2   3
BRANCH   2  16
ATOM     16  N   UNL     1      46.989   7.181  13.998  0.00  0.00    +0.000 N 
ATOM     17  C   UNL     1      48.312   6.883  14.203  0.00  0.00    +0.000 C 
ATOM     18  O   UNL     1      49.163   7.075  13.338  0.00  0.00    +0.000 OA
ATOM     19  H   UNL     1      46.295   6.899  14.683  0.00  0.00    +0.000 HD
BRANCH  17  20
ATOM     20  C   UNL     1      48.683   6.361  15.525  0.00  0.00    +0.000 A 
ATOM     21  C   UNL     1      49.650   7.025  16.270  0.00  0.00    +0.000 A 
ATOM     22  S   UNL     1      49.980   6.298  17.775  0.00  0.00    +0.000 S 
ATOM     23  C   UNL     1      48.874   5.041  17.470  0.00  0.00    +0.000 A 
ATOM     24  N   UNL     1      48.703   4.032  18.365  0.00  0.00    +0.000 NA
ATOM     25  C   UNL     1      47.869   3.122  17.987  0.00  0.00    +0.000 A 
ATOM     26  N   UNL     1      47.176   3.140  16.805  0.00  0.00    +0.000 N 
ATOM     27  C   UNL     1      47.258   4.181  15.909  0.00  0.00    +0.000 A 
ATOM     28  O   UNL     1      46.523   4.236  14.929  0.00  0.00    +0.000 OA
ATOM     29  C   UNL     1      48.231   5.198  16.254  0.00  0.00    +0.000 A 
ATOM     30  H   UNL     1      46.509   2.415  16.584  0.00  0.00    +0.000 HD
ENDBRANCH  17  20
ENDBRANCH   2  16
TORSDOF 5
ENDMDL
MODEL 2
REMARK VINA RESULT:    -7.393      3.260      7.772
REMARK INTER + INTRA:         -10.231
REMARK INTER:                  -9.328
REMARK INTRA:                  -0.903
REMARK UNBOUND:                -0.677
REMARK  Name = 
REMARK  6 active torsions:
REMARK  status: ('A' for Active; 'I' for Inactive)
REMARK    1  A    between atoms: C_1  and  C_2
REMARK    2  A    between atoms: C_2  and  N_3
REMARK    3  A    between atoms: C_2  and  C_16
REMARK    4  A    between atoms: C_4  and  C_6
REMARK    5  A    between atoms: C_19  and  O_20
REMARK    6  A    between atoms: O_20  and  C_21
REMARK                            x       y       z     vdW  Elec       q    Type
REMARK                         _______ _______ _______ _____ _____    ______ ____
ROOT
ATOM      1  C   UNL     1      49.479   7.898  12.564  0.00  0.00    +0.000 C 
ATOM      2  C   UNL     1      48.309   7.316  13.359  0.00  0.00    +0.000 C 
ENDROOT
BRANCH   2   3
ATOM      3  C   UNL     1      48.764   6.690  14.664  0.00  0.00    +0.000 A 
ATOM      4  C   UNL     1      47.971   5.697  15.256  0.00  0.00    +0.000 A 
ATOM      5  C   UNL     1      48.386   5.053  16.421  0.00  0.00    +0.000 A 
ATOM      6  C   UNL     1      49.623   5.362  16.993  0.00  0.00    +0.000 A 
ATOM      7  C   UNL     1      50.400   6.381  16.444  0.00  0.00    +0.000 A 
ATOM      8  C   UNL     1      49.976   7.040  15.285  0.00  0.00    +0.000 A 
BRANCH   6   9
ATOM      9  O   UNL     1      50.108   4.755  18.132  0.00  0.00    +0.000 OA
BRANCH   9  10
ATOM     10  C   UNL     1      50.881   3.611  17.985  0.00  0.00    +0.000 A 
ATOM     11  C   UNL     1      50.284   2.507  17.394  0.00  0.00    +0.000 A 
ATOM     12  N   UNL     1      50.952   1.345  17.173  0.00  0.00    +0.000 NA
ATOM     13  C   UNL     1      52.241   1.336  17.584  0.00  0.00    +0.000 A 
ATOM     14  C   UNL     1      52.831   2.428  18.201  0.00  0.00    +0.000 A 
ATOM     15  N   UNL     1      52.164   3.579  18.429  0.00  0.00    +0.000 NA
ENDBRANCH   9  10
ENDBRANCH   6   9
ENDBRANCH   2   3
BRANCH   2  16
ATOM     16  N   UNL     1      47.553   6.355  12.575  0.00  0.00    +0.000 N 
ATOM     17  C   UNL     1      46.455   6.720  11.840  0.00  0.00    +0.000 C 
ATOM     18  O   UNL     1      46.064   7.884  11.790  0.00  0.00    +0.000 OA
ATOM     19  H   UNL     1      47.779   5.372  12.695  0.00  0.00    +0.000 HD
BRANCH  17  20
ATOM     20  C   UNL     1      45.782   5.664  11.072  0.00  0.00    +0.000 A 
ATOM     21  C   UNL     1      45.845   5.688   9.684  0.00  0.00    +0.000 A 
ATOM     22  S   UNL     1      45.012   4.406   8.934  0.00  0.00    +0.000 S 
ATOM     23  C   UNL     1      44.497   3.792  10.435  0.00  0.00    +0.000 A 
ATOM     24  N   UNL     1      43.690   2.699  10.501  0.00  0.00    +0.000 NA
ATOM     25  C   UNL     1      43.338   2.370  11.698  0.00  0.00    +0.000 A 
ATOM     26  N   UNL     1      43.735   3.022  12.836  0.00  0.00    +0.000 N 
ATOM     27  C   UNL     1      44.614   4.079  12.821  0.00  0.00    +0.000 A 
ATOM     28  O   UNL     1      45.060   4.552  13.861  0.00  0.00    +0.000 OA
ATOM     29  C   UNL     1      44.990   4.533  11.497  0.00  0.00    +0.000 A 
ATOM     30  H   UNL     1      43.453   2.691  13.748  0.00  0.00    +0.000 HD
ENDBRANCH  17  20
ENDBRANCH   2  16
TORSDOF 5
ENDMDL
MODEL 3
REMARK VINA RESULT:    -7.344      2.674      4.067
REMARK INTER + INTRA:         -10.167
REMARK INTER:                  -9.244
REMARK INTRA:                  -0.923
REMARK UNBOUND:                -0.677
REMARK  Name = 
REMARK  6 active torsions:
REMARK  status: ('A' for Active; 'I' for Inactive)
REMARK    1  A    between atoms: C_1  and  C_2
REMARK    2  A    between atoms: C_2  and  N_3
REMARK    3  A    between atoms: C_2  and  C_16
REMARK    4  A    between atoms: C_4  and  C_6
REMARK    5  A    between atoms: C_19  and  O_20
REMARK    6  A    between atoms: O_20  and  C_21
REMARK                            x       y       z     vdW  Elec       q    Type
REMARK                         _______ _______ _______ _____ _____    ______ ____
ROOT
ATOM      1  C   UNL     1      46.609   4.645  14.679  0.00  0.00    +0.000 C 
ATOM      2  C   UNL     1      46.282   5.656  13.579  0.00  0.00    +0.000 C 
ENDROOT
BRANCH   2   3
ATOM      3  C   UNL     1      45.779   4.980  12.317  0.00  0.00    +0.000 A 
ATOM      4  C   UNL     1      45.811   5.688  11.107  0.00  0.00    +0.000 A 
ATOM      5  C   UNL     1      45.417   5.081   9.915  0.00  0.00    +0.000 A 
ATOM      6  C   UNL     1      45.022   3.739   9.906  0.00  0.00    +0.000 A 
ATOM      7  C   UNL     1      44.939   3.038  11.109  0.00  0.00    +0.000 A 
ATOM      8  C   UNL     1      45.317   3.652  12.306  0.00  0.00    +0.000 A 
BRANCH   6   9
ATOM      9  O   UNL     1      44.638   3.067   8.766  0.00  0.00    +0.000 OA
BRANCH   9  10
ATOM     10  C   UNL     1      45.622   2.705   7.855  0.00  0.00    +0.000 A 
ATOM     11  C   UNL     1      46.276   1.500   8.066  0.00  0.00    +0.000 A 
ATOM     12  N   UNL     1      47.234   1.031   7.225  0.00  0.00    +0.000 NA
ATOM     13  C   UNL     1      47.516   1.831   6.171  0.00  0.00    +0.000 A 
ATOM     14  C   UNL     1      46.884   3.049   5.975  0.00  0.00    +0.000 A 
ATOM     15  N   UNL     1      45.938   3.519   6.816  0.00  0.00    +0.000 NA
ENDBRANCH   9  10
ENDBRANCH   6   9
ENDBRANCH   2   3
BRANCH   2  16
ATOM     16  N   UNL     1      47.421   6.505  13.277  0.00  0.00    +0.000 N 
ATOM     17  C   UNL     1      47.308   7.869  13.193  0.00  0.00    +0.000 C 
ATOM     18  O   UNL     1      46.241   8.446  13.388  0.00  0.00    +0.000 OA
ATOM     19  H   UNL     1      48.283   6.050  12.992  0.00  0.00    +0.000 HD
BRANCH  17  20
ATOM     20  C   UNL     1      48.532   8.626  12.899  0.00  0.00    +0.000 A 
ATOM     21  C   UNL     1      48.492   9.644  11.955  0.00  0.00    +0.000 A 
ATOM     22  S   UNL     1      49.987  10.424  11.717  0.00  0.00    +0.000 S 
ATOM     23  C   UNL     1      50.759   9.401  12.836  0.00  0.00    +0.000 A 
ATOM     24  N   UNL     1      52.093   9.510  13.075  0.00  0.00    +0.000 NA
ATOM     25  C   UNL     1      52.557   8.643  13.911  0.00  0.00    +0.000 A 
ATOM     26  N   UNL     1      51.804   7.688  14.544  0.00  0.00    +0.000 N 
ATOM     27  C   UNL     1      50.440   7.595  14.394  0.00  0.00    +0.000 A 
ATOM     28  O   UNL     1      49.776   6.824  15.078  0.00  0.00    +0.000 OA
ATOM     29  C   UNL     1      49.877   8.504  13.415  0.00  0.00    +0.000 A 
ATOM     30  H   UNL     1      52.221   7.062  15.217  0.00  0.00    +0.000 HD
ENDBRANCH  17  20
ENDBRANCH   2  16
TORSDOF 5
ENDMDL
MODEL 4
REMARK VINA RESULT:    -7.248      2.310      2.967
REMARK INTER + INTRA:         -10.043
REMARK INTER:                  -8.990
REMARK INTRA:                  -1.053
REMARK UNBOUND:                -0.677
REMARK  Name = 
REMARK  6 active torsions:
REMARK  status: ('A' for Active; 'I' for Inactive)
REMARK    1  A    between atoms: C_1  and  C_2
REMARK    2  A    between atoms: C_2  and  N_3
REMARK    3  A    between atoms: C_2  and  C_16
REMARK    4  A    between atoms: C_4  and  C_6
REMARK    5  A    between atoms: C_19  and  O_20
REMARK    6  A    between atoms: O_20  and  C_21
REMARK                            x       y       z     vdW  Elec       q    Type
REMARK                         _______ _______ _______ _____ _____    ______ ____
ROOT
ATOM      1  C   UNL     1      47.975   9.036  14.067  0.00  0.00    +0.000 C 
ATOM      2  C   UNL     1      48.117   7.513  14.088  0.00  0.00    +0.000 C 
ENDROOT
BRANCH   2   3
ATOM      3  C   UNL     1      47.105   6.834  13.182  0.00  0.00    +0.000 A 
ATOM      4  C   UNL     1      46.474   7.587  12.182  0.00  0.00    +0.000 A 
ATOM      5  C   UNL     1      45.587   6.986  11.290  0.00  0.00    +0.000 A 
ATOM      6  C   UNL     1      45.347   5.610  11.357  0.00  0.00    +0.000 A 
ATOM      7  C   UNL     1      45.930   4.858  12.377  0.00  0.00    +0.000 A 
ATOM      8  C   UNL     1      46.805   5.464  13.282  0.00  0.00    +0.000 A 
BRANCH   6   9
ATOM      9  O   UNL     1      44.499   4.943  10.499  0.00  0.00    +0.000 OA
BRANCH   9  10
ATOM     10  C   UNL     1      45.060   4.122   9.529  0.00  0.00    +0.000 A 
ATOM     11  C   UNL     1      44.892   2.754   9.674  0.00  0.00    +0.000 A 
ATOM     12  N   UNL     1      45.371   1.858   8.773  0.00  0.00    +0.000 NA
ATOM     13  C   UNL     1      46.038   2.397   7.726  0.00  0.00    +0.000 A 
ATOM     14  C   UNL     1      46.232   3.763   7.594  0.00  0.00    +0.000 A 
ATOM     15  N   UNL     1      45.763   4.652   8.496  0.00  0.00    +0.000 NA
ENDBRANCH   9  10
ENDBRANCH   6   9
ENDBRANCH   2   3
BRANCH   2  16
ATOM     16  N   UNL     1      48.019   6.984  15.437  0.00  0.00    +0.000 N 
ATOM     17  C   UNL     1      49.105   6.467  16.096  0.00  0.00    +0.000 C 
ATOM     18  O   UNL     1      50.222   6.442  15.586  0.00  0.00    +0.000 OA
ATOM     19  H   UNL     1      47.090   6.880  15.834  0.00  0.00    +0.000 HD
BRANCH  17  20
ATOM     20  C   UNL     1      48.888   5.978  17.464  0.00  0.00    +0.000 A 
ATOM     21  C   UNL     1      49.126   4.640  17.753  0.00  0.00    +0.000 A 
ATOM     22  S   UNL     1      48.824   4.222  19.376  0.00  0.00    +0.000 S 
ATOM     23  C   UNL     1      48.320   5.804  19.746  0.00  0.00    +0.000 A 
ATOM     24  N   UNL     1      47.876   6.120  20.992  0.00  0.00    +0.000 NA
ATOM     25  C   UNL     1      47.481   7.343  21.122  0.00  0.00    +0.000 A 
ATOM     26  N   UNL     1      47.509   8.282  20.124  0.00  0.00    +0.000 N 
ATOM     27  C   UNL     1      48.025   8.028  18.875  0.00  0.00    +0.000 A 
ATOM     28  O   UNL     1      48.165   8.923  18.050  0.00  0.00    +0.000 OA
ATOM     29  C   UNL     1      48.422   6.651  18.655  0.00  0.00    +0.000 A 
ATOM     30  H   UNL     1      47.220   9.233  20.301  0.00  0.00    +0.000 HD
ENDBRANCH  17  20
ENDBRANCH   2  16
TORSDOF 5
ENDMDL
MODEL 5
REMARK VINA RESULT:    -7.243      2.208      2.994
REMARK INTER + INTRA:         -10.036
REMARK INTER:                  -9.371
REMARK INTRA:                  -0.665
REMARK UNBOUND:                -0.677
REMARK  Name = 
REMARK  6 active torsions:
REMARK  status: ('A' for Active; 'I' for Inactive)
REMARK    1  A    between atoms: C_1  and  C_2
REMARK    2  A    between atoms: C_2  and  N_3
REMARK    3  A    between atoms: C_2  and  C_16
REMARK    4  A    between atoms: C_4  and  C_6
REMARK    5  A    between atoms: C_19  and  O_20
REMARK    6  A    between atoms: O_20  and  C_21
REMARK                            x       y       z     vdW  Elec       q    Type
REMARK                         _______ _______ _______ _____ _____    ______ ____
ROOT
ATOM      1  C   UNL     1      49.238   8.376  13.570  0.00  0.00    +0.000 C 
ATOM      2  C   UNL     1      48.774   7.041  14.155  0.00  0.00    +0.000 C 
ENDROOT
BRANCH   2   3
ATOM      3  C   UNL     1      47.631   6.438  13.359  0.00  0.00    +0.000 A 
ATOM      4  C   UNL     1      47.155   7.116  12.229  0.00  0.00    +0.000 A 
ATOM      5  C   UNL     1      46.151   6.563  11.436  0.00  0.00    +0.000 A 
ATOM      6  C   UNL     1      45.631   5.301  11.738  0.00  0.00    +0.000 A 
ATOM      7  C   UNL     1      46.059   4.637  12.886  0.00  0.00    +0.000 A 
ATOM      8  C   UNL     1      47.055   5.199  13.691  0.00  0.00    +0.000 A 
BRANCH   6   9
ATOM      9  O   UNL     1      44.651   4.683  10.990  0.00  0.00    +0.000 OA
BRANCH   9  10
ATOM     10  C   UNL     1      45.042   3.938   9.885  0.00  0.00    +0.000 A 
ATOM     11  C   UNL     1      45.488   4.633   8.771  0.00  0.00    +0.000 A 
ATOM     12  N   UNL     1      45.922   4.009   7.645  0.00  0.00    +0.000 NA
ATOM     13  C   UNL     1      45.877   2.658   7.683  0.00  0.00    +0.000 A 
ATOM     14  C   UNL     1      45.405   1.962   8.785  0.00  0.00    +0.000 A 
ATOM     15  N   UNL     1      44.964   2.583   9.900  0.00  0.00    +0.000 NA
ENDBRANCH   9  10
ENDBRANCH   6   9
ENDBRANCH   2   3
BRANCH   2  16
ATOM     16  N   UNL     1      48.401   7.170  15.553  0.00  0.00    +0.000 N 
ATOM     17  C   UNL     1      49.187   6.677  16.563  0.00  0.00    +0.000 C 
ATOM     18  O   UNL     1      50.258   6.117  16.339  0.00  0.00    +0.000 OA
ATOM     19  H   UNL     1      47.469   7.516  15.760  0.00  0.00    +0.000 HD
BRANCH  17  20
ATOM     20  C   UNL     1      48.716   6.883  17.939  0.00  0.00    +0.000 A 
ATOM     21  C   UNL     1      48.364   8.162  18.353  0.00  0.00    +0.000 A 
ATOM     22  S   UNL     1      47.846   8.244  19.973  0.00  0.00    +0.000 S 
ATOM     23  C   UNL     1      48.115   6.579  20.199  0.00  0.00    +0.000 A 
ATOM     24  N   UNL     1      47.905   5.998  21.411  0.00  0.00    +0.000 NA
ATOM     25  C   UNL     1      48.192   4.740  21.454  0.00  0.00    +0.000 A 
ATOM     26  N   UNL     1      48.652   4.007  20.391  0.00  0.00    +0.000 N 
ATOM     27  C   UNL     1      48.800   4.535  19.130  0.00  0.00    +0.000 A 
ATOM     28  O   UNL     1      49.077   3.824  18.171  0.00  0.00    +0.000 OA
ATOM     29  C   UNL     1      48.554   5.961  19.040  0.00  0.00    +0.000 A 
ATOM     30  H   UNL     1      48.822   3.016  20.481  0.00  0.00    +0.000 HD
ENDBRANCH  17  20
ENDBRANCH   2  16
TORSDOF 5
ENDMDL
MODEL 6
REMARK VINA RESULT:    -7.154      3.424      5.364
REMARK INTER + INTRA:          -9.921
REMARK INTER:                  -8.723
REMARK INTRA:                  -1.198
REMARK UNBOUND:                -0.677
REMARK  Name = 
REMARK  6 active torsions:
REMARK  status: ('A' for Active; 'I' for Inactive)
REMARK    1  A    between atoms: C_1  and  C_2
REMARK    2  A    between atoms: C_2  and  N_3
REMARK    3  A    between atoms: C_2  and  C_16
REMARK    4  A    between atoms: C_4  and  C_6
REMARK    5  A    between atoms: C_19  and  O_20
REMARK    6  A    between atoms: O_20  and  C_21
REMARK                            x       y       z     vdW  Elec       q    Type
REMARK                         _______ _______ _______ _____ _____    ______ ____
ROOT
ATOM      1  C   UNL     1      48.283   6.763  18.460  0.00  0.00    +0.000 C 
ATOM      2  C   UNL     1      49.128   6.198  17.317  0.00  0.00    +0.000 C 
ENDROOT
BRANCH   2   3
ATOM      3  C   UNL     1      48.275   5.526  16.256  0.00  0.00    +0.000 A 
ATOM      4  C   UNL     1      48.098   6.162  15.020  0.00  0.00    +0.000 A 
ATOM      5  C   UNL     1      47.375   5.549  13.999  0.00  0.00    +0.000 A 
ATOM      6  C   UNL     1      46.847   4.267  14.182  0.00  0.00    +0.000 A 
ATOM      7  C   UNL     1      46.973   3.642  15.423  0.00  0.00    +0.000 A 
ATOM      8  C   UNL     1      47.684   4.265  16.453  0.00  0.00    +0.000 A 
BRANCH   6   9
ATOM      9  O   UNL     1      46.138   3.589  13.213  0.00  0.00    +0.000 OA
BRANCH   9  10
ATOM     10  C   UNL     1      44.998   4.190  12.696  0.00  0.00    +0.000 A 
ATOM     11  C   UNL     1      44.999   4.508  11.346  0.00  0.00    +0.000 A 
ATOM     12  N   UNL     1      43.930   5.070  10.726  0.00  0.00    +0.000 NA
ATOM     13  C   UNL     1      42.864   5.311  11.524  0.00  0.00    +0.000 A 
ATOM     14  C   UNL     1      42.871   5.020  12.879  0.00  0.00    +0.000 A 
ATOM     15  N   UNL     1      43.938   4.470  13.497  0.00  0.00    +0.000 NA
ENDBRANCH   9  10
ENDBRANCH   6   9
ENDBRANCH   2   3
BRANCH   2  16
ATOM     16  N   UNL     1      50.142   5.279  17.803  0.00  0.00    +0.000 N 
ATOM     17  C   UNL     1      51.425   5.290  17.320  0.00  0.00    +0.000 C 
ATOM     18  O   UNL     1      51.790   6.092  16.463  0.00  0.00    +0.000 OA
ATOM     19  H   UNL     1      49.840   4.530  18.419  0.00  0.00    +0.000 HD
BRANCH  17  20
ATOM     20  C   UNL     1      52.369   4.327  17.903  0.00  0.00    +0.000 A 
ATOM     21  C   UNL     1      53.510   4.795  18.542  0.00  0.00    +0.000 A 
ATOM     22  S   UNL     1      54.510   3.561  19.158  0.00  0.00    +0.000 S 
ATOM     23  C   UNL     1      53.478   2.350  18.555  0.00  0.00    +0.000 A 
ATOM     24  N   UNL     1      53.785   1.034  18.706  0.00  0.00    +0.000 NA
ATOM     25  C   UNL     1      52.940   0.224  18.162  0.00  0.00    +0.000 A 
ATOM     26  N   UNL     1      51.806   0.611  17.496  0.00  0.00    +0.000 N 
ATOM     27  C   UNL     1      51.415   1.926  17.391  0.00  0.00    +0.000 A 
ATOM     28  O   UNL     1      50.327   2.230  16.914  0.00  0.00    +0.000 OA
ATOM     29  C   UNL     1      52.363   2.882  17.929  0.00  0.00    +0.000 A 
ATOM     30  H   UNL     1      51.165  -0.074  17.124  0.00  0.00    +0.000 HD
ENDBRANCH  17  20
ENDBRANCH   2  16
TORSDOF 5
ENDMDL
MODEL 7
REMARK VINA RESULT:    -6.819      2.880      8.471
REMARK INTER + INTRA:          -9.489
REMARK INTER:                  -8.360
REMARK INTRA:                  -1.129
REMARK UNBOUND:                -0.677
REMARK  Name = 
REMARK  6 active torsions:
REMARK  status: ('A' for Active; 'I' for Inactive)
REMARK    1  A    between atoms: C_1  and  C_2
REMARK    2  A    between atoms: C_2  and  N_3
REMARK    3  A    between atoms: C_2  and  C_16
REMARK    4  A    between atoms: C_4  and  C_6
REMARK    5  A    between atoms: C_19  and  O_20
REMARK    6  A    between atoms: O_20  and  C_21
REMARK                            x       y       z     vdW  Elec       q    Type
REMARK                         _______ _______ _______ _____ _____    ______ ____
ROOT
ATOM      1  C   UNL     1      49.059   7.921  11.414  0.00  0.00    +0.000 C 
ATOM      2  C   UNL     1      47.835   7.810  12.324  0.00  0.00    +0.000 C 
ENDROOT
BRANCH   2   3
ATOM      3  C   UNL     1      48.212   7.862  13.794  0.00  0.00    +0.000 A 
ATOM      4  C   UNL     1      48.933   6.797  14.350  0.00  0.00    +0.000 A 
ATOM      5  C   UNL     1      49.353   6.837  15.679  0.00  0.00    +0.000 A 
ATOM      6  C   UNL     1      49.092   7.963  16.465  0.00  0.00    +0.000 A 
ATOM      7  C   UNL     1      48.335   9.009  15.940  0.00  0.00    +0.000 A 
ATOM      8  C   UNL     1      47.899   8.962  14.613  0.00  0.00    +0.000 A 
BRANCH   6   9
ATOM      9  O   UNL     1      49.492   8.083  17.780  0.00  0.00    +0.000 OA
BRANCH   9  10
ATOM     10  C   UNL     1      49.043   7.135  18.690  0.00  0.00    +0.000 A 
ATOM     11  C   UNL     1      49.999   6.358  19.327  0.00  0.00    +0.000 A 
ATOM     12  N   UNL     1      49.678   5.420  20.257  0.00  0.00    +0.000 NA
ATOM     13  C   UNL     1      48.355   5.289  20.508  0.00  0.00    +0.000 A 
ATOM     14  C   UNL     1      47.397   6.045  19.851  0.00  0.00    +0.000 A 
ATOM     15  N   UNL     1      47.716   6.970  18.921  0.00  0.00    +0.000 NA
ENDBRANCH   9  10
ENDBRANCH   6   9
ENDBRANCH   2   3
BRANCH   2  16
ATOM     16  N   UNL     1      47.066   6.611  12.044  0.00  0.00    +0.000 N 
ATOM     17  C   UNL     1      45.702   6.574  12.179  0.00  0.00    +0.000 C 
ATOM     18  O   UNL     1      45.057   7.560  12.527  0.00  0.00    +0.000 OA
ATOM     19  H   UNL     1      47.581   5.752  11.875  0.00  0.00    +0.000 HD
BRANCH  17  20
ATOM     20  C   UNL     1      45.030   5.310  11.849  0.00  0.00    +0.000 A 
ATOM     21  C   UNL     1      44.295   4.655  12.829  0.00  0.00    +0.000 A 
ATOM     22  S   UNL     1      43.582   3.201  12.300  0.00  0.00    +0.000 S 
ATOM     23  C   UNL     1      44.265   3.368  10.751  0.00  0.00    +0.000 A 
ATOM     24  N   UNL     1      44.077   2.413   9.801  0.00  0.00    +0.000 NA
ATOM     25  C   UNL     1      44.689   2.643   8.687  0.00  0.00    +0.000 A 
ATOM     26  N   UNL     1      45.457   3.750   8.433  0.00  0.00    +0.000 N 
ATOM     27  C   UNL     1      45.607   4.777   9.335  0.00  0.00    +0.000 A 
ATOM     28  O   UNL     1      46.182   5.815   9.028  0.00  0.00    +0.000 OA
ATOM     29  C   UNL     1      44.993   4.539  10.627  0.00  0.00    +0.000 A 
ATOM     30  H   UNL     1      45.879   3.889   7.526  0.00  0.00    +0.000 HD
ENDBRANCH  17  20
ENDBRANCH   2  16
TORSDOF 5
ENDMDL
MODEL 8
REMARK VINA RESULT:    -6.646      2.724      4.397
REMARK INTER + INTRA:          -9.265
REMARK INTER:                  -8.238
REMARK INTRA:                  -1.027
REMARK UNBOUND:                -0.677
REMARK  Name = 
REMARK  6 active torsions:
REMARK  status: ('A' for Active; 'I' for Inactive)
REMARK    1  A    between atoms: C_1  and  C_2
REMARK    2  A    between atoms: C_2  and  N_3
REMARK    3  A    between atoms: C_2  and  C_16
REMARK    4  A    between atoms: C_4  and  C_6
REMARK    5  A    between atoms: C_19  and  O_20
REMARK    6  A    between atoms: O_20  and  C_21
REMARK                            x       y       z     vdW  Elec       q    Type
REMARK                         _______ _______ _______ _____ _____    ______ ____
ROOT
ATOM      1  C   UNL     1      47.404   4.615  15.651  0.00  0.00    +0.000 C 
ATOM      2  C   UNL     1      47.230   5.750  14.640  0.00  0.00    +0.000 C 
ENDROOT
BRANCH   2   3
ATOM      3  C   UNL     1      46.445   5.309  13.418  0.00  0.00    +0.000 A 
ATOM      4  C   UNL     1      46.201   6.235  12.395  0.00  0.00    +0.000 A 
ATOM      5  C   UNL     1      45.540   5.852  11.229  0.00  0.00    +0.000 A 
ATOM      6  C   UNL     1      45.144   4.523  11.049  0.00  0.00    +0.000 A 
ATOM      7  C   UNL     1      45.337   3.602  12.078  0.00  0.00    +0.000 A 
ATOM      8  C   UNL     1      45.985   3.990  13.255  0.00  0.00    +0.000 A 
BRANCH   6   9
ATOM      9  O   UNL     1      44.503   4.066   9.917  0.00  0.00    +0.000 OA
BRANCH   9  10
ATOM     10  C   UNL     1      45.275   3.508   8.906  0.00  0.00    +0.000 A 
ATOM     11  C   UNL     1      45.465   2.135   8.932  0.00  0.00    +0.000 A 
ATOM     12  N   UNL     1      46.177   1.477   7.979  0.00  0.00    +0.000 NA
ATOM     13  C   UNL     1      46.699   2.261   7.008  0.00  0.00    +0.000 A 
ATOM     14  C   UNL     1      46.534   3.637   6.997  0.00  0.00    +0.000 A 
ATOM     15  N   UNL     1      45.835   4.291   7.950  0.00  0.00    +0.000 NA
ENDBRANCH   9  10
ENDBRANCH   6   9
ENDBRANCH   2   3
BRANCH   2  16
ATOM     16  N   UNL     1      48.509   6.312  14.241  0.00  0.00    +0.000 N 
ATOM     17  C   UNL     1      49.106   7.328  14.942  0.00  0.00    +0.000 C 
ATOM     18  O   UNL     1      48.600   7.803  15.955  0.00  0.00    +0.000 OA
ATOM     19  H   UNL     1      48.888   6.024  13.344  0.00  0.00    +0.000 HD
BRANCH  17  20
ATOM     20  C   UNL     1      50.408   7.803  14.454  0.00  0.00    +0.000 A 
ATOM     21  C   UNL     1      51.523   7.693  15.276  0.00  0.00    +0.000 A 
ATOM     22  S   UNL     1      52.956   8.292  14.578  0.00  0.00    +0.000 S 
ATOM     23  C   UNL     1      52.134   8.762  13.164  0.00  0.00    +0.000 A 
ATOM     24  N   UNL     1      52.790   9.394  12.154  0.00  0.00    +0.000 NA
ATOM     25  C   UNL     1      52.037   9.735  11.163  0.00  0.00    +0.000 A 
ATOM     26  N   UNL     1      50.692   9.485  11.081  0.00  0.00    +0.000 N 
ATOM     27  C   UNL     1      50.006   8.778  12.041  0.00  0.00    +0.000 A 
ATOM     28  O   UNL     1      48.837   8.448  11.874  0.00  0.00    +0.000 OA
ATOM     29  C   UNL     1      50.791   8.427  13.208  0.00  0.00    +0.000 A 
ATOM     30  H   UNL     1      50.166   9.745  10.260  0.00  0.00    +0.000 HD
ENDBRANCH  17  20
ENDBRANCH   2  16
TORSDOF 5
ENDMDL
MODEL 9
REMARK VINA RESULT:    -6.639      3.171      8.312
REMARK INTER + INTRA:          -9.256
REMARK INTER:                  -8.284
REMARK INTRA:                  -0.971
REMARK UNBOUND:                -0.677
REMARK  Name = 
REMARK  6 active torsions:
REMARK  status: ('A' for Active; 'I' for Inactive)
REMARK    1  A    between atoms: C_1  and  C_2
REMARK    2  A    between atoms: C_2  and  N_3
REMARK    3  A    between atoms: C_2  and  C_16
REMARK    4  A    between atoms: C_4  and  C_6
REMARK    5  A    between atoms: C_19  and  O_20
REMARK    6  A    between atoms: O_20  and  C_21
REMARK                            x       y       z     vdW  Elec       q    Type
REMARK                         _______ _______ _______ _____ _____    ______ ____
ROOT
ATOM      1  C   UNL     1      49.452   8.449  11.915  0.00  0.00    +0.000 C 
ATOM      2  C   UNL     1      48.365   7.818  12.786  0.00  0.00    +0.000 C 
ENDROOT
BRANCH   2   3
ATOM      3  C   UNL     1      48.921   7.292  14.097  0.00  0.00    +0.000 A 
ATOM      4  C   UNL     1      48.164   6.373  14.838  0.00  0.00    +0.000 A 
ATOM      5  C   UNL     1      48.666   5.819  16.014  0.00  0.00    +0.000 A 
ATOM      6  C   UNL     1      49.955   6.144  16.450  0.00  0.00    +0.000 A 
ATOM      7  C   UNL     1      50.700   7.093  15.750  0.00  0.00    +0.000 A 
ATOM      8  C   UNL     1      50.188   7.662  14.580  0.00  0.00    +0.000 A 
BRANCH   6   9
ATOM      9  O   UNL     1      50.526   5.623  17.591  0.00  0.00    +0.000 OA
BRANCH   9  10
ATOM     10  C   UNL     1      49.788   5.657  18.768  0.00  0.00    +0.000 A 
ATOM     11  C   UNL     1      49.558   6.898  19.341  0.00  0.00    +0.000 A 
ATOM     12  N   UNL     1      48.825   7.056  20.474  0.00  0.00    +0.000 NA
ATOM     13  C   UNL     1      48.346   5.911  21.013  0.00  0.00    +0.000 A 
ATOM     14  C   UNL     1      48.600   4.667  20.457  0.00  0.00    +0.000 A 
ATOM     15  N   UNL     1      49.336   4.511  19.335  0.00  0.00    +0.000 NA
ENDBRANCH   9  10
ENDBRANCH   6   9
ENDBRANCH   2   3
BRANCH   2  16
ATOM     16  N   UNL     1      47.658   6.764  12.080  0.00  0.00    +0.000 N 
ATOM     17  C   UNL     1      46.309   6.827  11.842  0.00  0.00    +0.000 C 
ATOM     18  O   UNL     1      45.631   7.788  12.197  0.00  0.00    +0.000 OA
ATOM     19  H   UNL     1      48.167   5.907  11.884  0.00  0.00    +0.000 HD
BRANCH  17  20
ATOM     20  C   UNL     1      45.706   5.710  11.101  0.00  0.00    +0.000 A 
ATOM     21  C   UNL     1      45.840   5.662   9.719  0.00  0.00    +0.000 A 
ATOM     22  S   UNL     1      45.083   4.315   9.001  0.00  0.00    +0.000 S 
ATOM     23  C   UNL     1      44.509   3.768  10.506  0.00  0.00    +0.000 A 
ATOM     24  N   UNL     1      43.730   2.656  10.593  0.00  0.00    +0.000 NA
ATOM     25  C   UNL     1      43.327   2.381  11.787  0.00  0.00    +0.000 A 
ATOM     26  N   UNL     1      43.646   3.106  12.906  0.00  0.00    +0.000 N 
ATOM     27  C   UNL     1      44.495   4.188  12.876  0.00  0.00    +0.000 A 
ATOM     28  O   UNL     1      44.873   4.729  13.909  0.00  0.00    +0.000 OA
ATOM     29  C   UNL     1      44.926   4.580  11.548  0.00  0.00    +0.000 A 
ATOM     30  H   UNL     1      43.328   2.816  13.819  0.00  0.00    +0.000 HD
ENDBRANCH  17  20
ENDBRANCH   2  16
TORSDOF 5
ENDMDL
