MODEL 1
REMARK VINA RESULT:    -7.634      0.000      0.000
REMARK INTER + INTRA:          -9.514
REMARK INTER:                  -8.973
REMARK INTRA:                  -0.541
REMARK UNBOUND:                -0.541
REMARK  Name = 
REMARK  3 active torsions:
REMARK  status: ('A' for Active; 'I' for Inactive)
REMARK    1  A    between atoms: N_6  and  C_7
REMARK    2  A    between atoms: C_7  and  C_8
REMARK    3  A    between atoms: C_12  and  C_13
REMARK                            x       y       z     vdW  Elec       q    Type
REMARK                         _______ _______ _______ _____ _____    ______ ____
ROOT
ATOM      1  C   UNL     1      44.055   4.490  11.240  0.00  0.00    +0.000 C 
ATOM      2  C   UNL     1      42.684   4.826  11.809  0.00  0.00    +0.000 C 
ATOM      3  C   UNL     1      43.284   5.711  10.768  0.00  0.00    +0.000 C 
ENDROOT
BRANCH   1   9
ATOM      4 CL   UNL     1      47.727   2.466   5.968  0.00  0.00    +0.000 Cl
ATOM      5  C   UNL     1      46.659   2.707   7.278  0.00  0.00    +0.000 A 
ATOM      6  C   UNL     1      46.227   1.678   8.075  0.00  0.00    +0.000 A 
ATOM      7  N   UNL     1      45.388   1.846   9.125  0.00  0.00    +0.000 NA
ATOM      8  C   UNL     1      44.979   3.099   9.385  0.00  0.00    +0.000 A 
ATOM      9  N   UNL     1      44.118   3.241  10.470  0.00  0.00    +0.000 N 
ATOM     10  N   UNL     1      45.351   4.168   8.659  0.00  0.00    +0.000 NA
ATOM     11  C   UNL     1      46.176   3.947   7.614  0.00  0.00    +0.000 A 
ATOM     12  H   UNL     1      44.139   2.362  10.976  0.00  0.00    +0.000 HD
ENDBRANCH   1   9
BRANCH   1  13
ATOM     13  C   UNL     1      45.308   4.791  12.052  0.00  0.00    +0.000 A 
ATOM     14  C   UNL     1      45.782   3.878  13.002  0.00  0.00    +0.000 A 
ATOM     15  C   UNL     1      46.979   4.129  13.647  0.00  0.00    +0.000 A 
ATOM     16  N   UNL     1      47.729   5.227  13.428  0.00  0.00    +0.000 NA
ATOM     17  C   UNL     1      47.263   6.141  12.544  0.00  0.00    +0.000 A 
ATOM     18  C   UNL     1      46.061   5.955  11.858  0.00  0.00    +0.000 A 
BRANCH  17  19
ATOM     19  C   UNL     1      48.113   7.314  12.341  0.00  0.00    +0.000 A 
ATOM     20  C   UNL     1      47.597   8.588  12.173  0.00  0.00    +0.000 A 
ATOM     21  N   UNL     1      48.345   9.704  11.998  0.00  0.00    +0.000 NA
ATOM     22  C   UNL     1      49.671   9.516  11.983  0.00  0.00    +0.000 A 
ATOM     23  N   UNL     1      50.300   8.341  12.130  0.00  0.00    +0.000 NA
ATOM     24  C   UNL     1      49.496   7.268  12.301  0.00  0.00    +0.000 A 
ENDBRANCH  17  19
ENDBRANCH   1  13
TORSDOF 3
ENDMDL
MODEL 2
REMARK VINA RESULT:    -7.464      1.812      3.452
REMARK INTER + INTRA:          -9.314
REMARK INTER:                  -8.980
REMARK INTRA:                  -0.334
REMARK UNBOUND:                -0.541
REMARK  Name = 
REMARK  3 active torsions:
REMARK  status: ('A' for Active; 'I' for Inactive)
REMARK    1  A    between atoms: N_6  and  C_7
REMARK    2  A    between atoms: C_7  and  C_8
REMARK    3  A    between atoms: C_12  and  C_13
REMARK                            x       y       z     vdW  Elec       q    Type
REMARK                         _______ _______ _______ _____ _____    ______ ____
ROOT
ATOM      1  C   UNL     1      44.043   4.882  11.581  0.00  0.00    +0.000 C 
ATOM      2  C   UNL     1      42.757   5.224  12.321  0.00  0.00    +0.000 C 
ATOM      3  C   UNL     1      43.160   6.034  11.134  0.00  0.00    +0.000 C 
ENDROOT
BRANCH   1   9
ATOM      4 CL   UNL     1      47.127   2.477   6.097  0.00  0.00    +0.000 Cl
ATOM      5  C   UNL     1      46.213   2.812   7.500  0.00  0.00    +0.000 A 
ATOM      6  C   UNL     1      45.900   1.847   8.423  0.00  0.00    +0.000 A 
ATOM      7  N   UNL     1      45.184   2.090   9.546  0.00  0.00    +0.000 NA
ATOM      8  C   UNL     1      44.779   3.354   9.750  0.00  0.00    +0.000 A 
ATOM      9  N   UNL     1      44.046   3.575  10.913  0.00  0.00    +0.000 N 
ATOM     10  N   UNL     1      45.039   4.365   8.902  0.00  0.00    +0.000 NA
ATOM     11  C   UNL     1      45.743   4.069   7.788  0.00  0.00    +0.000 A 
ATOM     12  H   UNL     1      44.146   2.741  11.483  0.00  0.00    +0.000 HD
ENDBRANCH   1   9
BRANCH   1  13
ATOM     13  C   UNL     1      45.388   5.289  12.170  0.00  0.00    +0.000 A 
ATOM     14  C   UNL     1      46.182   6.256  11.541  0.00  0.00    +0.000 A 
ATOM     15  C   UNL     1      47.345   6.683  12.154  0.00  0.00    +0.000 A 
ATOM     16  N   UNL     1      47.783   6.208  13.338  0.00  0.00    +0.000 NA
ATOM     17  C   UNL     1      47.049   5.241  13.937  0.00  0.00    +0.000 A 
ATOM     18  C   UNL     1      45.865   4.760  13.375  0.00  0.00    +0.000 A 
BRANCH  17  19
ATOM     19  C   UNL     1      47.566   4.759  15.218  0.00  0.00    +0.000 A 
ATOM     20  C   UNL     1      47.449   3.439  15.620  0.00  0.00    +0.000 A 
ATOM     21  N   UNL     1      47.926   2.944  16.787  0.00  0.00    +0.000 NA
ATOM     22  C   UNL     1      48.538   3.831  17.584  0.00  0.00    +0.000 A 
ATOM     23  N   UNL     1      48.715   5.133  17.321  0.00  0.00    +0.000 NA
ATOM     24  C   UNL     1      48.217   5.561  16.140  0.00  0.00    +0.000 A 
ENDBRANCH  17  19
ENDBRANCH   1  13
TORSDOF 3
ENDMDL
MODEL 3
REMARK VINA RESULT:    -6.580      2.693      6.317
REMARK INTER + INTRA:          -8.274
REMARK INTER:                  -8.134
REMARK INTRA:                  -0.141
REMARK UNBOUND:                -0.541
REMARK  Name = 
REMARK  3 active torsions:
REMARK  status: ('A' for Active; 'I' for Inactive)
REMARK    1  A    between atoms: N_6  and  C_7
REMARK    2  A    between atoms: C_7  and  C_8
REMARK    3  A    between atoms: C_12  and  C_13
REMARK                            x       y       z     vdW  Elec       q    Type
REMARK                         _______ _______ _______ _____ _____    ______ ____
ROOT
ATOM      1  C   UNL     1      44.078   5.635  11.294  0.00  0.00    +0.000 C 
ATOM      2  C   UNL     1      42.660   6.184  11.367  0.00  0.00    +0.000 C 
ATOM      3  C   UNL     1      43.283   5.594  12.588  0.00  0.00    +0.000 C 
ENDROOT
BRANCH   1   9
ATOM      4 CL   UNL     1      49.919   7.163  14.280  0.00  0.00    +0.000 Cl
ATOM      5  C   UNL     1      48.500   7.014  13.342  0.00  0.00    +0.000 A 
ATOM      6  C   UNL     1      48.457   7.350  12.013  0.00  0.00    +0.000 A 
ATOM      7  N   UNL     1      47.347   7.232  11.247  0.00  0.00    +0.000 NA
ATOM      8  C   UNL     1      46.243   6.748  11.841  0.00  0.00    +0.000 A 
ATOM      9  N   UNL     1      45.118   6.636  11.029  0.00  0.00    +0.000 N 
ATOM     10  N   UNL     1      46.193   6.391  13.137  0.00  0.00    +0.000 NA
ATOM     11  C   UNL     1      47.321   6.542  13.863  0.00  0.00    +0.000 A 
ATOM     12  H   UNL     1      45.435   6.764  10.073  0.00  0.00    +0.000 HD
ENDBRANCH   1   9
BRANCH   1  13
ATOM     13  C   UNL     1      44.333   4.279  10.649  0.00  0.00    +0.000 A 
ATOM     14  C   UNL     1      43.665   3.134  11.100  0.00  0.00    +0.000 A 
ATOM     15  C   UNL     1      43.835   1.938  10.428  0.00  0.00    +0.000 A 
ATOM     16  N   UNL     1      44.633   1.795   9.351  0.00  0.00    +0.000 NA
ATOM     17  C   UNL     1      45.321   2.883   8.929  0.00  0.00    +0.000 A 
ATOM     18  C   UNL     1      45.200   4.121   9.561  0.00  0.00    +0.000 A 
BRANCH  17  19
ATOM     19  C   UNL     1      46.174   2.675   7.758  0.00  0.00    +0.000 A 
ATOM     20  C   UNL     1      46.942   1.537   7.588  0.00  0.00    +0.000 A 
ATOM     21  N   UNL     1      47.733   1.295   6.514  0.00  0.00    +0.000 NA
ATOM     22  C   UNL     1      47.751   2.255   5.581  0.00  0.00    +0.000 A 
ATOM     23  N   UNL     1      47.062   3.405   5.622  0.00  0.00    +0.000 NA
ATOM     24  C   UNL     1      46.292   3.583   6.719  0.00  0.00    +0.000 A 
ENDBRANCH  17  19
ENDBRANCH   1  13
TORSDOF 3
ENDMDL
MODEL 4
REMARK VINA RESULT:    -6.376      3.873      7.735
REMARK INTER + INTRA:          -8.035
REMARK INTER:                  -7.554
REMARK INTRA:                  -0.481
REMARK UNBOUND:                -0.541
REMARK  Name = 
REMARK  3 active torsions:
REMARK  status: ('A' for Active; 'I' for Inactive)
REMARK    1  A    between atoms: N_6  and  C_7
REMARK    2  A    between atoms: C_7  and  C_8
REMARK    3  A    between atoms: C_12  and  C_13
REMARK                            x       y       z     vdW  Elec       q    Type
REMARK                         _______ _______ _______ _____ _____    ______ ____
ROOT
ATOM      1  C   UNL     1      49.093   7.751  12.585  0.00  0.00    +0.000 C 
ATOM      2  C   UNL     1      50.005   7.862  11.370  0.00  0.00    +0.000 C 
ATOM      3  C   UNL     1      49.717   9.078  12.186  0.00  0.00    +0.000 C 
ENDROOT
BRANCH   1   9
ATOM      4 CL   UNL     1      48.176   7.753  19.258  0.00  0.00    +0.000 Cl
ATOM      5  C   UNL     1      48.607   7.527  17.621  0.00  0.00    +0.000 A 
ATOM      6  C   UNL     1      48.956   6.301  17.115  0.00  0.00    +0.000 A 
ATOM      7  N   UNL     1      49.293   6.096  15.819  0.00  0.00    +0.000 NA
ATOM      8  C   UNL     1      49.266   7.163  15.004  0.00  0.00    +0.000 A 
ATOM      9  N   UNL     1      49.615   6.922  13.678  0.00  0.00    +0.000 N 
ATOM     10  N   UNL     1      48.935   8.401  15.412  0.00  0.00    +0.000 NA
ATOM     11  C   UNL     1      48.623   8.558  16.716  0.00  0.00    +0.000 A 
ATOM     12  H   UNL     1      49.626   5.914  13.558  0.00  0.00    +0.000 HD
ENDBRANCH   1   9
BRANCH   1  13
ATOM     13  C   UNL     1      47.585   7.664  12.395  0.00  0.00    +0.000 A 
ATOM     14  C   UNL     1      46.813   8.823  12.252  0.00  0.00    +0.000 A 
ATOM     15  C   UNL     1      45.463   8.710  11.974  0.00  0.00    +0.000 A 
ATOM     16  N   UNL     1      44.824   7.530  11.844  0.00  0.00    +0.000 NA
ATOM     17  C   UNL     1      45.548   6.399  12.024  0.00  0.00    +0.000 A 
ATOM     18  C   UNL     1      46.914   6.438  12.309  0.00  0.00    +0.000 A 
BRANCH  17  19
ATOM     19  C   UNL     1      44.809   5.146  11.873  0.00  0.00    +0.000 A 
ATOM     20  C   UNL     1      44.615   4.264  12.922  0.00  0.00    +0.000 A 
ATOM     21  N   UNL     1      43.926   3.101  12.834  0.00  0.00    +0.000 NA
ATOM     22  C   UNL     1      43.421   2.818  11.626  0.00  0.00    +0.000 A 
ATOM     23  N   UNL     1      43.537   3.579  10.528  0.00  0.00    +0.000 NA
ATOM     24  C   UNL     1      44.236   4.725  10.685  0.00  0.00    +0.000 A 
ENDBRANCH  17  19
ENDBRANCH   1  13
TORSDOF 3
ENDMDL
MODEL 5
REMARK VINA RESULT:    -6.039      2.686      4.636
REMARK INTER + INTRA:          -7.639
REMARK INTER:                  -7.216
REMARK INTRA:                  -0.423
REMARK UNBOUND:                -0.541
REMARK  Name = 
REMARK  3 active torsions:
REMARK  status: ('A' for Active; 'I' for Inactive)
REMARK    1  A    between atoms: N_6  and  C_7
REMARK    2  A    between atoms: C_7  and  C_8
REMARK    3  A    between atoms: C_12  and  C_13
REMARK                            x       y       z     vdW  Elec       q    Type
REMARK                         _______ _______ _______ _____ _____    ______ ____
ROOT
ATOM      1  C   UNL     1      45.412   7.861  12.297  0.00  0.00    +0.000 C 
ATOM      2  C   UNL     1      45.002   9.292  12.614  0.00  0.00    +0.000 C 
ATOM      3  C   UNL     1      45.595   8.976  11.282  0.00  0.00    +0.000 C 
ENDROOT
BRANCH   1   9
ATOM      4 CL   UNL     1      44.543   1.988   9.114  0.00  0.00    +0.000 Cl
ATOM      5  C   UNL     1      44.474   3.439  10.012  0.00  0.00    +0.000 A 
ATOM      6  C   UNL     1      43.715   3.567  11.147  0.00  0.00    +0.000 A 
ATOM      7  N   UNL     1      43.651   4.704  11.881  0.00  0.00    +0.000 NA
ATOM      8  C   UNL     1      44.389   5.745  11.459  0.00  0.00    +0.000 A 
ATOM      9  N   UNL     1      44.305   6.899  12.233  0.00  0.00    +0.000 N 
ATOM     10  N   UNL     1      45.163   5.710  10.360  0.00  0.00    +0.000 NA
ATOM     11  C   UNL     1      45.180   4.560   9.653  0.00  0.00    +0.000 A 
ATOM     12  H   UNL     1      43.840   6.638  13.097  0.00  0.00    +0.000 HD
ENDBRANCH   1   9
BRANCH   1  13
ATOM     13  C   UNL     1      46.702   7.295  12.877  0.00  0.00    +0.000 A 
ATOM     14  C   UNL     1      47.946   7.671  12.355  0.00  0.00    +0.000 A 
ATOM     15  C   UNL     1      49.102   7.226  12.970  0.00  0.00    +0.000 A 
ATOM     16  N   UNL     1      49.111   6.423  14.053  0.00  0.00    +0.000 NA
ATOM     17  C   UNL     1      47.916   6.015  14.542  0.00  0.00    +0.000 A 
ATOM     18  C   UNL     1      46.708   6.422  13.971  0.00  0.00    +0.000 A 
BRANCH  17  19
ATOM     19  C   UNL     1      47.978   5.145  15.717  0.00  0.00    +0.000 A 
ATOM     20  C   UNL     1      48.862   5.363  16.759  0.00  0.00    +0.000 A 
ATOM     21  N   UNL     1      48.945   4.595  17.872  0.00  0.00    +0.000 NA
ATOM     22  C   UNL     1      48.102   3.556  17.922  0.00  0.00    +0.000 A 
ATOM     23  N   UNL     1      47.201   3.228  16.984  0.00  0.00    +0.000 NA
ATOM     24  C   UNL     1      47.170   4.036  15.900  0.00  0.00    +0.000 A 
ENDBRANCH  17  19
ENDBRANCH   1  13
TORSDOF 3
ENDMDL
MODEL 6
REMARK VINA RESULT:    -5.503      3.155      5.873
REMARK INTER + INTRA:          -7.009
REMARK INTER:                  -7.094
REMARK INTRA:                   0.085
REMARK UNBOUND:                -0.541
REMARK  Name = 
REMARK  3 active torsions:
REMARK  status: ('A' for Active; 'I' for Inactive)
REMARK    1  A    between atoms: N_6  and  C_7
REMARK    2  A    between atoms: C_7  and  C_8
REMARK    3  A    between atoms: C_12  and  C_13
REMARK                            x       y       z     vdW  Elec       q    Type
REMARK                         _______ _______ _______ _____ _____    ______ ____
ROOT
ATOM      1  C   UNL     1      47.551   8.415  13.121  0.00  0.00    +0.000 C 
ATOM      2  C   UNL     1      47.775   9.900  12.873  0.00  0.00    +0.000 C 
ATOM      3  C   UNL     1      48.206   8.911  11.843  0.00  0.00    +0.000 C 
ENDROOT
BRANCH   1   9
ATOM      4 CL   UNL     1      44.019   3.478  10.202  0.00  0.00    +0.000 Cl
ATOM      5  C   UNL     1      44.646   4.814  11.059  0.00  0.00    +0.000 A 
ATOM      6  C   UNL     1      44.120   5.233  12.255  0.00  0.00    +0.000 A 
ATOM      7  N   UNL     1      44.606   6.284  12.958  0.00  0.00    +0.000 NA
ATOM      8  C   UNL     1      45.665   6.928  12.441  0.00  0.00    +0.000 A 
ATOM      9  N   UNL     1      46.143   8.003  13.185  0.00  0.00    +0.000 N 
ATOM     10  N   UNL     1      46.246   6.587  11.277  0.00  0.00    +0.000 NA
ATOM     11  C   UNL     1      45.717   5.543  10.605  0.00  0.00    +0.000 A 
ATOM     12  H   UNL     1      45.696   7.949  14.095  0.00  0.00    +0.000 HD
ENDBRANCH   1   9
BRANCH   1  13
ATOM     13  C   UNL     1      48.471   7.656  14.067  0.00  0.00    +0.000 A 
ATOM     14  C   UNL     1      49.785   8.088  14.288  0.00  0.00    +0.000 A 
ATOM     15  C   UNL     1      50.562   7.444  15.233  0.00  0.00    +0.000 A 
ATOM     16  N   UNL     1      50.134   6.393  15.961  0.00  0.00    +0.000 NA
ATOM     17  C   UNL     1      48.880   5.935  15.727  0.00  0.00    +0.000 A 
ATOM     18  C   UNL     1      48.041   6.535  14.786  0.00  0.00    +0.000 A 
BRANCH  17  19
ATOM     19  C   UNL     1      48.463   4.793  16.541  0.00  0.00    +0.000 A 
ATOM     20  C   UNL     1      49.306   4.180  17.452  0.00  0.00    +0.000 A 
ATOM     21  N   UNL     1      48.959   3.132  18.238  0.00  0.00    +0.000 NA
ATOM     22  C   UNL     1      47.707   2.682  18.082  0.00  0.00    +0.000 A 
ATOM     23  N   UNL     1      46.792   3.178  17.236  0.00  0.00    +0.000 NA
ATOM     24  C   UNL     1      47.203   4.223  16.483  0.00  0.00    +0.000 A 
ENDBRANCH  17  19
ENDBRANCH   1  13
TORSDOF 3
ENDMDL
MODEL 7
REMARK VINA RESULT:    -5.473      4.693      7.865
REMARK INTER + INTRA:          -6.974
REMARK INTER:                  -6.911
REMARK INTRA:                  -0.063
REMARK UNBOUND:                -0.541
REMARK  Name = 
REMARK  3 active torsions:
REMARK  status: ('A' for Active; 'I' for Inactive)
REMARK    1  A    between atoms: N_6  and  C_7
REMARK    2  A    between atoms: C_7  and  C_8
REMARK    3  A    between atoms: C_12  and  C_13
REMARK                            x       y       z     vdW  Elec       q    Type
REMARK                         _______ _______ _______ _____ _____    ______ ____
ROOT
ATOM      1  C   UNL     1      48.147   4.693  17.222  0.00  0.00    +0.000 C 
ATOM      2  C   UNL     1      46.975   4.763  18.192  0.00  0.00    +0.000 C 
ATOM      3  C   UNL     1      47.228   3.502  17.435  0.00  0.00    +0.000 C 
ENDROOT
BRANCH   1   9
ATOM      4 CL   UNL     1      53.537   0.657  17.359  0.00  0.00    +0.000 Cl
ATOM      5  C   UNL     1      52.334   1.858  17.511  0.00  0.00    +0.000 A 
ATOM      6  C   UNL     1      52.636   3.185  17.682  0.00  0.00    +0.000 A 
ATOM      7  N   UNL     1      51.700   4.157  17.796  0.00  0.00    +0.000 NA
ATOM      8  C   UNL     1      50.413   3.777  17.724  0.00  0.00    +0.000 A 
ATOM      9  N   UNL     1      49.473   4.797  17.843  0.00  0.00    +0.000 N 
ATOM     10  N   UNL     1      50.023   2.501  17.556  0.00  0.00    +0.000 NA
ATOM     11  C   UNL     1      50.994   1.567  17.464  0.00  0.00    +0.000 A 
ATOM     12  H   UNL     1      49.980   5.672  17.758  0.00  0.00    +0.000 HD
ENDBRANCH   1   9
BRANCH   1  13
ATOM     13  C   UNL     1      48.040   5.356  15.855  0.00  0.00    +0.000 A 
ATOM     14  C   UNL     1      48.901   6.401  15.496  0.00  0.00    +0.000 A 
ATOM     15  C   UNL     1      48.852   6.910  14.212  0.00  0.00    +0.000 A 
ATOM     16  N   UNL     1      48.000   6.468  13.265  0.00  0.00    +0.000 NA
ATOM     17  C   UNL     1      47.131   5.488  13.610  0.00  0.00    +0.000 A 
ATOM     18  C   UNL     1      47.121   4.929  14.889  0.00  0.00    +0.000 A 
BRANCH  17  19
ATOM     19  C   UNL     1      46.228   5.044  12.548  0.00  0.00    +0.000 A 
ATOM     20  C   UNL     1      45.611   3.805  12.565  0.00  0.00    +0.000 A 
ATOM     21  N   UNL     1      44.756   3.358  11.613  0.00  0.00    +0.000 NA
ATOM     22  C   UNL     1      44.527   4.201  10.598  0.00  0.00    +0.000 A 
ATOM     23  N   UNL     1      45.060   5.423  10.456  0.00  0.00    +0.000 NA
ATOM     24  C   UNL     1      45.903   5.808  11.440  0.00  0.00    +0.000 A 
ENDBRANCH  17  19
ENDBRANCH   1  13
TORSDOF 3
ENDMDL
MODEL 8
REMARK VINA RESULT:    -5.215      4.966      8.225
REMARK INTER + INTRA:          -6.671
REMARK INTER:                  -6.204
REMARK INTRA:                  -0.466
REMARK UNBOUND:                -0.541
REMARK  Name = 
REMARK  3 active torsions:
REMARK  status: ('A' for Active; 'I' for Inactive)
REMARK    1  A    between atoms: N_6  and  C_7
REMARK    2  A    between atoms: C_7  and  C_8
REMARK    3  A    between atoms: C_12  and  C_13
REMARK                            x       y       z     vdW  Elec       q    Type
REMARK                         _______ _______ _______ _____ _____    ______ ____
ROOT
ATOM      1  C   UNL     1      49.364   7.188  17.694  0.00  0.00    +0.000 C 
ATOM      2  C   UNL     1      48.898   8.439  18.425  0.00  0.00    +0.000 C 
ATOM      3  C   UNL     1      48.070   7.200  18.489  0.00  0.00    +0.000 C 
ENDROOT
BRANCH   1   9
ATOM      4 CL   UNL     1      52.030   1.009  17.408  0.00  0.00    +0.000 Cl
ATOM      5  C   UNL     1      51.597   2.642  17.653  0.00  0.00    +0.000 A 
ATOM      6  C   UNL     1      52.530   3.638  17.793  0.00  0.00    +0.000 A 
ATOM      7  N   UNL     1      52.211   4.941  17.979  0.00  0.00    +0.000 NA
ATOM      8  C   UNL     1      50.905   5.251  18.013  0.00  0.00    +0.000 A 
ATOM      9  N   UNL     1      50.607   6.598  18.204  0.00  0.00    +0.000 N 
ATOM     10  N   UNL     1      49.922   4.343  17.883  0.00  0.00    +0.000 NA
ATOM     11  C   UNL     1      50.290   3.055  17.716  0.00  0.00    +0.000 A 
ATOM     12  H   UNL     1      51.474   7.109  18.075  0.00  0.00    +0.000 HD
ENDBRANCH   1   9
BRANCH   1  13
ATOM     13  C   UNL     1      49.193   7.084  16.184  0.00  0.00    +0.000 A 
ATOM     14  C   UNL     1      50.063   7.755  15.317  0.00  0.00    +0.000 A 
ATOM     15  C   UNL     1      49.951   7.557  13.953  0.00  0.00    +0.000 A 
ATOM     16  N   UNL     1      49.027   6.753  13.390  0.00  0.00    +0.000 NA
ATOM     17  C   UNL     1      48.149   6.131  14.212  0.00  0.00    +0.000 A 
ATOM     18  C   UNL     1      48.201   6.287  15.599  0.00  0.00    +0.000 A 
BRANCH  17  19
ATOM     19  C   UNL     1      47.166   5.271  13.553  0.00  0.00    +0.000 A 
ATOM     20  C   UNL     1      46.332   5.728  12.547  0.00  0.00    +0.000 A 
ATOM     21  N   UNL     1      45.419   4.965  11.898  0.00  0.00    +0.000 NA
ATOM     22  C   UNL     1      45.345   3.688  12.295  0.00  0.00    +0.000 A 
ATOM     23  N   UNL     1      46.087   3.119  13.256  0.00  0.00    +0.000 NA
ATOM     24  C   UNL     1      46.978   3.934  13.863  0.00  0.00    +0.000 A 
ENDBRANCH  17  19
ENDBRANCH   1  13
TORSDOF 3
ENDMDL
MODEL 9
REMARK VINA RESULT:    -4.963      3.119      7.107
REMARK INTER + INTRA:          -6.374
REMARK INTER:                  -6.122
REMARK INTRA:                  -0.252
REMARK UNBOUND:                -0.541
REMARK  Name = 
REMARK  3 active torsions:
REMARK  status: ('A' for Active; 'I' for Inactive)
REMARK    1  A    between atoms: N_6  and  C_7
REMARK    2  A    between atoms: C_7  and  C_8
REMARK    3  A    between atoms: C_12  and  C_13
REMARK                            x       y       z     vdW  Elec       q    Type
REMARK                         _______ _______ _______ _____ _____    ______ ____
ROOT
ATOM      1  C   UNL     1      48.228   8.667  14.023  0.00  0.00    +0.000 C 
ATOM      2  C   UNL     1      48.208   8.587  15.543  0.00  0.00    +0.000 C 
ATOM      3  C   UNL     1      48.814   7.473  14.756  0.00  0.00    +0.000 C 
ENDROOT
BRANCH   1   9
ATOM      4 CL   UNL     1      52.948   8.906   9.223  0.00  0.00    +0.000 Cl
ATOM      5  C   UNL     1      51.817   9.141  10.480  0.00  0.00    +0.000 A 
ATOM      6  C   UNL     1      51.168  10.334  10.673  0.00  0.00    +0.000 A 
ATOM      7  N   UNL     1      50.261  10.541  11.657  0.00  0.00    +0.000 NA
ATOM      8  C   UNL     1      49.992   9.505  12.468  0.00  0.00    +0.000 A 
ATOM      9  N   UNL     1      49.055   9.747  13.469  0.00  0.00    +0.000 N 
ATOM     10  N   UNL     1      50.577   8.299  12.353  0.00  0.00    +0.000 NA
ATOM     11  C   UNL     1      51.486   8.146  11.367  0.00  0.00    +0.000 A 
ATOM     12  H   UNL     1      48.609  10.631  13.244  0.00  0.00    +0.000 HD
ENDBRANCH   1   9
BRANCH   1  13
ATOM     13  C   UNL     1      46.959   8.380  13.231  0.00  0.00    +0.000 A 
ATOM     14  C   UNL     1      46.309   9.399  12.524  0.00  0.00    +0.000 A 
ATOM     15  C   UNL     1      45.222   9.088  11.729  0.00  0.00    +0.000 A 
ATOM     16  N   UNL     1      44.725   7.841  11.598  0.00  0.00    +0.000 NA
ATOM     17  C   UNL     1      45.315   6.852  12.311  0.00  0.00    +0.000 A 
ATOM     18  C   UNL     1      46.414   7.093  13.136  0.00  0.00    +0.000 A 
BRANCH  17  19
ATOM     19  C   UNL     1      44.739   5.519  12.136  0.00  0.00    +0.000 A 
ATOM     20  C   UNL     1      43.743   5.252  11.212  0.00  0.00    +0.000 A 
ATOM     21  N   UNL     1      43.191   4.033  11.004  0.00  0.00    +0.000 NA
ATOM     22  C   UNL     1      43.664   3.045  11.775  0.00  0.00    +0.000 A 
ATOM     23  N   UNL     1      44.620   3.164  12.708  0.00  0.00    +0.000 NA
ATOM     24  C   UNL     1      45.129   4.407  12.864  0.00  0.00    +0.000 A 
ENDBRANCH  17  19
ENDBRANCH   1  13
TORSDOF 3
ENDMDL
