MODEL 1
REMARK VINA RESULT:    -7.795      0.000      0.000
REMARK INTER + INTRA:         -10.897
REMARK INTER:                 -10.301
REMARK INTRA:                  -0.596
REMARK UNBOUND:                -0.596
REMARK  Name = 
REMARK  6 active torsions:
REMARK  status: ('A' for Active; 'I' for Inactive)
REMARK    1  A    between atoms: C_2  and  C_3
REMARK    2  A    between atoms: C_8  and  O_9
REMARK    3  A    between atoms: O_9  and  C_10
REMARK    4  A    between atoms: C_10  and  C_11
REMARK    5  A    between atoms: C_15  and  N_16
REMARK    6  A    between atoms: C_20  and  N_21
REMARK                            x       y       z     vdW  Elec       q    Type
REMARK                         _______ _______ _______ _____ _____    ______ ____
ROOT
ATOM      1  C   UNL     1      45.202   4.605  12.931  0.00  0.00    +0.000 A 
ATOM      2  C   UNL     1      43.882   5.001  13.092  0.00  0.00    +0.000 A 
ATOM      3  N   UNL     1      42.927   4.833  12.156  0.00  0.00    +0.000 NA
ATOM      4  C   UNL     1      43.314   4.235  11.000  0.00  0.00    +0.000 A 
ATOM      5  C   UNL     1      44.606   3.782  10.704  0.00  0.00    +0.000 A 
ATOM      6  C   UNL     1      45.545   3.976  11.724  0.00  0.00    +0.000 A 
ENDROOT
BRANCH   5   7
ATOM      7  N   UNL     1      44.934   3.242   9.474  0.00  0.00    +0.000 N 
ATOM      8  C   UNL     1      44.639   1.849   9.147  0.00  0.00    +0.000 C 
ATOM      9  C   UNL     1      45.851   1.249   8.435  0.00  0.00    +0.000 C 
ATOM     10  C   UNL     1      46.241   2.067   7.203  0.00  0.00    +0.000 C 
ATOM     11  C   UNL     1      46.475   3.542   7.570  0.00  0.00    +0.000 C 
ATOM     12  C   UNL     1      45.251   4.112   8.330  0.00  0.00    +0.000 C 
BRANCH  11  13
ATOM     13  N   UNL     1      46.792   4.309   6.358  0.00  0.00    +0.000 NA
ATOM     14  H   UNL     1      45.948   4.456   5.807  0.00  0.00    +0.000 HD
ATOM     15  H   UNL     1      47.417   3.758   5.767  0.00  0.00    +0.000 HD
ENDBRANCH  11  13
ENDBRANCH   5   7
BRANCH   1  16
ATOM     16  C   UNL     1      46.209   4.802  14.032  0.00  0.00    +0.000 C 
BRANCH  16  17
ATOM     17  O   UNL     1      46.814   3.534  14.286  0.00  0.00    +0.000 OA
BRANCH  17  23
ATOM     18  C   UNL     1      47.839   4.399  17.642  0.00  0.00    +0.000 A 
ATOM     19  C   UNL     1      48.831   3.448  17.862  0.00  0.00    +0.000 A 
ATOM     20  C   UNL     1      49.101   2.552  16.845  0.00  0.00    +0.000 A 
ATOM     21  F   UNL     1      50.054   1.633  17.047  0.00  0.00    +0.000 F 
ATOM     22  N   UNL     1      48.466   2.538  15.655  0.00  0.00    +0.000 NA
ATOM     23  C   UNL     1      47.513   3.471  15.472  0.00  0.00    +0.000 A 
ATOM     24  C   UNL     1      47.164   4.414  16.425  0.00  0.00    +0.000 A 
BRANCH  18  26
ATOM     25  N   UNL     1      47.240   6.124  19.480  0.00  0.00    +0.000 NA
ATOM     26  C   UNL     1      47.512   5.353  18.658  0.00  0.00    +0.000 C 
ENDBRANCH  18  26
ENDBRANCH  17  23
ENDBRANCH  16  17
ENDBRANCH   1  16
TORSDOF 6
ENDMDL
MODEL 2
REMARK VINA RESULT:    -7.722      4.093      7.860
REMARK INTER + INTRA:         -10.800
REMARK INTER:                 -10.042
REMARK INTRA:                  -0.758
REMARK UNBOUND:                -0.596
REMARK  Name = 
REMARK  6 active torsions:
REMARK  status: ('A' for Active; 'I' for Inactive)
REMARK    1  A    between atoms: C_2  and  C_3
REMARK    2  A    between atoms: C_8  and  O_9
REMARK    3  A    between atoms: O_9  and  C_10
REMARK    4  A    between atoms: C_10  and  C_11
REMARK    5  A    between atoms: C_15  and  N_16
REMARK    6  A    between atoms: C_20  and  N_21
REMARK                            x       y       z     vdW  Elec       q    Type
REMARK                         _______ _______ _______ _____ _____    ______ ____
ROOT
ATOM      1  C   UNL     1      44.745   4.843  11.459  0.00  0.00    +0.000 A 
ATOM      2  C   UNL     1      44.761   3.952  12.523  0.00  0.00    +0.000 A 
ATOM      3  N   UNL     1      45.584   4.063  13.584  0.00  0.00    +0.000 NA
ATOM      4  C   UNL     1      46.433   5.122  13.581  0.00  0.00    +0.000 A 
ATOM      5  C   UNL     1      46.521   6.099  12.581  0.00  0.00    +0.000 A 
ATOM      6  C   UNL     1      45.630   5.930  11.515  0.00  0.00    +0.000 A 
ENDROOT
BRANCH   5   7
ATOM      7  N   UNL     1      47.462   7.113  12.621  0.00  0.00    +0.000 N 
ATOM      8  C   UNL     1      47.102   8.473  13.013  0.00  0.00    +0.000 C 
ATOM      9  C   UNL     1      47.788   9.451  12.059  0.00  0.00    +0.000 C 
ATOM     10  C   UNL     1      49.301   9.235  12.025  0.00  0.00    +0.000 C 
ATOM     11  C   UNL     1      49.644   7.776  11.680  0.00  0.00    +0.000 C 
ATOM     12  C   UNL     1      48.900   6.805  12.632  0.00  0.00    +0.000 C 
BRANCH  11  13
ATOM     13  N   UNL     1      51.101   7.589  11.712  0.00  0.00    +0.000 NA
ATOM     14  H   UNL     1      51.447   7.704  12.663  0.00  0.00    +0.000 HD
ATOM     15  H   UNL     1      51.544   8.328  11.164  0.00  0.00    +0.000 HD
ENDBRANCH  11  13
ENDBRANCH   5   7
BRANCH   1  16
ATOM     16  C   UNL     1      43.779   4.670  10.319  0.00  0.00    +0.000 C 
BRANCH  16  17
ATOM     17  O   UNL     1      43.837   3.302   9.916  0.00  0.00    +0.000 OA
BRANCH  17  23
ATOM     18  C   UNL     1      46.169   1.379   7.934  0.00  0.00    +0.000 A 
ATOM     19  C   UNL     1      46.717   2.380   7.138  0.00  0.00    +0.000 A 
ATOM     20  C   UNL     1      46.258   3.671   7.318  0.00  0.00    +0.000 A 
ATOM     21  F   UNL     1      46.780   4.640   6.556  0.00  0.00    +0.000 F 
ATOM     22  N   UNL     1      45.314   4.024   8.215  0.00  0.00    +0.000 NA
ATOM     23  C   UNL     1      44.805   3.034   8.971  0.00  0.00    +0.000 A 
ATOM     24  C   UNL     1      45.193   1.708   8.870  0.00  0.00    +0.000 A 
BRANCH  18  26
ATOM     25  N   UNL     1      46.949  -1.079   7.685  0.00  0.00    +0.000 NA
ATOM     26  C   UNL     1      46.603   0.022   7.793  0.00  0.00    +0.000 C 
ENDBRANCH  18  26
ENDBRANCH  17  23
ENDBRANCH  16  17
ENDBRANCH   1  16
TORSDOF 6
ENDMDL
MODEL 3
REMARK VINA RESULT:    -7.562      4.030      8.013
REMARK INTER + INTRA:         -10.589
REMARK INTER:                  -9.886
REMARK INTRA:                  -0.703
REMARK UNBOUND:                -0.596
REMARK  Name = 
REMARK  6 active torsions:
REMARK  status: ('A' for Active; 'I' for Inactive)
REMARK    1  A    between atoms: C_2  and  C_3
REMARK    2  A    between atoms: C_8  and  O_9
REMARK    3  A    between atoms: O_9  and  C_10
REMARK    4  A    between atoms: C_10  and  C_11
REMARK    5  A    between atoms: C_15  and  N_16
REMARK    6  A    between atoms: C_20  and  N_21
REMARK                            x       y       z     vdW  Elec       q    Type
REMARK                         _______ _______ _______ _____ _____    ______ ____
ROOT
ATOM      1  C   UNL     1      45.167   3.755  11.725  0.00  0.00    +0.000 A 
ATOM      2  C   UNL     1      45.694   3.227  12.895  0.00  0.00    +0.000 A 
ATOM      3  N   UNL     1      46.413   3.940  13.784  0.00  0.00    +0.000 NA
ATOM      4  C   UNL     1      46.613   5.250  13.488  0.00  0.00    +0.000 A 
ATOM      5  C   UNL     1      46.138   5.914  12.351  0.00  0.00    +0.000 A 
ATOM      6  C   UNL     1      45.388   5.119  11.476  0.00  0.00    +0.000 A 
ENDROOT
BRANCH   5   7
ATOM      7  N   UNL     1      46.442   7.238  12.088  0.00  0.00    +0.000 N 
ATOM      8  C   UNL     1      47.792   7.651  11.714  0.00  0.00    +0.000 C 
ATOM      9  C   UNL     1      48.136   8.931  12.477  0.00  0.00    +0.000 C 
ATOM     10  C   UNL     1      47.101  10.029  12.231  0.00  0.00    +0.000 C 
ATOM     11  C   UNL     1      45.683   9.537  12.566  0.00  0.00    +0.000 C 
ATOM     12  C   UNL     1      45.376   8.215  11.817  0.00  0.00    +0.000 C 
BRANCH  11  13
ATOM     13  N   UNL     1      44.708  10.593  12.265  0.00  0.00    +0.000 NA
ATOM     14  H   UNL     1      44.929  11.434  12.796  0.00  0.00    +0.000 HD
ATOM     15  H   UNL     1      43.785  10.297  12.586  0.00  0.00    +0.000 HD
ENDBRANCH  11  13
ENDBRANCH   5   7
BRANCH   1  16
ATOM     16  C   UNL     1      44.350   2.905  10.790  0.00  0.00    +0.000 C 
BRANCH  16  17
ATOM     17  O   UNL     1      44.268   3.599   9.546  0.00  0.00    +0.000 OA
BRANCH  17  23
ATOM     18  C   UNL     1      46.379   1.291   7.734  0.00  0.00    +0.000 A 
ATOM     19  C   UNL     1      46.886   2.128   6.745  0.00  0.00    +0.000 A 
ATOM     20  C   UNL     1      46.477   3.449   6.746  0.00  0.00    +0.000 A 
ATOM     21  F   UNL     1      46.959   4.261   5.798  0.00  0.00    +0.000 F 
ATOM     22  N   UNL     1      45.618   3.978   7.642  0.00  0.00    +0.000 NA
ATOM     23  C   UNL     1      45.147   3.144   8.587  0.00  0.00    +0.000 A 
ATOM     24  C   UNL     1      45.491   1.805   8.675  0.00  0.00    +0.000 A 
BRANCH  18  26
ATOM     25  N   UNL     1      47.080  -1.201   7.830  0.00  0.00    +0.000 NA
ATOM     26  C   UNL     1      46.763  -0.087   7.784  0.00  0.00    +0.000 C 
ENDBRANCH  18  26
ENDBRANCH  17  23
ENDBRANCH  16  17
ENDBRANCH   1  16
TORSDOF 6
ENDMDL
MODEL 4
REMARK VINA RESULT:    -7.366      1.407      2.173
REMARK INTER + INTRA:         -10.331
REMARK INTER:                  -9.792
REMARK INTRA:                  -0.539
REMARK UNBOUND:                -0.596
REMARK  Name = 
REMARK  6 active torsions:
REMARK  status: ('A' for Active; 'I' for Inactive)
REMARK    1  A    between atoms: C_2  and  C_3
REMARK    2  A    between atoms: C_8  and  O_9
REMARK    3  A    between atoms: O_9  and  C_10
REMARK    4  A    between atoms: C_10  and  C_11
REMARK    5  A    between atoms: C_15  and  N_16
REMARK    6  A    between atoms: C_20  and  N_21
REMARK                            x       y       z     vdW  Elec       q    Type
REMARK                         _______ _______ _______ _____ _____    ______ ____
ROOT
ATOM      1  C   UNL     1      45.256   4.750  12.953  0.00  0.00    +0.000 A 
ATOM      2  C   UNL     1      43.945   5.175  13.114  0.00  0.00    +0.000 A 
ATOM      3  N   UNL     1      42.982   5.008  12.187  0.00  0.00    +0.000 NA
ATOM      4  C   UNL     1      43.350   4.382  11.039  0.00  0.00    +0.000 A 
ATOM      5  C   UNL     1      44.631   3.898  10.745  0.00  0.00    +0.000 A 
ATOM      6  C   UNL     1      45.579   4.092  11.756  0.00  0.00    +0.000 A 
ENDROOT
BRANCH   5   7
ATOM      7  N   UNL     1      44.942   3.329   9.523  0.00  0.00    +0.000 N 
ATOM      8  C   UNL     1      44.619   1.936   9.225  0.00  0.00    +0.000 C 
ATOM      9  C   UNL     1      45.816   1.301   8.517  0.00  0.00    +0.000 C 
ATOM     10  C   UNL     1      46.213   2.088   7.268  0.00  0.00    +0.000 C 
ATOM     11  C   UNL     1      46.476   3.565   7.605  0.00  0.00    +0.000 C 
ATOM     12  C   UNL     1      45.267   4.172   8.362  0.00  0.00    +0.000 C 
BRANCH  11  13
ATOM     13  N   UNL     1      46.798   4.304   6.376  0.00  0.00    +0.000 NA
ATOM     14  H   UNL     1      47.293   3.697   5.724  0.00  0.00    +0.000 HD
ATOM     15  H   UNL     1      47.447   5.059   6.602  0.00  0.00    +0.000 HD
ENDBRANCH  11  13
ENDBRANCH   5   7
BRANCH   1  16
ATOM     16  C   UNL     1      46.273   4.947  14.045  0.00  0.00    +0.000 C 
BRANCH  16  17
ATOM     17  O   UNL     1      46.609   3.656  14.551  0.00  0.00    +0.000 OA
BRANCH  17  23
ATOM     18  C   UNL     1      49.086   2.803  17.041  0.00  0.00    +0.000 A 
ATOM     19  C   UNL     1      48.698   3.636  18.086  0.00  0.00    +0.000 A 
ATOM     20  C   UNL     1      47.602   4.454  17.886  0.00  0.00    +0.000 A 
ATOM     21  F   UNL     1      47.222   5.259  18.886  0.00  0.00    +0.000 F 
ATOM     22  N   UNL     1      46.885   4.499  16.744  0.00  0.00    +0.000 NA
ATOM     23  C   UNL     1      47.284   3.680  15.752  0.00  0.00    +0.000 A 
ATOM     24  C   UNL     1      48.368   2.823  15.849  0.00  0.00    +0.000 A 
BRANCH  18  26
ATOM     25  N   UNL     1      51.132   1.237  17.308  0.00  0.00    +0.000 NA
ATOM     26  C   UNL     1      50.214   1.934  17.188  0.00  0.00    +0.000 C 
ENDBRANCH  18  26
ENDBRANCH  17  23
ENDBRANCH  16  17
ENDBRANCH   1  16
TORSDOF 6
ENDMDL
MODEL 5
REMARK VINA RESULT:    -6.951      3.597      4.471
REMARK INTER + INTRA:          -9.781
REMARK INTER:                  -8.965
REMARK INTRA:                  -0.817
REMARK UNBOUND:                -0.596
REMARK  Name = 
REMARK  6 active torsions:
REMARK  status: ('A' for Active; 'I' for Inactive)
REMARK    1  A    between atoms: C_2  and  C_3
REMARK    2  A    between atoms: C_8  and  O_9
REMARK    3  A    between atoms: O_9  and  C_10
REMARK    4  A    between atoms: C_10  and  C_11
REMARK    5  A    between atoms: C_15  and  N_16
REMARK    6  A    between atoms: C_20  and  N_21
REMARK                            x       y       z     vdW  Elec       q    Type
REMARK                         _______ _______ _______ _____ _____    ______ ____
ROOT
ATOM      1  C   UNL     1      44.685   5.698  12.302  0.00  0.00    +0.000 A 
ATOM      2  C   UNL     1      44.018   4.876  13.199  0.00  0.00    +0.000 A 
ATOM      3  N   UNL     1      43.701   3.590  12.948  0.00  0.00    +0.000 NA
ATOM      4  C   UNL     1      44.073   3.102  11.737  0.00  0.00    +0.000 A 
ATOM      5  C   UNL     1      44.753   3.813  10.741  0.00  0.00    +0.000 A 
ATOM      6  C   UNL     1      45.063   5.138  11.072  0.00  0.00    +0.000 A 
ENDROOT
BRANCH   5   7
ATOM      7  N   UNL     1      45.038   3.262   9.505  0.00  0.00    +0.000 N 
ATOM      8  C   UNL     1      44.723   1.869   9.199  0.00  0.00    +0.000 C 
ATOM      9  C   UNL     1      45.908   1.255   8.452  0.00  0.00    +0.000 C 
ATOM     10  C   UNL     1      46.263   2.060   7.203  0.00  0.00    +0.000 C 
ATOM     11  C   UNL     1      46.519   3.536   7.550  0.00  0.00    +0.000 C 
ATOM     12  C   UNL     1      45.324   4.121   8.345  0.00  0.00    +0.000 C 
BRANCH  11  13
ATOM     13  N   UNL     1      46.801   4.293   6.322  0.00  0.00    +0.000 NA
ATOM     14  H   UNL     1      47.512   3.812   5.772  0.00  0.00    +0.000 HD
ATOM     15  H   UNL     1      47.207   5.196   6.573  0.00  0.00    +0.000 HD
ENDBRANCH  11  13
ENDBRANCH   5   7
BRANCH   1  16
ATOM     16  C   UNL     1      45.030   7.117  12.662  0.00  0.00    +0.000 C 
BRANCH  16  17
ATOM     17  O   UNL     1      46.055   7.546  11.767  0.00  0.00    +0.000 OA
BRANCH  17  23
ATOM     18  C   UNL     1      49.660   7.665  11.999  0.00  0.00    +0.000 A 
ATOM     19  C   UNL     1      49.826   7.822  13.371  0.00  0.00    +0.000 A 
ATOM     20  C   UNL     1      48.688   7.881  14.155  0.00  0.00    +0.000 A 
ATOM     21  F   UNL     1      48.837   8.032  15.477  0.00  0.00    +0.000 F 
ATOM     22  N   UNL     1      47.429   7.797  13.675  0.00  0.00    +0.000 NA
ATOM     23  C   UNL     1      47.303   7.643  12.344  0.00  0.00    +0.000 A 
ATOM     24  C   UNL     1      48.376   7.574  11.471  0.00  0.00    +0.000 A 
BRANCH  18  26
ATOM     25  N   UNL     1      51.727   7.542  10.441  0.00  0.00    +0.000 NA
ATOM     26  C   UNL     1      50.800   7.599  11.135  0.00  0.00    +0.000 C 
ENDBRANCH  18  26
ENDBRANCH  17  23
ENDBRANCH  16  17
ENDBRANCH   1  16
TORSDOF 6
ENDMDL
MODEL 6
REMARK VINA RESULT:    -6.926      3.076      8.176
REMARK INTER + INTRA:          -9.749
REMARK INTER:                  -8.967
REMARK INTRA:                  -0.782
REMARK UNBOUND:                -0.596
REMARK  Name = 
REMARK  6 active torsions:
REMARK  status: ('A' for Active; 'I' for Inactive)
REMARK    1  A    between atoms: C_2  and  C_3
REMARK    2  A    between atoms: C_8  and  O_9
REMARK    3  A    between atoms: O_9  and  C_10
REMARK    4  A    between atoms: C_10  and  C_11
REMARK    5  A    between atoms: C_15  and  N_16
REMARK    6  A    between atoms: C_20  and  N_21
REMARK                            x       y       z     vdW  Elec       q    Type
REMARK                         _______ _______ _______ _____ _____    ______ ____
ROOT
ATOM      1  C   UNL     1      47.436   7.042  12.854  0.00  0.00    +0.000 A 
ATOM      2  C   UNL     1      48.480   7.933  12.653  0.00  0.00    +0.000 A 
ATOM      3  N   UNL     1      49.525   8.069  13.492  0.00  0.00    +0.000 NA
ATOM      4  C   UNL     1      49.526   7.268  14.590  0.00  0.00    +0.000 A 
ATOM      5  C   UNL     1      48.545   6.324  14.915  0.00  0.00    +0.000 A 
ATOM      6  C   UNL     1      47.495   6.225  13.994  0.00  0.00    +0.000 A 
ENDROOT
BRANCH   5   7
ATOM      7  N   UNL     1      48.585   5.592  16.088  0.00  0.00    +0.000 N 
ATOM      8  C   UNL     1      49.666   5.761  17.056  0.00  0.00    +0.000 C 
ATOM      9  C   UNL     1      50.103   4.378  17.542  0.00  0.00    +0.000 C 
ATOM     10  C   UNL     1      48.927   3.585  18.113  0.00  0.00    +0.000 C 
ATOM     11  C   UNL     1      47.779   3.488  17.094  0.00  0.00    +0.000 C 
ATOM     12  C   UNL     1      47.386   4.898  16.584  0.00  0.00    +0.000 C 
BRANCH  11  13
ATOM     13  N   UNL     1      46.645   2.771  17.693  0.00  0.00    +0.000 NA
ATOM     14  H   UNL     1      46.397   3.193  18.586  0.00  0.00    +0.000 HD
ATOM     15  H   UNL     1      46.931   1.814  17.907  0.00  0.00    +0.000 HD
ENDBRANCH  11  13
ENDBRANCH   5   7
BRANCH   1  16
ATOM     16  C   UNL     1      46.313   6.927  11.858  0.00  0.00    +0.000 C 
BRANCH  16  17
ATOM     17  O   UNL     1      45.316   6.087  12.438  0.00  0.00    +0.000 OA
BRANCH  17  23
ATOM     18  C   UNL     1      45.101   3.991   9.501  0.00  0.00    +0.000 A 
ATOM     19  C   UNL     1      44.244   2.994   9.958  0.00  0.00    +0.000 A 
ATOM     20  C   UNL     1      43.779   3.089  11.257  0.00  0.00    +0.000 A 
ATOM     21  F   UNL     1      42.954   2.135  11.705  0.00  0.00    +0.000 F 
ATOM     22  N   UNL     1      44.103   4.083  12.109  0.00  0.00    +0.000 NA
ATOM     23  C   UNL     1      44.933   5.032  11.638  0.00  0.00    +0.000 A 
ATOM     24  C   UNL     1      45.455   5.031  10.355  0.00  0.00    +0.000 A 
BRANCH  18  26
ATOM     25  N   UNL     1      46.030   3.918   7.084  0.00  0.00    +0.000 NA
ATOM     26  C   UNL     1      45.617   3.947   8.167  0.00  0.00    +0.000 C 
ENDBRANCH  18  26
ENDBRANCH  17  23
ENDBRANCH  16  17
ENDBRANCH   1  16
TORSDOF 6
ENDMDL
MODEL 7
REMARK VINA RESULT:    -6.886      4.324      4.909
REMARK INTER + INTRA:          -9.695
REMARK INTER:                  -8.953
REMARK INTRA:                  -0.742
REMARK UNBOUND:                -0.596
REMARK  Name = 
REMARK  6 active torsions:
REMARK  status: ('A' for Active; 'I' for Inactive)
REMARK    1  A    between atoms: C_2  and  C_3
REMARK    2  A    between atoms: C_8  and  O_9
REMARK    3  A    between atoms: O_9  and  C_10
REMARK    4  A    between atoms: C_10  and  C_11
REMARK    5  A    between atoms: C_15  and  N_16
REMARK    6  A    between atoms: C_20  and  N_21
REMARK                            x       y       z     vdW  Elec       q    Type
REMARK                         _______ _______ _______ _____ _____    ______ ____
ROOT
ATOM      1  C   UNL     1      44.369   5.328  11.424  0.00  0.00    +0.000 A 
ATOM      2  C   UNL     1      43.555   4.519  12.204  0.00  0.00    +0.000 A 
ATOM      3  N   UNL     1      43.292   3.227  11.926  0.00  0.00    +0.000 NA
ATOM      4  C   UNL     1      43.877   2.718  10.811  0.00  0.00    +0.000 A 
ATOM      5  C   UNL     1      44.722   3.414   9.939  0.00  0.00    +0.000 A 
ATOM      6  C   UNL     1      44.963   4.747  10.293  0.00  0.00    +0.000 A 
ENDROOT
BRANCH   5   7
ATOM      7  N   UNL     1      45.226   2.841   8.785  0.00  0.00    +0.000 N 
ATOM      8  C   UNL     1      45.324   1.392   8.633  0.00  0.00    +0.000 C 
ATOM      9  C   UNL     1      46.677   1.060   8.002  0.00  0.00    +0.000 C 
ATOM     10  C   UNL     1      46.879   1.800   6.680  0.00  0.00    +0.000 C 
ATOM     11  C   UNL     1      46.698   3.317   6.863  0.00  0.00    +0.000 C 
ATOM     12  C   UNL     1      45.340   3.623   7.544  0.00  0.00    +0.000 C 
BRANCH  11  13
ATOM     13  N   UNL     1      46.841   3.992   5.566  0.00  0.00    +0.000 NA
ATOM     14  H   UNL     1      45.942   4.024   5.088  0.00  0.00    +0.000 HD
ATOM     15  H   UNL     1      47.455   3.438   4.967  0.00  0.00    +0.000 HD
ENDBRANCH  11  13
ENDBRANCH   5   7
BRANCH   1  16
ATOM     16  C   UNL     1      44.639   6.757  11.811  0.00  0.00    +0.000 C 
BRANCH  16  17
ATOM     17  O   UNL     1      45.759   6.753  12.695  0.00  0.00    +0.000 OA
BRANCH  17  23
ATOM     18  C   UNL     1      47.558   9.805  11.974  0.00  0.00    +0.000 A 
ATOM     19  C   UNL     1      48.770   9.290  11.527  0.00  0.00    +0.000 A 
ATOM     20  C   UNL     1      48.914   7.915  11.495  0.00  0.00    +0.000 A 
ATOM     21  F   UNL     1      50.078   7.410  11.066  0.00  0.00    +0.000 F 
ATOM     22  N   UNL     1      47.957   7.041  11.870  0.00  0.00    +0.000 NA
ATOM     23  C   UNL     1      46.795   7.570  12.295  0.00  0.00    +0.000 A 
ATOM     24  C   UNL     1      46.548   8.931  12.368  0.00  0.00    +0.000 A 
BRANCH  18  26
ATOM     25  N   UNL     1      47.176  12.365  12.072  0.00  0.00    +0.000 NA
ATOM     26  C   UNL     1      47.349  11.220  12.032  0.00  0.00    +0.000 C 
ENDBRANCH  18  26
ENDBRANCH  17  23
ENDBRANCH  16  17
ENDBRANCH   1  16
TORSDOF 6
ENDMDL
MODEL 8
REMARK VINA RESULT:    -6.865      3.475      8.167
REMARK INTER + INTRA:          -9.668
REMARK INTER:                  -8.921
REMARK INTRA:                  -0.747
REMARK UNBOUND:                -0.596
REMARK  Name = 
REMARK  6 active torsions:
REMARK  status: ('A' for Active; 'I' for Inactive)
REMARK    1  A    between atoms: C_2  and  C_3
REMARK    2  A    between atoms: C_8  and  O_9
REMARK    3  A    between atoms: O_9  and  C_10
REMARK    4  A    between atoms: C_10  and  C_11
REMARK    5  A    between atoms: C_15  and  N_16
REMARK    6  A    between atoms: C_20  and  N_21
REMARK                            x       y       z     vdW  Elec       q    Type
REMARK                         _______ _______ _______ _____ _____    ______ ____
ROOT
ATOM      1  C   UNL     1      47.088   6.950  12.778  0.00  0.00    +0.000 A 
ATOM      2  C   UNL     1      48.116   7.835  12.488  0.00  0.00    +0.000 A 
ATOM      3  N   UNL     1      49.215   7.987  13.253  0.00  0.00    +0.000 NA
ATOM      4  C   UNL     1      49.288   7.212  14.366  0.00  0.00    +0.000 A 
ATOM      5  C   UNL     1      48.331   6.277  14.777  0.00  0.00    +0.000 A 
ATOM      6  C   UNL     1      47.222   6.160  13.930  0.00  0.00    +0.000 A 
ENDROOT
BRANCH   5   7
ATOM      7  N   UNL     1      48.449   5.573  15.961  0.00  0.00    +0.000 N 
ATOM      8  C   UNL     1      49.557   5.808  16.883  0.00  0.00    +0.000 C 
ATOM      9  C   UNL     1      50.073   4.456  17.377  0.00  0.00    +0.000 C 
ATOM     10  C   UNL     1      48.956   3.625  18.009  0.00  0.00    +0.000 C 
ATOM     11  C   UNL     1      47.775   3.457  17.039  0.00  0.00    +0.000 C 
ATOM     12  C   UNL     1      47.301   4.838  16.517  0.00  0.00    +0.000 C 
BRANCH  11  13
ATOM     13  N   UNL     1      46.698   2.704  17.695  0.00  0.00    +0.000 NA
ATOM     14  H   UNL     1      45.831   3.240  17.668  0.00  0.00    +0.000 HD
ATOM     15  H   UNL     1      46.924   2.592  18.684  0.00  0.00    +0.000 HD
ENDBRANCH  11  13
ENDBRANCH   5   7
BRANCH   1  16
ATOM     16  C   UNL     1      45.902   6.815  11.862  0.00  0.00    +0.000 C 
BRANCH  16  17
ATOM     17  O   UNL     1      46.403   6.521  10.559  0.00  0.00    +0.000 OA
BRANCH  17  23
ATOM     18  C   UNL     1      44.451   3.493  10.269  0.00  0.00    +0.000 A 
ATOM     19  C   UNL     1      44.664   3.176   8.931  0.00  0.00    +0.000 A 
ATOM     20  C   UNL     1      45.469   4.020   8.189  0.00  0.00    +0.000 A 
ATOM     21  F   UNL     1      45.679   3.723   6.900  0.00  0.00    +0.000 F 
ATOM     22  N   UNL     1      46.060   5.130   8.677  0.00  0.00    +0.000 NA
ATOM     23  C   UNL     1      45.837   5.409   9.974  0.00  0.00    +0.000 A 
ATOM     24  C   UNL     1      45.047   4.631  10.805  0.00  0.00    +0.000 A 
BRANCH  18  26
ATOM     25  N   UNL     1      42.960   1.987  11.759  0.00  0.00    +0.000 NA
ATOM     26  C   UNL     1      43.626   2.658  11.089  0.00  0.00    +0.000 C 
ENDBRANCH  18  26
ENDBRANCH  17  23
ENDBRANCH  16  17
ENDBRANCH   1  16
TORSDOF 6
ENDMDL
MODEL 9
REMARK VINA RESULT:    -6.600      2.085      2.453
REMARK INTER + INTRA:          -9.317
REMARK INTER:                  -8.601
REMARK INTRA:                  -0.716
REMARK UNBOUND:                -0.596
REMARK  Name = 
REMARK  6 active torsions:
REMARK  status: ('A' for Active; 'I' for Inactive)
REMARK    1  A    between atoms: C_2  and  C_3
REMARK    2  A    between atoms: C_8  and  O_9
REMARK    3  A    between atoms: O_9  and  C_10
REMARK    4  A    between atoms: C_10  and  C_11
REMARK    5  A    between atoms: C_15  and  N_16
REMARK    6  A    between atoms: C_20  and  N_21
REMARK                            x       y       z     vdW  Elec       q    Type
REMARK                         _______ _______ _______ _____ _____    ______ ____
ROOT
ATOM      1  C   UNL     1      46.839   6.832  13.063  0.00  0.00    +0.000 A 
ATOM      2  C   UNL     1      46.208   8.063  12.955  0.00  0.00    +0.000 A 
ATOM      3  N   UNL     1      45.187   8.313  12.111  0.00  0.00    +0.000 NA
ATOM      4  C   UNL     1      44.776   7.276  11.337  0.00  0.00    +0.000 A 
ATOM      5  C   UNL     1      45.315   5.984  11.345  0.00  0.00    +0.000 A 
ATOM      6  C   UNL     1      46.362   5.790  12.253  0.00  0.00    +0.000 A 
ENDROOT
BRANCH   5   7
ATOM      7  N   UNL     1      44.882   4.999  10.476  0.00  0.00    +0.000 N 
ATOM      8  C   UNL     1      43.723   4.165  10.783  0.00  0.00    +0.000 C 
ATOM      9  C   UNL     1      44.055   2.718  10.418  0.00  0.00    +0.000 C 
ATOM     10  C   UNL     1      44.494   2.592   8.959  0.00  0.00    +0.000 C 
ATOM     11  C   UNL     1      45.669   3.535   8.651  0.00  0.00    +0.000 C 
ATOM     12  C   UNL     1      45.324   4.987   9.072  0.00  0.00    +0.000 C 
BRANCH  11  13
ATOM     13  N   UNL     1      46.029   3.432   7.230  0.00  0.00    +0.000 NA
ATOM     14  H   UNL     1      46.843   4.012   7.034  0.00  0.00    +0.000 HD
ATOM     15  H   UNL     1      45.270   3.817   6.666  0.00  0.00    +0.000 HD
ENDBRANCH  11  13
ENDBRANCH   5   7
BRANCH   1  16
ATOM     16  C   UNL     1      47.956   6.619  14.048  0.00  0.00    +0.000 C 
BRANCH  16  17
ATOM     17  O   UNL     1      48.019   5.220  14.323  0.00  0.00    +0.000 OA
BRANCH  17  23
ATOM     18  C   UNL     1      48.365   5.563  17.904  0.00  0.00    +0.000 A 
ATOM     19  C   UNL     1      47.767   4.383  18.335  0.00  0.00    +0.000 A 
ATOM     20  C   UNL     1      47.271   3.523  17.373  0.00  0.00    +0.000 A 
ATOM     21  F   UNL     1      46.693   2.385  17.779  0.00  0.00    +0.000 F 
ATOM     22  N   UNL     1      47.327   3.754  16.045  0.00  0.00    +0.000 NA
ATOM     23  C   UNL     1      47.914   4.902  15.660  0.00  0.00    +0.000 A 
ATOM     24  C   UNL     1      48.442   5.832  16.541  0.00  0.00    +0.000 A 
BRANCH  18  26
ATOM     25  N   UNL     1      49.328   7.254  19.615  0.00  0.00    +0.000 NA
ATOM     26  C   UNL     1      48.897   6.494  18.853  0.00  0.00    +0.000 C 
ENDBRANCH  18  26
ENDBRANCH  17  23
ENDBRANCH  16  17
ENDBRANCH   1  16
TORSDOF 6
ENDMDL
