MODEL 1
REMARK VINA RESULT:    -8.459      0.000      0.000
REMARK INTER + INTRA:         -13.311
REMARK INTER:                 -12.167
REMARK INTRA:                  -1.143
REMARK UNBOUND:                -1.143
REMARK  Name = 
REMARK  8 active torsions:
REMARK  status: ('A' for Active; 'I' for Inactive)
REMARK    1  A    between atoms: N_1  and  C_2
REMARK    2  A    between atoms: C_2  and  C_3
REMARK    3  A    between atoms: C_3  and  N_4
REMARK    4  A    between atoms: C_3  and  C_27
REMARK    5  A    between atoms: C_5  and  C_7
REMARK    6  A    between atoms: C_10  and  C_11
REMARK    7  A    between atoms: C_11  and  N_12
REMARK    8  A    between atoms: C_13  and  C_15
REMARK                            x       y       z     vdW  Elec       q    Type
REMARK                         _______ _______ _______ _____ _____    ______ ____
ROOT
ATOM      1  C   UNL     1      46.782   4.684  13.791  0.00  0.00    +0.000 A 
ATOM      2  C   UNL     1      47.393   5.870  13.386  0.00  0.00    +0.000 A 
ATOM      3  C   UNL     1      48.264   6.521  14.259  0.00  0.00    +0.000 A 
ATOM      4  C   UNL     1      48.491   5.970  15.518  0.00  0.00    +0.000 A 
ATOM      5  N   UNL     1      47.958   4.781  15.903  0.00  0.00    +0.000 NA
ATOM      6  C   UNL     1      47.132   4.163  15.027  0.00  0.00    +0.000 A 
ENDROOT
BRANCH   1   8
ATOM      7  N   UNL     1      45.171   4.827  11.990  0.00  0.00    +0.000 N 
ATOM      8  C   UNL     1      45.790   4.017  12.916  0.00  0.00    +0.000 C 
ATOM      9  O   UNL     1      45.597   2.813  13.023  0.00  0.00    +0.000 OA
ATOM     10  H   UNL     1      45.513   5.761  11.821  0.00  0.00    +0.000 HD
BRANCH   7  11
ATOM     11  C   UNL     1      44.173   4.327  11.045  0.00  0.00    +0.000 C 
BRANCH  11  12
ATOM     12  C   UNL     1      44.891   3.740   9.834  0.00  0.00    +0.000 A 
ATOM     13  C   UNL     1      45.481   4.605   8.895  0.00  0.00    +0.000 A 
ATOM     14  C   UNL     1      46.164   4.101   7.786  0.00  0.00    +0.000 A 
ATOM     15  C   UNL     1      46.262   2.726   7.589  0.00  0.00    +0.000 A 
ATOM     16  C   UNL     1      45.653   1.855   8.487  0.00  0.00    +0.000 A 
ATOM     17  C   UNL     1      44.962   2.358   9.592  0.00  0.00    +0.000 A 
ENDBRANCH  11  12
BRANCH  11  18
ATOM     18  C   UNL     1      43.164   5.459  10.678  0.00  0.00    +0.000 C 
BRANCH  18  19
ATOM     19  N   UNL     1      42.259   5.834  11.769  0.00  0.00    +0.000 NA
ATOM     20  H   UNL     1      41.837   6.739  11.571  0.00  0.00    +0.000 HD
ATOM     21  H   UNL     1      42.796   5.934  12.630  0.00  0.00    +0.000 HD
ENDBRANCH  18  19
ENDBRANCH  11  18
ENDBRANCH   7  11
ENDBRANCH   1   8
BRANCH   4  22
ATOM     22  C   UNL     1      49.359   6.687  16.521  0.00  0.00    +0.000 C 
BRANCH  22  23
ATOM     23  N   UNL     1      50.449   5.865  16.979  0.00  0.00    +0.000 N 
ATOM     24  C   UNL     1      50.536   5.393  18.262  0.00  0.00    +0.000 C 
ATOM     25  O   UNL     1      49.686   5.645  19.110  0.00  0.00    +0.000 OA
ATOM     26  H   UNL     1      51.269   5.855  16.382  0.00  0.00    +0.000 HD
BRANCH  24  27
ATOM     27  C   UNL     1      51.662   4.490  18.540  0.00  0.00    +0.000 A 
ATOM     28  C   UNL     1      52.739   4.941  19.287  0.00  0.00    +0.000 A 
ATOM     29  S   UNL     1      53.912   3.739  19.588  0.00  0.00    +0.000 S 
ATOM     30  C   UNL     1      53.044   2.588  18.684  0.00  0.00    +0.000 A 
ATOM     31  N   UNL     1      53.514   1.321  18.529  0.00  0.00    +0.000 NA
ATOM     32  C   UNL     1      52.774   0.564  17.790  0.00  0.00    +0.000 A 
ATOM     33  N   UNL     1      51.602   0.955  17.195  0.00  0.00    +0.000 N 
ATOM     34  C   UNL     1      51.071   2.212  17.356  0.00  0.00    +0.000 A 
ATOM     35  O   UNL     1      49.989   2.510  16.862  0.00  0.00    +0.000 OA
ATOM     36  C   UNL     1      51.872   3.109  18.166  0.00  0.00    +0.000 A 
ATOM     37  H   UNL     1      51.060   0.312  16.638  0.00  0.00    +0.000 HD
ENDBRANCH  24  27
ENDBRANCH  22  23
ENDBRANCH   4  22
TORSDOF 8
ENDMDL
MODEL 2
REMARK VINA RESULT:    -7.479      3.494      4.164
REMARK INTER + INTRA:         -11.902
REMARK INTER:                 -10.908
REMARK INTRA:                  -0.994
REMARK UNBOUND:                -1.143
REMARK  Name = 
REMARK  8 active torsions:
REMARK  status: ('A' for Active; 'I' for Inactive)
REMARK    1  A    between atoms: N_1  and  C_2
REMARK    2  A    between atoms: C_2  and  C_3
REMARK    3  A    between atoms: C_3  and  N_4
REMARK    4  A    between atoms: C_3  and  C_27
REMARK    5  A    between atoms: C_5  and  C_7
REMARK    6  A    between atoms: C_10  and  C_11
REMARK    7  A    between atoms: C_11  and  N_12
REMARK    8  A    between atoms: C_13  and  C_15
REMARK                            x       y       z     vdW  Elec       q    Type
REMARK                         _______ _______ _______ _____ _____    ______ ____
ROOT
ATOM      1  C   UNL     1      47.056   5.300  13.711  0.00  0.00    +0.000 A 
ATOM      2  C   UNL     1      47.509   6.471  13.105  0.00  0.00    +0.000 A 
ATOM      3  C   UNL     1      48.422   7.281  13.781  0.00  0.00    +0.000 A 
ATOM      4  C   UNL     1      48.850   6.896  15.050  0.00  0.00    +0.000 A 
ATOM      5  N   UNL     1      48.473   5.725  15.626  0.00  0.00    +0.000 NA
ATOM      6  C   UNL     1      47.600   4.953  14.938  0.00  0.00    +0.000 A 
ENDROOT
BRANCH   1   8
ATOM      7  N   UNL     1      45.207   5.125  12.158  0.00  0.00    +0.000 N 
ATOM      8  C   UNL     1      46.025   4.467  13.051  0.00  0.00    +0.000 C 
ATOM      9  O   UNL     1      45.967   3.268  13.290  0.00  0.00    +0.000 OA
ATOM     10  H   UNL     1      45.430   6.063  11.861  0.00  0.00    +0.000 HD
BRANCH   7  11
ATOM     11  C   UNL     1      44.144   4.450  11.416  0.00  0.00    +0.000 C 
BRANCH  11  12
ATOM     12  C   UNL     1      44.739   3.827  10.157  0.00  0.00    +0.000 A 
ATOM     13  C   UNL     1      45.343   4.658   9.196  0.00  0.00    +0.000 A 
ATOM     14  C   UNL     1      45.917   4.118   8.042  0.00  0.00    +0.000 A 
ATOM     15  C   UNL     1      45.888   2.744   7.823  0.00  0.00    +0.000 A 
ATOM     16  C   UNL     1      45.262   1.910   8.743  0.00  0.00    +0.000 A 
ATOM     17  C   UNL     1      44.680   2.449   9.894  0.00  0.00    +0.000 A 
ENDBRANCH  11  12
BRANCH  11  18
ATOM     18  C   UNL     1      42.977   5.443  11.123  0.00  0.00    +0.000 C 
BRANCH  18  19
ATOM     19  N   UNL     1      43.335   6.856  11.288  0.00  0.00    +0.000 NA
ATOM     20  H   UNL     1      44.093   6.944  11.961  0.00  0.00    +0.000 HD
ATOM     21  H   UNL     1      42.533   7.361  11.668  0.00  0.00    +0.000 HD
ENDBRANCH  18  19
ENDBRANCH  11  18
ENDBRANCH   7  11
ENDBRANCH   1   8
BRANCH   4  22
ATOM     22  C   UNL     1      49.771   7.785  15.847  0.00  0.00    +0.000 C 
BRANCH  22  23
ATOM     23  N   UNL     1      49.386   7.860  17.232  0.00  0.00    +0.000 N 
ATOM     24  C   UNL     1      48.384   8.680  17.681  0.00  0.00    +0.000 C 
ATOM     25  O   UNL     1      47.749   9.409  16.927  0.00  0.00    +0.000 OA
ATOM     26  H   UNL     1      50.049   7.467  17.891  0.00  0.00    +0.000 HD
BRANCH  24  27
ATOM     27  C   UNL     1      48.053   8.566  19.109  0.00  0.00    +0.000 A 
ATOM     28  C   UNL     1      47.849   9.713  19.862  0.00  0.00    +0.000 A 
ATOM     29  S   UNL     1      47.386   9.397  21.473  0.00  0.00    +0.000 S 
ATOM     30  C   UNL     1      47.496   7.716  21.234  0.00  0.00    +0.000 A 
ATOM     31  N   UNL     1      47.233   6.846  22.245  0.00  0.00    +0.000 NA
ATOM     32  C   UNL     1      47.390   5.602  21.935  0.00  0.00    +0.000 A 
ATOM     33  N   UNL     1      47.781   5.147  20.701  0.00  0.00    +0.000 N 
ATOM     34  C   UNL     1      48.018   5.987  19.641  0.00  0.00    +0.000 A 
ATOM     35  O   UNL     1      48.304   5.544  18.534  0.00  0.00    +0.000 OA
ATOM     36  C   UNL     1      47.871   7.398  19.940  0.00  0.00    +0.000 A 
ATOM     37  H   UNL     1      47.873   4.160  20.515  0.00  0.00    +0.000 HD
ENDBRANCH  24  27
ENDBRANCH  22  23
ENDBRANCH   4  22
TORSDOF 8
ENDMDL
MODEL 3
REMARK VINA RESULT:    -7.084      3.283      5.173
REMARK INTER + INTRA:         -11.334
REMARK INTER:                 -10.822
REMARK INTRA:                  -0.512
REMARK UNBOUND:                -1.143
REMARK  Name = 
REMARK  8 active torsions:
REMARK  status: ('A' for Active; 'I' for Inactive)
REMARK    1  A    between atoms: N_1  and  C_2
REMARK    2  A    between atoms: C_2  and  C_3
REMARK    3  A    between atoms: C_3  and  N_4
REMARK    4  A    between atoms: C_3  and  C_27
REMARK    5  A    between atoms: C_5  and  C_7
REMARK    6  A    between atoms: C_10  and  C_11
REMARK    7  A    between atoms: C_11  and  N_12
REMARK    8  A    between atoms: C_13  and  C_15
REMARK                            x       y       z     vdW  Elec       q    Type
REMARK                         _______ _______ _______ _____ _____    ______ ____
ROOT
ATOM      1  C   UNL     1      46.595   5.101  13.431  0.00  0.00    +0.000 A 
ATOM      2  C   UNL     1      47.447   6.182  13.652  0.00  0.00    +0.000 A 
ATOM      3  C   UNL     1      48.226   6.213  14.808  0.00  0.00    +0.000 A 
ATOM      4  C   UNL     1      48.124   5.160  15.715  0.00  0.00    +0.000 A 
ATOM      5  N   UNL     1      47.351   4.067  15.484  0.00  0.00    +0.000 NA
ATOM      6  C   UNL     1      46.621   4.058  14.345  0.00  0.00    +0.000 A 
ENDROOT
BRANCH   1   8
ATOM      7  N   UNL     1      45.160   3.857  11.931  0.00  0.00    +0.000 N 
ATOM      8  C   UNL     1      45.696   5.084  12.254  0.00  0.00    +0.000 C 
ATOM      9  O   UNL     1      45.447   6.126  11.663  0.00  0.00    +0.000 OA
ATOM     10  H   UNL     1      45.246   3.079  12.569  0.00  0.00    +0.000 HD
BRANCH   7  11
ATOM     11  C   UNL     1      44.247   3.666  10.804  0.00  0.00    +0.000 C 
BRANCH  11  12
ATOM     12  C   UNL     1      45.064   3.349   9.556  0.00  0.00    +0.000 A 
ATOM     13  C   UNL     1      45.486   4.399   8.722  0.00  0.00    +0.000 A 
ATOM     14  C   UNL     1      46.254   4.146   7.583  0.00  0.00    +0.000 A 
ATOM     15  C   UNL     1      46.603   2.840   7.250  0.00  0.00    +0.000 A 
ATOM     16  C   UNL     1      46.163   1.784   8.042  0.00  0.00    +0.000 A 
ATOM     17  C   UNL     1      45.388   2.035   9.177  0.00  0.00    +0.000 A 
ENDBRANCH  11  12
BRANCH  11  18
ATOM     18  C   UNL     1      43.326   4.913  10.641  0.00  0.00    +0.000 C 
BRANCH  18  19
ATOM     19  N   UNL     1      42.336   5.075  11.711  0.00  0.00    +0.000 NA
ATOM     20  H   UNL     1      42.322   4.243  12.297  0.00  0.00    +0.000 HD
ATOM     21  H   UNL     1      41.408   5.167  11.296  0.00  0.00    +0.000 HD
ENDBRANCH  18  19
ENDBRANCH  11  18
ENDBRANCH   7  11
ENDBRANCH   1   8
BRANCH   4  22
ATOM     22  C   UNL     1      48.887   5.196  17.016  0.00  0.00    +0.000 C 
BRANCH  22  23
ATOM     23  N   UNL     1      48.663   6.419  17.741  0.00  0.00    +0.000 N 
ATOM     24  C   UNL     1      47.630   6.579  18.627  0.00  0.00    +0.000 C 
ATOM     25  O   UNL     1      46.822   5.686  18.858  0.00  0.00    +0.000 OA
ATOM     26  H   UNL     1      49.154   7.232  17.387  0.00  0.00    +0.000 HD
BRANCH  24  27
ATOM     27  C   UNL     1      47.600   7.856  19.354  0.00  0.00    +0.000 A 
ATOM     28  C   UNL     1      47.482   7.860  20.736  0.00  0.00    +0.000 A 
ATOM     29  S   UNL     1      47.554   9.420  21.423  0.00  0.00    +0.000 S 
ATOM     30  C   UNL     1      47.692  10.148  19.891  0.00  0.00    +0.000 A 
ATOM     31  N   UNL     1      47.783  11.499  19.764  0.00  0.00    +0.000 NA
ATOM     32  C   UNL     1      47.846  11.918  18.544  0.00  0.00    +0.000 A 
ATOM     33  N   UNL     1      47.831  11.108  17.437  0.00  0.00    +0.000 N 
ATOM     34  C   UNL     1      47.780   9.738  17.520  0.00  0.00    +0.000 A 
ATOM     35  O   UNL     1      47.832   9.041  16.513  0.00  0.00    +0.000 OA
ATOM     36  C   UNL     1      47.692   9.215  18.869  0.00  0.00    +0.000 A 
ATOM     37  H   UNL     1      47.896  11.495  16.507  0.00  0.00    +0.000 HD
ENDBRANCH  24  27
ENDBRANCH  22  23
ENDBRANCH   4  22
TORSDOF 8
ENDMDL
MODEL 4
REMARK VINA RESULT:    -6.842      1.828      2.740
REMARK INTER + INTRA:         -10.986
REMARK INTER:                 -10.473
REMARK INTRA:                  -0.513
REMARK UNBOUND:                -1.143
REMARK  Name = 
REMARK  8 active torsions:
REMARK  status: ('A' for Active; 'I' for Inactive)
REMARK    1  A    between atoms: N_1  and  C_2
REMARK    2  A    between atoms: C_2  and  C_3
REMARK    3  A    between atoms: C_3  and  N_4
REMARK    4  A    between atoms: C_3  and  C_27
REMARK    5  A    between atoms: C_5  and  C_7
REMARK    6  A    between atoms: C_10  and  C_11
REMARK    7  A    between atoms: C_11  and  N_12
REMARK    8  A    between atoms: C_13  and  C_15
REMARK                            x       y       z     vdW  Elec       q    Type
REMARK                         _______ _______ _______ _____ _____    ______ ____
ROOT
ATOM      1  C   UNL     1      46.903   4.646  13.908  0.00  0.00    +0.000 A 
ATOM      2  C   UNL     1      47.105   5.498  14.992  0.00  0.00    +0.000 A 
ATOM      3  C   UNL     1      47.590   4.975  16.191  0.00  0.00    +0.000 A 
ATOM      4  C   UNL     1      47.850   3.609  16.271  0.00  0.00    +0.000 A 
ATOM      5  N   UNL     1      47.724   2.776  15.206  0.00  0.00    +0.000 NA
ATOM      6  C   UNL     1      47.270   3.316  14.051  0.00  0.00    +0.000 A 
ENDROOT
BRANCH   1   8
ATOM      7  N   UNL     1      45.221   4.464  12.176  0.00  0.00    +0.000 N 
ATOM      8  C   UNL     1      46.311   5.160  12.651  0.00  0.00    +0.000 C 
ATOM      9  O   UNL     1      46.774   6.165  12.127  0.00  0.00    +0.000 OA
ATOM     10  H   UNL     1      44.771   3.769  12.752  0.00  0.00    +0.000 HD
BRANCH   7  11
ATOM     11  C   UNL     1      44.514   4.842  10.954  0.00  0.00    +0.000 C 
BRANCH  11  12
ATOM     12  C   UNL     1      45.059   4.018   9.792  0.00  0.00    +0.000 A 
ATOM     13  C   UNL     1      45.687   4.672   8.717  0.00  0.00    +0.000 A 
ATOM     14  C   UNL     1      46.216   3.945   7.647  0.00  0.00    +0.000 A 
ATOM     15  C   UNL     1      46.119   2.556   7.628  0.00  0.00    +0.000 A 
ATOM     16  C   UNL     1      45.470   1.895   8.664  0.00  0.00    +0.000 A 
ATOM     17  C   UNL     1      44.932   2.620   9.730  0.00  0.00    +0.000 A 
ENDBRANCH  11  12
BRANCH  11  18
ATOM     18  C   UNL     1      44.622   6.381  10.724  0.00  0.00    +0.000 C 
BRANCH  18  19
ATOM     19  N   UNL     1      43.598   7.167  11.422  0.00  0.00    +0.000 NA
ATOM     20  H   UNL     1      42.814   6.567  11.672  0.00  0.00    +0.000 HD
ATOM     21  H   UNL     1      43.239   7.884  10.790  0.00  0.00    +0.000 HD
ENDBRANCH  18  19
ENDBRANCH  11  18
ENDBRANCH   7  11
ENDBRANCH   1   8
BRANCH   4  22
ATOM     22  C   UNL     1      48.295   2.991  17.573  0.00  0.00    +0.000 C 
BRANCH  22  23
ATOM     23  N   UNL     1      49.659   3.325  17.892  0.00  0.00    +0.000 N 
ATOM     24  C   UNL     1      50.729   2.619  17.410  0.00  0.00    +0.000 C 
ATOM     25  O   UNL     1      50.593   1.648  16.673  0.00  0.00    +0.000 OA
ATOM     26  H   UNL     1      49.782   3.950  18.681  0.00  0.00    +0.000 HD
BRANCH  24  27
ATOM     27  C   UNL     1      52.056   3.148  17.755  0.00  0.00    +0.000 A 
ATOM     28  C   UNL     1      52.994   2.321  18.354  0.00  0.00    +0.000 A 
ATOM     29  S   UNL     1      54.506   3.071  18.602  0.00  0.00    +0.000 S 
ATOM     30  C   UNL     1      53.941   4.545  17.966  0.00  0.00    +0.000 A 
ATOM     31  N   UNL     1      54.752   5.635  17.899  0.00  0.00    +0.000 NA
ATOM     32  C   UNL     1      54.184   6.695  17.428  0.00  0.00    +0.000 A 
ATOM     33  N   UNL     1      52.878   6.765  17.012  0.00  0.00    +0.000 N 
ATOM     34  C   UNL     1      52.036   5.679  17.026  0.00  0.00    +0.000 A 
ATOM     35  O   UNL     1      50.894   5.760  16.589  0.00  0.00    +0.000 OA
ATOM     36  C   UNL     1      52.620   4.465  17.561  0.00  0.00    +0.000 A 
ATOM     37  H   UNL     1      52.495   7.620  16.641  0.00  0.00    +0.000 HD
ENDBRANCH  24  27
ENDBRANCH  22  23
ENDBRANCH   4  22
TORSDOF 8
ENDMDL
MODEL 5
REMARK VINA RESULT:    -6.803      3.270     10.190
REMARK INTER + INTRA:         -10.929
REMARK INTER:                 -10.058
REMARK INTRA:                  -0.871
REMARK UNBOUND:                -1.143
REMARK  Name = 
REMARK  8 active torsions:
REMARK  status: ('A' for Active; 'I' for Inactive)
REMARK    1  A    between atoms: N_1  and  C_2
REMARK    2  A    between atoms: C_2  and  C_3
REMARK    3  A    between atoms: C_3  and  N_4
REMARK    4  A    between atoms: C_3  and  C_27
REMARK    5  A    between atoms: C_5  and  C_7
REMARK    6  A    between atoms: C_10  and  C_11
REMARK    7  A    between atoms: C_11  and  N_12
REMARK    8  A    between atoms: C_13  and  C_15
REMARK                            x       y       z     vdW  Elec       q    Type
REMARK                         _______ _______ _______ _____ _____    ______ ____
ROOT
ATOM      1  C   UNL     1      51.469   2.857  17.590  0.00  0.00    +0.000 A 
ATOM      2  C   UNL     1      50.666   1.851  17.056  0.00  0.00    +0.000 A 
ATOM      3  C   UNL     1      49.309   2.096  16.853  0.00  0.00    +0.000 A 
ATOM      4  C   UNL     1      48.792   3.343  17.200  0.00  0.00    +0.000 A 
ATOM      5  N   UNL     1      49.571   4.357  17.657  0.00  0.00    +0.000 NA
ATOM      6  C   UNL     1      50.888   4.094  17.826  0.00  0.00    +0.000 A 
ENDROOT
BRANCH   1   8
ATOM      7  N   UNL     1      53.198   1.305  18.270  0.00  0.00    +0.000 N 
ATOM      8  C   UNL     1      52.895   2.596  17.893  0.00  0.00    +0.000 C 
ATOM      9  O   UNL     1      53.719   3.492  17.766  0.00  0.00    +0.000 OA
ATOM     10  H   UNL     1      52.514   0.571  18.166  0.00  0.00    +0.000 HD
BRANCH   7  11
ATOM     11  C   UNL     1      54.558   0.876  18.595  0.00  0.00    +0.000 C 
BRANCH  11  12
ATOM     12  C   UNL     1      54.760  -0.548  18.090  0.00  0.00    +0.000 A 
ATOM     13  C   UNL     1      54.966  -0.770  16.716  0.00  0.00    +0.000 A 
ATOM     14  C   UNL     1      55.176  -2.060  16.222  0.00  0.00    +0.000 A 
ATOM     15  C   UNL     1      55.173  -3.150  17.089  0.00  0.00    +0.000 A 
ATOM     16  C   UNL     1      54.935  -2.955  18.445  0.00  0.00    +0.000 A 
ATOM     17  C   UNL     1      54.716  -1.666  18.939  0.00  0.00    +0.000 A 
ENDBRANCH  11  12
BRANCH  11  18
ATOM     18  C   UNL     1      54.820   1.034  20.125  0.00  0.00    +0.000 C 
BRANCH  18  19
ATOM     19  N   UNL     1      54.464   2.350  20.664  0.00  0.00    +0.000 NA
ATOM     20  H   UNL     1      54.184   2.259  21.639  0.00  0.00    +0.000 HD
ATOM     21  H   UNL     1      53.660   2.714  20.152  0.00  0.00    +0.000 HD
ENDBRANCH  18  19
ENDBRANCH  11  18
ENDBRANCH   7  11
ENDBRANCH   1   8
BRANCH   4  22
ATOM     22  C   UNL     1      47.315   3.619  17.074  0.00  0.00    +0.000 C 
BRANCH  22  23
ATOM     23  N   UNL     1      47.031   4.589  16.048  0.00  0.00    +0.000 N 
ATOM     24  C   UNL     1      47.027   4.279  14.713  0.00  0.00    +0.000 C 
ATOM     25  O   UNL     1      47.269   3.149  14.304  0.00  0.00    +0.000 OA
ATOM     26  H   UNL     1      47.076   5.559  16.339  0.00  0.00    +0.000 HD
BRANCH  24  27
ATOM     27  C   UNL     1      46.624   5.361  13.804  0.00  0.00    +0.000 A 
ATOM     28  C   UNL     1      47.481   6.429  13.582  0.00  0.00    +0.000 A 
ATOM     29  S   UNL     1      46.895   7.546  12.433  0.00  0.00    +0.000 S 
ATOM     30  C   UNL     1      45.452   6.667  12.233  0.00  0.00    +0.000 A 
ATOM     31  N   UNL     1      44.485   7.095  11.377  0.00  0.00    +0.000 NA
ATOM     32  C   UNL     1      43.428   6.353  11.351  0.00  0.00    +0.000 A 
ATOM     33  N   UNL     1      43.252   5.216  12.098  0.00  0.00    +0.000 N 
ATOM     34  C   UNL     1      44.217   4.727  12.945  0.00  0.00    +0.000 A 
ATOM     35  O   UNL     1      44.052   3.674  13.551  0.00  0.00    +0.000 OA
ATOM     36  C   UNL     1      45.419   5.533  13.024  0.00  0.00    +0.000 A 
ATOM     37  H   UNL     1      42.407   4.670  12.024  0.00  0.00    +0.000 HD
ENDBRANCH  24  27
ENDBRANCH  22  23
ENDBRANCH   4  22
TORSDOF 8
ENDMDL
MODEL 6
REMARK VINA RESULT:    -6.756      3.446      9.359
REMARK INTER + INTRA:         -10.862
REMARK INTER:                  -9.912
REMARK INTRA:                  -0.950
REMARK UNBOUND:                -1.143
REMARK  Name = 
REMARK  8 active torsions:
REMARK  status: ('A' for Active; 'I' for Inactive)
REMARK    1  A    between atoms: N_1  and  C_2
REMARK    2  A    between atoms: C_2  and  C_3
REMARK    3  A    between atoms: C_3  and  N_4
REMARK    4  A    between atoms: C_3  and  C_27
REMARK    5  A    between atoms: C_5  and  C_7
REMARK    6  A    between atoms: C_10  and  C_11
REMARK    7  A    between atoms: C_11  and  N_12
REMARK    8  A    between atoms: C_13  and  C_15
REMARK                            x       y       z     vdW  Elec       q    Type
REMARK                         _______ _______ _______ _____ _____    ______ ____
ROOT
ATOM      1  C   UNL     1      50.305   7.182  15.510  0.00  0.00    +0.000 A 
ATOM      2  C   UNL     1      51.015   7.904  14.552  0.00  0.00    +0.000 A 
ATOM      3  C   UNL     1      50.388   8.252  13.356  0.00  0.00    +0.000 A 
ATOM      4  C   UNL     1      49.067   7.859  13.151  0.00  0.00    +0.000 A 
ATOM      5  N   UNL     1      48.339   7.215  14.100  0.00  0.00    +0.000 NA
ATOM      6  C   UNL     1      48.970   6.907  15.257  0.00  0.00    +0.000 A 
ENDROOT
BRANCH   1   8
ATOM      7  N   UNL     1      50.523   5.531  17.267  0.00  0.00    +0.000 N 
ATOM      8  C   UNL     1      50.973   6.727  16.752  0.00  0.00    +0.000 C 
ATOM      9  O   UNL     1      51.885   7.388  17.229  0.00  0.00    +0.000 OA
ATOM     10  H   UNL     1      49.909   4.941  16.725  0.00  0.00    +0.000 HD
BRANCH   7  11
ATOM     11  C   UNL     1      51.079   4.936  18.482  0.00  0.00    +0.000 C 
BRANCH  11  12
ATOM     12  C   UNL     1      51.592   3.537  18.156  0.00  0.00    +0.000 A 
ATOM     13  C   UNL     1      52.920   3.199  18.469  0.00  0.00    +0.000 A 
ATOM     14  C   UNL     1      53.417   1.921  18.204  0.00  0.00    +0.000 A 
ATOM     15  C   UNL     1      52.599   0.962  17.611  0.00  0.00    +0.000 A 
ATOM     16  C   UNL     1      51.294   1.289  17.260  0.00  0.00    +0.000 A 
ATOM     17  C   UNL     1      50.799   2.570  17.517  0.00  0.00    +0.000 A 
ENDBRANCH  11  12
BRANCH  11  18
ATOM     18  C   UNL     1      50.017   4.955  19.625  0.00  0.00    +0.000 C 
BRANCH  18  19
ATOM     19  N   UNL     1      50.554   4.625  20.949  0.00  0.00    +0.000 NA
ATOM     20  H   UNL     1      51.197   5.353  21.252  0.00  0.00    +0.000 HD
ATOM     21  H   UNL     1      51.088   3.758  20.887  0.00  0.00    +0.000 HD
ENDBRANCH  18  19
ENDBRANCH  11  18
ENDBRANCH   7  11
ENDBRANCH   1   8
BRANCH   4  22
ATOM     22  C   UNL     1      48.381   8.144  11.838  0.00  0.00    +0.000 C 
BRANCH  22  23
ATOM     23  N   UNL     1      47.632   7.010  11.362  0.00  0.00    +0.000 N 
ATOM     24  C   UNL     1      46.264   6.954  11.399  0.00  0.00    +0.000 C 
ATOM     25  O   UNL     1      45.584   7.872  11.846  0.00  0.00    +0.000 OA
ATOM     26  H   UNL     1      48.167   6.159  11.226  0.00  0.00    +0.000 HD
BRANCH  24  27
ATOM     27  C   UNL     1      45.652   5.766  10.786  0.00  0.00    +0.000 A 
ATOM     28  C   UNL     1      45.840   5.513   9.435  0.00  0.00    +0.000 A 
ATOM     29  S   UNL     1      45.137   4.050   8.911  0.00  0.00    +0.000 S 
ATOM     30  C   UNL     1      44.512   3.731  10.462  0.00  0.00    +0.000 A 
ATOM     31  N   UNL     1      43.779   2.611  10.703  0.00  0.00    +0.000 NA
ATOM     32  C   UNL     1      43.336   2.514  11.913  0.00  0.00    +0.000 A 
ATOM     33  N   UNL     1      43.565   3.431  12.907  0.00  0.00    +0.000 N 
ATOM     34  C   UNL     1      44.332   4.555  12.717  0.00  0.00    +0.000 A 
ATOM     35  O   UNL     1      44.569   5.323  13.643  0.00  0.00    +0.000 OA
ATOM     36  C   UNL     1      44.841   4.722  11.369  0.00  0.00    +0.000 A 
ATOM     37  H   UNL     1      43.203   3.292  13.838  0.00  0.00    +0.000 HD
ENDBRANCH  24  27
ENDBRANCH  22  23
ENDBRANCH   4  22
TORSDOF 8
ENDMDL
MODEL 7
REMARK VINA RESULT:    -6.683      3.359      9.617
REMARK INTER + INTRA:         -10.756
REMARK INTER:                  -9.788
REMARK INTRA:                  -0.969
REMARK UNBOUND:                -1.143
REMARK  Name = 
REMARK  8 active torsions:
REMARK  status: ('A' for Active; 'I' for Inactive)
REMARK    1  A    between atoms: N_1  and  C_2
REMARK    2  A    between atoms: C_2  and  C_3
REMARK    3  A    between atoms: C_3  and  N_4
REMARK    4  A    between atoms: C_3  and  C_27
REMARK    5  A    between atoms: C_5  and  C_7
REMARK    6  A    between atoms: C_10  and  C_11
REMARK    7  A    between atoms: C_11  and  N_12
REMARK    8  A    between atoms: C_13  and  C_15
REMARK                            x       y       z     vdW  Elec       q    Type
REMARK                         _______ _______ _______ _____ _____    ______ ____
ROOT
ATOM      1  C   UNL     1      50.198   7.138  15.348  0.00  0.00    +0.000 A 
ATOM      2  C   UNL     1      50.670   7.800  14.216  0.00  0.00    +0.000 A 
ATOM      3  C   UNL     1      49.808   8.015  13.142  0.00  0.00    +0.000 A 
ATOM      4  C   UNL     1      48.496   7.554  13.230  0.00  0.00    +0.000 A 
ATOM      5  N   UNL     1      48.000   6.968  14.351  0.00  0.00    +0.000 NA
ATOM      6  C   UNL     1      48.856   6.789  15.383  0.00  0.00    +0.000 A 
ENDROOT
BRANCH   1   8
ATOM      7  N   UNL     1      50.840   5.659  17.155  0.00  0.00    +0.000 N 
ATOM      8  C   UNL     1      51.115   6.822  16.468  0.00  0.00    +0.000 C 
ATOM      9  O   UNL     1      52.062   7.559  16.705  0.00  0.00    +0.000 OA
ATOM     10  H   UNL     1      50.169   5.000  16.790  0.00  0.00    +0.000 HD
BRANCH   7  11
ATOM     11  C   UNL     1      51.650   5.197  18.280  0.00  0.00    +0.000 C 
BRANCH  11  12
ATOM     12  C   UNL     1      51.976   3.721  18.080  0.00  0.00    +0.000 A 
ATOM     13  C   UNL     1      50.994   2.862  17.556  0.00  0.00    +0.000 A 
ATOM     14  C   UNL     1      51.266   1.508  17.340  0.00  0.00    +0.000 A 
ATOM     15  C   UNL     1      52.519   0.988  17.654  0.00  0.00    +0.000 A 
ATOM     16  C   UNL     1      53.491   1.814  18.208  0.00  0.00    +0.000 A 
ATOM     17  C   UNL     1      53.218   3.165  18.432  0.00  0.00    +0.000 A 
ENDBRANCH  11  12
BRANCH  11  18
ATOM     18  C   UNL     1      50.919   5.492  19.626  0.00  0.00    +0.000 C 
BRANCH  18  19
ATOM     19  N   UNL     1      51.275   4.579  20.718  0.00  0.00    +0.000 NA
ATOM     20  H   UNL     1      51.801   3.790  20.349  0.00  0.00    +0.000 HD
ATOM     21  H   UNL     1      50.421   4.206  21.132  0.00  0.00    +0.000 HD
ENDBRANCH  18  19
ENDBRANCH  11  18
ENDBRANCH   7  11
ENDBRANCH   1   8
BRANCH   4  22
ATOM     22  C   UNL     1      47.557   7.693  12.058  0.00  0.00    +0.000 C 
BRANCH  22  23
ATOM     23  N   UNL     1      46.847   6.471  11.785  0.00  0.00    +0.000 N 
ATOM     24  C   UNL     1      45.510   6.316  12.037  0.00  0.00    +0.000 C 
ATOM     25  O   UNL     1      44.827   7.214  12.517  0.00  0.00    +0.000 OA
ATOM     26  H   UNL     1      47.428   5.654  11.629  0.00  0.00    +0.000 HD
BRANCH  24  27
ATOM     27  C   UNL     1      44.920   5.038  11.612  0.00  0.00    +0.000 A 
ATOM     28  C   UNL     1      44.168   4.294  12.509  0.00  0.00    +0.000 A 
ATOM     29  S   UNL     1      43.486   2.888  11.825  0.00  0.00    +0.000 S 
ATOM     30  C   UNL     1      44.217   3.198  10.320  0.00  0.00    +0.000 A 
ATOM     31  N   UNL     1      44.043   2.352   9.270  0.00  0.00    +0.000 NA
ATOM     32  C   UNL     1      44.684   2.689   8.200  0.00  0.00    +0.000 A 
ATOM     33  N   UNL     1      45.478   3.801   8.081  0.00  0.00    +0.000 N 
ATOM     34  C   UNL     1      45.650   4.703   9.103  0.00  0.00    +0.000 A 
ATOM     35  O   UNL     1      46.316   5.720   8.944  0.00  0.00    +0.000 OA
ATOM     36  C   UNL     1      44.964   4.362  10.334  0.00  0.00    +0.000 A 
ATOM     37  H   UNL     1      45.943   4.019   7.213  0.00  0.00    +0.000 HD
ENDBRANCH  24  27
ENDBRANCH  22  23
ENDBRANCH   4  22
TORSDOF 8
ENDMDL
MODEL 8
REMARK VINA RESULT:    -6.654      5.209     10.218
REMARK INTER + INTRA:         -10.715
REMARK INTER:                  -9.477
REMARK INTRA:                  -1.238
REMARK UNBOUND:                -1.143
REMARK  Name = 
REMARK  8 active torsions:
REMARK  status: ('A' for Active; 'I' for Inactive)
REMARK    1  A    between atoms: N_1  and  C_2
REMARK    2  A    between atoms: C_2  and  C_3
REMARK    3  A    between atoms: C_3  and  N_4
REMARK    4  A    between atoms: C_3  and  C_27
REMARK    5  A    between atoms: C_5  and  C_7
REMARK    6  A    between atoms: C_10  and  C_11
REMARK    7  A    between atoms: C_11  and  N_12
REMARK    8  A    between atoms: C_13  and  C_15
REMARK                            x       y       z     vdW  Elec       q    Type
REMARK                         _______ _______ _______ _____ _____    ______ ____
ROOT
ATOM      1  C   UNL     1      47.786   7.318  19.528  0.00  0.00    +0.000 A 
ATOM      2  C   UNL     1      47.335   6.006  19.670  0.00  0.00    +0.000 A 
ATOM      3  C   UNL     1      47.463   5.121  18.600  0.00  0.00    +0.000 A 
ATOM      4  C   UNL     1      48.033   5.578  17.414  0.00  0.00    +0.000 A 
ATOM      5  N   UNL     1      48.540   6.832  17.281  0.00  0.00    +0.000 NA
ATOM      6  C   UNL     1      48.418   7.662  18.343  0.00  0.00    +0.000 A 
ENDROOT
BRANCH   1   8
ATOM      7  N   UNL     1      47.677   9.625  20.252  0.00  0.00    +0.000 N 
ATOM      8  C   UNL     1      47.587   8.300  20.619  0.00  0.00    +0.000 C 
ATOM      9  O   UNL     1      47.324   7.910  21.748  0.00  0.00    +0.000 OA
ATOM     10  H   UNL     1      47.700   9.883  19.276  0.00  0.00    +0.000 HD
BRANCH   7  11
ATOM     11  C   UNL     1      47.498  10.722  21.202  0.00  0.00    +0.000 C 
BRANCH  11  12
ATOM     12  C   UNL     1      46.034  11.147  21.196  0.00  0.00    +0.000 A 
ATOM     13  C   UNL     1      45.585  12.061  20.227  0.00  0.00    +0.000 A 
ATOM     14  C   UNL     1      44.245  12.456  20.179  0.00  0.00    +0.000 A 
ATOM     15  C   UNL     1      43.334  11.952  21.104  0.00  0.00    +0.000 A 
ATOM     16  C   UNL     1      43.767  11.075  22.093  0.00  0.00    +0.000 A 
ATOM     17  C   UNL     1      45.108  10.687  22.147  0.00  0.00    +0.000 A 
ENDBRANCH  11  12
BRANCH  11  18
ATOM     18  C   UNL     1      48.482  11.886  20.872  0.00  0.00    +0.000 C 
BRANCH  18  19
ATOM     19  N   UNL     1      49.335  11.640  19.705  0.00  0.00    +0.000 NA
ATOM     20  H   UNL     1      49.351  12.465  19.109  0.00  0.00    +0.000 HD
ATOM     21  H   UNL     1      48.937  10.878  19.155  0.00  0.00    +0.000 HD
ENDBRANCH  18  19
ENDBRANCH  11  18
ENDBRANCH   7  11
ENDBRANCH   1   8
BRANCH   4  22
ATOM     22  C   UNL     1      48.113   4.677  16.207  0.00  0.00    +0.000 C 
BRANCH  22  23
ATOM     23  N   UNL     1      47.142   5.027  15.204  0.00  0.00    +0.000 N 
ATOM     24  C   UNL     1      47.464   5.726  14.071  0.00  0.00    +0.000 C 
ATOM     25  O   UNL     1      48.607   6.103  13.838  0.00  0.00    +0.000 OA
ATOM     26  H   UNL     1      46.172   4.949  15.490  0.00  0.00    +0.000 HD
BRANCH  24  27
ATOM     27  C   UNL     1      46.373   5.919  13.104  0.00  0.00    +0.000 A 
ATOM     28  C   UNL     1      46.014   7.201  12.716  0.00  0.00    +0.000 A 
ATOM     29  S   UNL     1      44.795   7.237  11.524  0.00  0.00    +0.000 S 
ATOM     30  C   UNL     1      44.666   5.540  11.525  0.00  0.00    +0.000 A 
ATOM     31  N   UNL     1      43.775   4.906  10.718  0.00  0.00    +0.000 NA
ATOM     32  C   UNL     1      43.758   3.621  10.847  0.00  0.00    +0.000 A 
ATOM     33  N   UNL     1      44.558   2.910  11.706  0.00  0.00    +0.000 N 
ATOM     34  C   UNL     1      45.499   3.507  12.509  0.00  0.00    +0.000 A 
ATOM     35  O   UNL     1      46.240   2.837  13.220  0.00  0.00    +0.000 OA
ATOM     36  C   UNL     1      45.547   4.953  12.415  0.00  0.00    +0.000 A 
ATOM     37  H   UNL     1      44.507   1.904  11.752  0.00  0.00    +0.000 HD
ENDBRANCH  24  27
ENDBRANCH  22  23
ENDBRANCH   4  22
TORSDOF 8
ENDMDL
MODEL 9
REMARK VINA RESULT:    -6.394      3.710      9.876
REMARK INTER + INTRA:         -10.341
REMARK INTER:                  -9.056
REMARK INTRA:                  -1.285
REMARK UNBOUND:                -1.143
REMARK  Name = 
REMARK  8 active torsions:
REMARK  status: ('A' for Active; 'I' for Inactive)
REMARK    1  A    between atoms: N_1  and  C_2
REMARK    2  A    between atoms: C_2  and  C_3
REMARK    3  A    between atoms: C_3  and  N_4
REMARK    4  A    between atoms: C_3  and  C_27
REMARK    5  A    between atoms: C_5  and  C_7
REMARK    6  A    between atoms: C_10  and  C_11
REMARK    7  A    between atoms: C_11  and  N_12
REMARK    8  A    between atoms: C_13  and  C_15
REMARK                            x       y       z     vdW  Elec       q    Type
REMARK                         _______ _______ _______ _____ _____    ______ ____
ROOT
ATOM      1  C   UNL     1      51.372   2.923  17.702  0.00  0.00    +0.000 A 
ATOM      2  C   UNL     1      50.807   4.110  18.165  0.00  0.00    +0.000 A 
ATOM      3  C   UNL     1      49.454   4.357  17.933  0.00  0.00    +0.000 A 
ATOM      4  C   UNL     1      48.707   3.410  17.235  0.00  0.00    +0.000 A 
ATOM      5  N   UNL     1      49.225   2.219  16.837  0.00  0.00    +0.000 NA
ATOM      6  C   UNL     1      50.536   2.000  17.093  0.00  0.00    +0.000 A 
ENDROOT
BRANCH   1   8
ATOM      7  N   UNL     1      53.174   1.381  18.188  0.00  0.00    +0.000 N 
ATOM      8  C   UNL     1      52.824   2.674  17.862  0.00  0.00    +0.000 C 
ATOM      9  O   UNL     1      53.622   3.580  17.669  0.00  0.00    +0.000 OA
ATOM     10  H   UNL     1      52.490   0.641  18.140  0.00  0.00    +0.000 HD
BRANCH   7  11
ATOM     11  C   UNL     1      54.563   0.963  18.374  0.00  0.00    +0.000 C 
BRANCH  11  12
ATOM     12  C   UNL     1      54.738  -0.437  17.796  0.00  0.00    +0.000 A 
ATOM     13  C   UNL     1      54.695  -1.549  18.655  0.00  0.00    +0.000 A 
ATOM     14  C   UNL     1      54.831  -2.847  18.156  0.00  0.00    +0.000 A 
ATOM     15  C   UNL     1      55.023  -3.056  16.793  0.00  0.00    +0.000 A 
ATOM     16  C   UNL     1      55.106  -1.966  15.932  0.00  0.00    +0.000 A 
ATOM     17  C   UNL     1      54.979  -0.668  16.431  0.00  0.00    +0.000 A 
ENDBRANCH  11  12
BRANCH  11  18
ATOM     18  C   UNL     1      54.958   1.065  19.880  0.00  0.00    +0.000 C 
BRANCH  18  19
ATOM     19  N   UNL     1      54.895   2.424  20.428  0.00  0.00    +0.000 NA
ATOM     20  H   UNL     1      55.406   3.064  19.823  0.00  0.00    +0.000 HD
ATOM     21  H   UNL     1      55.355   2.438  21.338  0.00  0.00    +0.000 HD
ENDBRANCH  18  19
ENDBRANCH  11  18
ENDBRANCH   7  11
ENDBRANCH   1   8
BRANCH   4  22
ATOM     22  C   UNL     1      47.263   3.677  16.892  0.00  0.00    +0.000 C 
BRANCH  22  23
ATOM     23  N   UNL     1      47.127   4.672  15.861  0.00  0.00    +0.000 N 
ATOM     24  C   UNL     1      47.112   4.362  14.526  0.00  0.00    +0.000 C 
ATOM     25  O   UNL     1      47.216   3.210  14.122  0.00  0.00    +0.000 OA
ATOM     26  H   UNL     1      47.290   5.629  16.154  0.00  0.00    +0.000 HD
BRANCH  24  27
ATOM     27  C   UNL     1      46.870   5.485  13.609  0.00  0.00    +0.000 A 
ATOM     28  C   UNL     1      45.751   5.477  12.790  0.00  0.00    +0.000 A 
ATOM     29  S   UNL     1      45.578   6.895  11.857  0.00  0.00    +0.000 S 
ATOM     30  C   UNL     1      47.024   7.545  12.476  0.00  0.00    +0.000 A 
ATOM     31  N   UNL     1      47.474   8.762  12.070  0.00  0.00    +0.000 NA
ATOM     32  C   UNL     1      48.602   9.116  12.593  0.00  0.00    +0.000 A 
ATOM     33  N   UNL     1      49.318   8.365  13.490  0.00  0.00    +0.000 N 
ATOM     34  C   UNL     1      48.882   7.149  13.956  0.00  0.00    +0.000 A 
ATOM     35  O   UNL     1      49.515   6.533  14.806  0.00  0.00    +0.000 OA
ATOM     36  C   UNL     1      47.627   6.697  13.388  0.00  0.00    +0.000 A 
ATOM     37  H   UNL     1      50.188   8.703  13.874  0.00  0.00    +0.000 HD
ENDBRANCH  24  27
ENDBRANCH  22  23
ENDBRANCH   4  22
TORSDOF 8
ENDMDL
