MODEL 1
REMARK VINA RESULT:    -8.379      0.000      0.000
REMARK INTER + INTRA:         -12.698
REMARK INTER:                 -11.808
REMARK INTRA:                  -0.890
REMARK UNBOUND:                -0.890
REMARK  Name = 
REMARK  7 active torsions:
REMARK  status: ('A' for Active; 'I' for Inactive)
REMARK    1  A    between atoms: C_2  and  C_20
REMARK    2  A    between atoms: N_3  and  C_4
REMARK    3  A    between atoms: C_4  and  C_5
REMARK    4  A    between atoms: C_8  and  C_9
REMARK    5  A    between atoms: C_9  and  N_10
REMARK    6  A    between atoms: N_10  and  C_11
REMARK    7  A    between atoms: C_11  and  C_12
REMARK                            x       y       z     vdW  Elec       q    Type
REMARK                         _______ _______ _______ _____ _____    ______ ____
ROOT
ATOM      1  C   UNL     1      46.320   7.183  12.501  0.00  0.00    +0.000 A 
ATOM      2  C   UNL     1      47.094   6.123  12.989  0.00  0.00    +0.000 A 
ATOM      3  C   UNL     1      48.063   6.340  13.970  0.00  0.00    +0.000 A 
ATOM      4  C   UNL     1      48.286   7.625  14.487  0.00  0.00    +0.000 A 
ATOM      5  C   UNL     1      47.496   8.681  14.017  0.00  0.00    +0.000 A 
ATOM      6  C   UNL     1      46.522   8.462  13.036  0.00  0.00    +0.000 A 
ENDROOT
BRANCH   1   7
ATOM      7  C   UNL     1      45.263   6.960  11.447  0.00  0.00    +0.000 C 
BRANCH   7  10
ATOM      8  O   UNL     1      42.869   5.555  10.768  0.00  0.00    +0.000 OA
ATOM      9  C   UNL     1      43.960   5.002  10.691  0.00  0.00    +0.000 C 
ATOM     10  N   UNL     1      45.139   5.561  11.135  0.00  0.00    +0.000 N 
ATOM     11  H   UNL     1      45.972   5.025  10.904  0.00  0.00    +0.000 HD
BRANCH   9  12
ATOM     12  C   UNL     1      44.187   3.725   9.990  0.00  0.00    +0.000 A 
ATOM     13  N   UNL     1      43.725   2.565  10.513  0.00  0.00    +0.000 NA
ATOM     14  N   UNL     1      44.372   1.622   9.813  0.00  0.00    +0.000 N 
ATOM     15  C   UNL     1      45.266   2.114   8.905  0.00  0.00    +0.000 A 
ATOM     16  C   UNL     1      46.262   1.489   8.152  0.00  0.00    +0.000 A 
ATOM     17  C   UNL     1      46.969   2.288   7.249  0.00  0.00    +0.000 A 
ATOM     18  C   UNL     1      46.648   3.635   7.076  0.00  0.00    +0.000 A 
ATOM     19  C   UNL     1      45.686   4.253   7.886  0.00  0.00    +0.000 A 
ATOM     20  C   UNL     1      45.019   3.482   8.856  0.00  0.00    +0.000 A 
ATOM     21  H   UNL     1      44.191   0.649  10.035  0.00  0.00    +0.000 HD
ENDBRANCH   9  12
ENDBRANCH   7  10
ENDBRANCH   1   7
BRANCH   4  22
ATOM     22  C   UNL     1      49.363   7.863  15.522  0.00  0.00    +0.000 C 
BRANCH  22  23
ATOM     23  N   UNL     1      50.219   6.690  15.649  0.00  0.00    +0.000 NA
ATOM     24  H   UNL     1      51.181   6.939  15.410  0.00  0.00    +0.000 HD
BRANCH  23  25
ATOM     25  C   UNL     1      50.224   6.156  17.021  0.00  0.00    +0.000 C 
BRANCH  25  26
ATOM     26  C   UNL     1      49.281   4.972  17.181  0.00  0.00    +0.000 A 
ATOM     27  N   UNL     1      49.807   3.733  17.038  0.00  0.00    +0.000 NA
ATOM     28  C   UNL     1      48.944   2.704  17.123  0.00  0.00    +0.000 A 
ATOM     29  C   UNL     1      47.599   2.858  17.356  0.00  0.00    +0.000 A 
ATOM     30  C   UNL     1      47.166   4.152  17.509  0.00  0.00    +0.000 A 
ATOM     31  N   UNL     1      47.979   5.224  17.432  0.00  0.00    +0.000 NA
ENDBRANCH  25  26
ENDBRANCH  23  25
ENDBRANCH  22  23
ENDBRANCH   4  22
TORSDOF 7
ENDMDL
MODEL 2
REMARK VINA RESULT:    -8.085      2.708      9.322
REMARK INTER + INTRA:         -12.284
REMARK INTER:                 -11.564
REMARK INTRA:                  -0.720
REMARK UNBOUND:                -0.890
REMARK  Name = 
REMARK  7 active torsions:
REMARK  status: ('A' for Active; 'I' for Inactive)
REMARK    1  A    between atoms: C_2  and  C_20
REMARK    2  A    between atoms: N_3  and  C_4
REMARK    3  A    between atoms: C_4  and  C_5
REMARK    4  A    between atoms: C_8  and  C_9
REMARK    5  A    between atoms: C_9  and  N_10
REMARK    6  A    between atoms: N_10  and  C_11
REMARK    7  A    between atoms: C_11  and  C_12
REMARK                            x       y       z     vdW  Elec       q    Type
REMARK                         _______ _______ _______ _____ _____    ______ ____
ROOT
ATOM      1  C   UNL     1      46.876   5.965  13.086  0.00  0.00    +0.000 A 
ATOM      2  C   UNL     1      46.736   6.514  11.806  0.00  0.00    +0.000 A 
ATOM      3  C   UNL     1      45.662   6.156  10.990  0.00  0.00    +0.000 A 
ATOM      4  C   UNL     1      44.701   5.235  11.432  0.00  0.00    +0.000 A 
ATOM      5  C   UNL     1      44.827   4.703  12.722  0.00  0.00    +0.000 A 
ATOM      6  C   UNL     1      45.902   5.066  13.540  0.00  0.00    +0.000 A 
ENDROOT
BRANCH   1   7
ATOM      7  C   UNL     1      48.028   6.352  13.981  0.00  0.00    +0.000 C 
BRANCH   7  10
ATOM      8  O   UNL     1      50.027   6.089  16.008  0.00  0.00    +0.000 OA
ATOM      9  C   UNL     1      48.852   5.841  16.254  0.00  0.00    +0.000 C 
ATOM     10  N   UNL     1      47.857   5.803  15.301  0.00  0.00    +0.000 N 
ATOM     11  H   UNL     1      46.918   5.691  15.676  0.00  0.00    +0.000 HD
BRANCH   9  12
ATOM     12  C   UNL     1      48.312   5.684  17.617  0.00  0.00    +0.000 A 
ATOM     13  N   UNL     1      47.210   4.927  17.834  0.00  0.00    +0.000 NA
ATOM     14  N   UNL     1      46.832   5.266  19.075  0.00  0.00    +0.000 N 
ATOM     15  C   UNL     1      47.601   6.241  19.647  0.00  0.00    +0.000 A 
ATOM     16  C   UNL     1      47.423   7.003  20.803  0.00  0.00    +0.000 A 
ATOM     17  C   UNL     1      48.452   7.884  21.147  0.00  0.00    +0.000 A 
ATOM     18  C   UNL     1      49.624   7.950  20.392  0.00  0.00    +0.000 A 
ATOM     19  C   UNL     1      49.754   7.219  19.203  0.00  0.00    +0.000 A 
ATOM     20  C   UNL     1      48.693   6.387  18.799  0.00  0.00    +0.000 A 
ATOM     21  H   UNL     1      46.007   4.825  19.464  0.00  0.00    +0.000 HD
ENDBRANCH   9  12
ENDBRANCH   7  10
ENDBRANCH   1   7
BRANCH   4  22
ATOM     22  C   UNL     1      43.559   4.819  10.530  0.00  0.00    +0.000 C 
BRANCH  22  23
ATOM     23  N   UNL     1      44.066   4.316   9.260  0.00  0.00    +0.000 NA
ATOM     24  H   UNL     1      44.920   4.817   9.008  0.00  0.00    +0.000 HD
BRANCH  23  25
ATOM     25  C   UNL     1      44.394   2.882   9.328  0.00  0.00    +0.000 C 
BRANCH  25  26
ATOM     26  C   UNL     1      45.574   2.518   8.436  0.00  0.00    +0.000 A 
ATOM     27  N   UNL     1      46.121   3.508   7.693  0.00  0.00    +0.000 NA
ATOM     28  C   UNL     1      47.122   3.151   6.867  0.00  0.00    +0.000 A 
ATOM     29  C   UNL     1      47.601   1.868   6.764  0.00  0.00    +0.000 A 
ATOM     30  C   UNL     1      46.993   0.940   7.574  0.00  0.00    +0.000 A 
ATOM     31  N   UNL     1      45.987   1.233   8.419  0.00  0.00    +0.000 NA
ENDBRANCH  25  26
ENDBRANCH  23  25
ENDBRANCH  22  23
ENDBRANCH   4  22
TORSDOF 7
ENDMDL
MODEL 3
REMARK VINA RESULT:    -7.909      2.103      8.432
REMARK INTER + INTRA:         -12.036
REMARK INTER:                 -10.989
REMARK INTRA:                  -1.047
REMARK UNBOUND:                -0.890
REMARK  Name = 
REMARK  7 active torsions:
REMARK  status: ('A' for Active; 'I' for Inactive)
REMARK    1  A    between atoms: C_2  and  C_20
REMARK    2  A    between atoms: N_3  and  C_4
REMARK    3  A    between atoms: C_4  and  C_5
REMARK    4  A    between atoms: C_8  and  C_9
REMARK    5  A    between atoms: C_9  and  N_10
REMARK    6  A    between atoms: N_10  and  C_11
REMARK    7  A    between atoms: C_11  and  C_12
REMARK                            x       y       z     vdW  Elec       q    Type
REMARK                         _______ _______ _______ _____ _____    ______ ____
ROOT
ATOM      1  C   UNL     1      47.416   6.369  12.510  0.00  0.00    +0.000 A 
ATOM      2  C   UNL     1      46.577   6.570  11.407  0.00  0.00    +0.000 A 
ATOM      3  C   UNL     1      45.538   5.680  11.130  0.00  0.00    +0.000 A 
ATOM      4  C   UNL     1      45.314   4.561  11.947  0.00  0.00    +0.000 A 
ATOM      5  C   UNL     1      46.137   4.373  13.064  0.00  0.00    +0.000 A 
ATOM      6  C   UNL     1      47.175   5.268  13.343  0.00  0.00    +0.000 A 
ENDROOT
BRANCH   1   7
ATOM      7  C   UNL     1      48.536   7.330  12.826  0.00  0.00    +0.000 C 
BRANCH   7  10
ATOM      8  O   UNL     1      48.568   8.446  15.456  0.00  0.00    +0.000 OA
ATOM      9  C   UNL     1      49.150   7.393  15.218  0.00  0.00    +0.000 C 
ATOM     10  N   UNL     1      49.303   6.868  13.953  0.00  0.00    +0.000 N 
ATOM     11  H   UNL     1      49.712   5.937  13.930  0.00  0.00    +0.000 HD
BRANCH   9  12
ATOM     12  C   UNL     1      49.646   6.473  16.258  0.00  0.00    +0.000 A 
ATOM     13  N   UNL     1      50.937   6.529  16.662  0.00  0.00    +0.000 NA
ATOM     14  N   UNL     1      51.106   5.385  17.340  0.00  0.00    +0.000 N 
ATOM     15  C   UNL     1      50.008   4.572  17.349  0.00  0.00    +0.000 A 
ATOM     16  C   UNL     1      49.840   3.244  17.748  0.00  0.00    +0.000 A 
ATOM     17  C   UNL     1      48.544   2.724  17.688  0.00  0.00    +0.000 A 
ATOM     18  C   UNL     1      47.466   3.521  17.299  0.00  0.00    +0.000 A 
ATOM     19  C   UNL     1      47.669   4.831  16.846  0.00  0.00    +0.000 A 
ATOM     20  C   UNL     1      48.978   5.346  16.824  0.00  0.00    +0.000 A 
ATOM     21  H   UNL     1      52.017   5.194  17.741  0.00  0.00    +0.000 HD
ENDBRANCH   9  12
ENDBRANCH   7  10
ENDBRANCH   1   7
BRANCH   4  22
ATOM     22  C   UNL     1      44.211   3.578  11.621  0.00  0.00    +0.000 C 
BRANCH  22  23
ATOM     23  N   UNL     1      44.712   2.515  10.758  0.00  0.00    +0.000 NA
ATOM     24  H   UNL     1      44.270   1.629  11.011  0.00  0.00    +0.000 HD
BRANCH  23  25
ATOM     25  C   UNL     1      44.417   2.773   9.339  0.00  0.00    +0.000 C 
BRANCH  25  26
ATOM     26  C   UNL     1      45.589   2.417   8.434  0.00  0.00    +0.000 A 
ATOM     27  N   UNL     1      46.119   3.411   7.683  0.00  0.00    +0.000 NA
ATOM     28  C   UNL     1      47.113   3.062   6.846  0.00  0.00    +0.000 A 
ATOM     29  C   UNL     1      47.602   1.782   6.739  0.00  0.00    +0.000 A 
ATOM     30  C   UNL     1      47.012   0.850   7.558  0.00  0.00    +0.000 A 
ATOM     31  N   UNL     1      46.013   1.137   8.414  0.00  0.00    +0.000 NA
ENDBRANCH  25  26
ENDBRANCH  23  25
ENDBRANCH  22  23
ENDBRANCH   4  22
TORSDOF 7
ENDMDL
MODEL 4
REMARK VINA RESULT:    -7.228      3.129      4.653
REMARK INTER + INTRA:         -11.076
REMARK INTER:                 -10.229
REMARK INTRA:                  -0.847
REMARK UNBOUND:                -0.890
REMARK  Name = 
REMARK  7 active torsions:
REMARK  status: ('A' for Active; 'I' for Inactive)
REMARK    1  A    between atoms: C_2  and  C_20
REMARK    2  A    between atoms: N_3  and  C_4
REMARK    3  A    between atoms: C_4  and  C_5
REMARK    4  A    between atoms: C_8  and  C_9
REMARK    5  A    between atoms: C_9  and  N_10
REMARK    6  A    between atoms: N_10  and  C_11
REMARK    7  A    between atoms: C_11  and  C_12
REMARK                            x       y       z     vdW  Elec       q    Type
REMARK                         _______ _______ _______ _____ _____    ______ ____
ROOT
ATOM      1  C   UNL     1      46.394   7.262  12.366  0.00  0.00    +0.000 A 
ATOM      2  C   UNL     1      47.447   6.342  12.306  0.00  0.00    +0.000 A 
ATOM      3  C   UNL     1      48.663   6.607  12.936  0.00  0.00    +0.000 A 
ATOM      4  C   UNL     1      48.860   7.803  13.642  0.00  0.00    +0.000 A 
ATOM      5  C   UNL     1      47.799   8.714  13.724  0.00  0.00    +0.000 A 
ATOM      6  C   UNL     1      46.579   8.445  13.095  0.00  0.00    +0.000 A 
ENDROOT
BRANCH   1   7
ATOM      7  C   UNL     1      45.070   6.982  11.696  0.00  0.00    +0.000 C 
BRANCH   7  10
ATOM      8  O   UNL     1      42.710   5.586  10.892  0.00  0.00    +0.000 OA
ATOM      9  C   UNL     1      43.809   5.046  10.821  0.00  0.00    +0.000 C 
ATOM     10  N   UNL     1      44.969   5.597  11.322  0.00  0.00    +0.000 N 
ATOM     11  H   UNL     1      45.814   5.080  11.091  0.00  0.00    +0.000 HD
BRANCH   9  12
ATOM     12  C   UNL     1      44.069   3.803  10.073  0.00  0.00    +0.000 A 
ATOM     13  N   UNL     1      43.592   2.619  10.525  0.00  0.00    +0.000 NA
ATOM     14  N   UNL     1      44.270   1.711   9.809  0.00  0.00    +0.000 N 
ATOM     15  C   UNL     1      45.196   2.246   8.959  0.00  0.00    +0.000 A 
ATOM     16  C   UNL     1      46.223   1.659   8.218  0.00  0.00    +0.000 A 
ATOM     17  C   UNL     1      46.961   2.500   7.379  0.00  0.00    +0.000 A 
ATOM     18  C   UNL     1      46.640   3.852   7.255  0.00  0.00    +0.000 A 
ATOM     19  C   UNL     1      45.645   4.430   8.054  0.00  0.00    +0.000 A 
ATOM     20  C   UNL     1      44.945   3.614   8.963  0.00  0.00    +0.000 A 
ATOM     21  H   UNL     1      44.085   0.729   9.980  0.00  0.00    +0.000 HD
ENDBRANCH   9  12
ENDBRANCH   7  10
ENDBRANCH   1   7
BRANCH   4  22
ATOM     22  C   UNL     1      50.193   8.105  14.292  0.00  0.00    +0.000 C 
BRANCH  22  23
ATOM     23  N   UNL     1      51.268   8.036  13.311  0.00  0.00    +0.000 NA
ATOM     24  H   UNL     1      51.214   7.152  12.802  0.00  0.00    +0.000 HD
BRANCH  23  25
ATOM     25  C   UNL     1      51.184   9.125  12.324  0.00  0.00    +0.000 C 
BRANCH  25  26
ATOM     26  C   UNL     1      51.790   8.735  10.982  0.00  0.00    +0.000 A 
ATOM     27  N   UNL     1      51.698   7.436  10.612  0.00  0.00    +0.000 NA
ATOM     28  C   UNL     1      52.293   7.103   9.452  0.00  0.00    +0.000 A 
ATOM     29  C   UNL     1      52.955   8.002   8.651  0.00  0.00    +0.000 A 
ATOM     30  C   UNL     1      52.974   9.299   9.104  0.00  0.00    +0.000 A 
ATOM     31  N   UNL     1      52.400   9.695  10.256  0.00  0.00    +0.000 NA
ENDBRANCH  25  26
ENDBRANCH  23  25
ENDBRANCH  22  23
ENDBRANCH   4  22
TORSDOF 7
ENDMDL
MODEL 5
REMARK VINA RESULT:    -7.180      2.205      8.206
REMARK INTER + INTRA:         -11.009
REMARK INTER:                  -9.896
REMARK INTRA:                  -1.113
REMARK UNBOUND:                -0.890
REMARK  Name = 
REMARK  7 active torsions:
REMARK  status: ('A' for Active; 'I' for Inactive)
REMARK    1  A    between atoms: C_2  and  C_20
REMARK    2  A    between atoms: N_3  and  C_4
REMARK    3  A    between atoms: C_4  and  C_5
REMARK    4  A    between atoms: C_8  and  C_9
REMARK    5  A    between atoms: C_9  and  N_10
REMARK    6  A    between atoms: N_10  and  C_11
REMARK    7  A    between atoms: C_11  and  C_12
REMARK                            x       y       z     vdW  Elec       q    Type
REMARK                         _______ _______ _______ _____ _____    ______ ____
ROOT
ATOM      1  C   UNL     1      48.575   7.770  13.282  0.00  0.00    +0.000 A 
ATOM      2  C   UNL     1      48.094   6.462  13.409  0.00  0.00    +0.000 A 
ATOM      3  C   UNL     1      46.837   6.112  12.914  0.00  0.00    +0.000 A 
ATOM      4  C   UNL     1      46.024   7.065  12.281  0.00  0.00    +0.000 A 
ATOM      5  C   UNL     1      46.514   8.368  12.131  0.00  0.00    +0.000 A 
ATOM      6  C   UNL     1      47.776   8.716  12.625  0.00  0.00    +0.000 A 
ENDROOT
BRANCH   1   7
ATOM      7  C   UNL     1      49.936   8.158  13.805  0.00  0.00    +0.000 C 
BRANCH   7  10
ATOM      8  O   UNL     1      50.293   8.493  16.621  0.00  0.00    +0.000 OA
ATOM      9  C   UNL     1      50.436   7.392  16.100  0.00  0.00    +0.000 C 
ATOM     10  N   UNL     1      50.424   7.178  14.738  0.00  0.00    +0.000 N 
ATOM     11  H   UNL     1      50.446   6.198  14.466  0.00  0.00    +0.000 HD
BRANCH   9  12
ATOM     12  C   UNL     1      50.502   6.127  16.855  0.00  0.00    +0.000 A 
ATOM     13  N   UNL     1      51.696   5.633  17.260  0.00  0.00    +0.000 NA
ATOM     14  N   UNL     1      51.413   4.369  17.606  0.00  0.00    +0.000 N 
ATOM     15  C   UNL     1      50.113   4.007  17.394  0.00  0.00    +0.000 A 
ATOM     16  C   UNL     1      49.480   2.763  17.420  0.00  0.00    +0.000 A 
ATOM     17  C   UNL     1      48.097   2.750  17.220  0.00  0.00    +0.000 A 
ATOM     18  C   UNL     1      47.383   3.939  17.058  0.00  0.00    +0.000 A 
ATOM     19  C   UNL     1      48.048   5.170  16.976  0.00  0.00    +0.000 A 
ATOM     20  C   UNL     1      49.450   5.193  17.095  0.00  0.00    +0.000 A 
ATOM     21  H   UNL     1      52.169   3.782  17.942  0.00  0.00    +0.000 HD
ENDBRANCH   9  12
ENDBRANCH   7  10
ENDBRANCH   1   7
BRANCH   4  22
ATOM     22  C   UNL     1      44.646   6.692  11.780  0.00  0.00    +0.000 C 
BRANCH  22  23
ATOM     23  N   UNL     1      44.731   6.073  10.463  0.00  0.00    +0.000 NA
ATOM     24  H   UNL     1      45.673   6.190  10.087  0.00  0.00    +0.000 HD
BRANCH  23  25
ATOM     25  C   UNL     1      44.446   4.629  10.514  0.00  0.00    +0.000 C 
BRANCH  25  26
ATOM     26  C   UNL     1      45.142   3.865   9.395  0.00  0.00    +0.000 A 
ATOM     27  N   UNL     1      45.117   2.513   9.456  0.00  0.00    +0.000 NA
ATOM     28  C   UNL     1      45.790   1.860   8.490  0.00  0.00    +0.000 A 
ATOM     29  C   UNL     1      46.466   2.491   7.475  0.00  0.00    +0.000 A 
ATOM     30  C   UNL     1      46.414   3.864   7.490  0.00  0.00    +0.000 A 
ATOM     31  N   UNL     1      45.761   4.575   8.429  0.00  0.00    +0.000 NA
ENDBRANCH  25  26
ENDBRANCH  23  25
ENDBRANCH  22  23
ENDBRANCH   4  22
TORSDOF 7
ENDMDL
MODEL 6
REMARK VINA RESULT:    -7.136      3.226      8.138
REMARK INTER + INTRA:         -10.947
REMARK INTER:                 -10.160
REMARK INTRA:                  -0.787
REMARK UNBOUND:                -0.890
REMARK  Name = 
REMARK  7 active torsions:
REMARK  status: ('A' for Active; 'I' for Inactive)
REMARK    1  A    between atoms: C_2  and  C_20
REMARK    2  A    between atoms: N_3  and  C_4
REMARK    3  A    between atoms: C_4  and  C_5
REMARK    4  A    between atoms: C_8  and  C_9
REMARK    5  A    between atoms: C_9  and  N_10
REMARK    6  A    between atoms: N_10  and  C_11
REMARK    7  A    between atoms: C_11  and  C_12
REMARK                            x       y       z     vdW  Elec       q    Type
REMARK                         _______ _______ _______ _____ _____    ______ ____
ROOT
ATOM      1  C   UNL     1      46.625   5.536  13.430  0.00  0.00    +0.000 A 
ATOM      2  C   UNL     1      45.497   6.235  12.985  0.00  0.00    +0.000 A 
ATOM      3  C   UNL     1      44.433   5.563  12.382  0.00  0.00    +0.000 A 
ATOM      4  C   UNL     1      44.472   4.172  12.203  0.00  0.00    +0.000 A 
ATOM      5  C   UNL     1      45.590   3.468  12.670  0.00  0.00    +0.000 A 
ATOM      6  C   UNL     1      46.654   4.144  13.278  0.00  0.00    +0.000 A 
ENDROOT
BRANCH   1   7
ATOM      7  C   UNL     1      47.778   6.251  14.092  0.00  0.00    +0.000 C 
BRANCH   7  10
ATOM      8  O   UNL     1      49.210   7.394  11.899  0.00  0.00    +0.000 OA
ATOM      9  C   UNL     1      48.425   8.072  12.553  0.00  0.00    +0.000 C 
ATOM     10  N   UNL     1      47.809   7.637  13.707  0.00  0.00    +0.000 N 
ATOM     11  H   UNL     1      47.104   8.272  14.073  0.00  0.00    +0.000 HD
BRANCH   9  12
ATOM     12  C   UNL     1      47.923   9.391  12.126  0.00  0.00    +0.000 A 
ATOM     13  N   UNL     1      46.608   9.692  12.240  0.00  0.00    +0.000 NA
ATOM     14  N   UNL     1      46.468  10.792  11.486  0.00  0.00    +0.000 N 
ATOM     15  C   UNL     1      47.612  11.182  10.848  0.00  0.00    +0.000 A 
ATOM     16  C   UNL     1      47.838  12.118   9.837  0.00  0.00    +0.000 A 
ATOM     17  C   UNL     1      49.165  12.327   9.451  0.00  0.00    +0.000 A 
ATOM     18  C   UNL     1      50.213  11.666  10.092  0.00  0.00    +0.000 A 
ATOM     19  C   UNL     1      49.958  10.687  11.063  0.00  0.00    +0.000 A 
ATOM     20  C   UNL     1      48.622  10.406  11.408  0.00  0.00    +0.000 A 
ATOM     21  H   UNL     1      45.547  11.208  11.409  0.00  0.00    +0.000 HD
ENDBRANCH   9  12
ENDBRANCH   7  10
ENDBRANCH   1   7
BRANCH   4  22
ATOM     22  C   UNL     1      43.334   3.451  11.514  0.00  0.00    +0.000 C 
BRANCH  22  23
ATOM     23  N   UNL     1      43.796   2.823  10.283  0.00  0.00    +0.000 NA
ATOM     24  H   UNL     1      43.007   2.391   9.799  0.00  0.00    +0.000 HD
BRANCH  23  25
ATOM     25  C   UNL     1      44.405   3.798   9.363  0.00  0.00    +0.000 C 
BRANCH  25  26
ATOM     26  C   UNL     1      45.397   3.147   8.408  0.00  0.00    +0.000 A 
ATOM     27  N   UNL     1      45.770   3.858   7.317  0.00  0.00    +0.000 NA
ATOM     28  C   UNL     1      46.599   3.240   6.457  0.00  0.00    +0.000 A 
ATOM     29  C   UNL     1      47.076   1.965   6.644  0.00  0.00    +0.000 A 
ATOM     30  C   UNL     1      46.657   1.336   7.791  0.00  0.00    +0.000 A 
ATOM     31  N   UNL     1      45.826   1.899   8.689  0.00  0.00    +0.000 NA
ENDBRANCH  25  26
ENDBRANCH  23  25
ENDBRANCH  22  23
ENDBRANCH   4  22
TORSDOF 7
ENDMDL
MODEL 7
REMARK VINA RESULT:    -7.128      3.157      9.445
REMARK INTER + INTRA:         -10.935
REMARK INTER:                 -10.214
REMARK INTRA:                  -0.721
REMARK UNBOUND:                -0.890
REMARK  Name = 
REMARK  7 active torsions:
REMARK  status: ('A' for Active; 'I' for Inactive)
REMARK    1  A    between atoms: C_2  and  C_20
REMARK    2  A    between atoms: N_3  and  C_4
REMARK    3  A    between atoms: C_4  and  C_5
REMARK    4  A    between atoms: C_8  and  C_9
REMARK    5  A    between atoms: C_9  and  N_10
REMARK    6  A    between atoms: N_10  and  C_11
REMARK    7  A    between atoms: C_11  and  C_12
REMARK                            x       y       z     vdW  Elec       q    Type
REMARK                         _______ _______ _______ _____ _____    ______ ____
ROOT
ATOM      1  C   UNL     1      47.236   6.072  13.033  0.00  0.00    +0.000 A 
ATOM      2  C   UNL     1      46.328   5.132  13.536  0.00  0.00    +0.000 A 
ATOM      3  C   UNL     1      45.170   4.810  12.829  0.00  0.00    +0.000 A 
ATOM      4  C   UNL     1      44.885   5.424  11.600  0.00  0.00    +0.000 A 
ATOM      5  C   UNL     1      45.804   6.346  11.084  0.00  0.00    +0.000 A 
ATOM      6  C   UNL     1      46.967   6.665  11.793  0.00  0.00    +0.000 A 
ENDROOT
BRANCH   1   7
ATOM      7  C   UNL     1      48.497   6.422  13.785  0.00  0.00    +0.000 C 
BRANCH   7  10
ATOM      8  O   UNL     1      50.400   8.006  15.212  0.00  0.00    +0.000 OA
ATOM      9  C   UNL     1      49.197   8.185  15.368  0.00  0.00    +0.000 C 
ATOM     10  N   UNL     1      48.222   7.371  14.831  0.00  0.00    +0.000 N 
ATOM     11  H   UNL     1      47.272   7.711  14.959  0.00  0.00    +0.000 HD
BRANCH   9  12
ATOM     12  C   UNL     1      48.620   9.367  16.033  0.00  0.00    +0.000 A 
ATOM     13  N   UNL     1      48.772  10.599  15.493  0.00  0.00    +0.000 NA
ATOM     14  N   UNL     1      48.424  11.427  16.489  0.00  0.00    +0.000 N 
ATOM     15  C   UNL     1      48.107  10.794  17.658  0.00  0.00    +0.000 A 
ATOM     16  C   UNL     1      47.904  11.280  18.951  0.00  0.00    +0.000 A 
ATOM     17  C   UNL     1      47.520  10.354  19.924  0.00  0.00    +0.000 A 
ATOM     18  C   UNL     1      47.297   9.015  19.595  0.00  0.00    +0.000 A 
ATOM     19  C   UNL     1      47.565   8.540  18.304  0.00  0.00    +0.000 A 
ATOM     20  C   UNL     1      48.030   9.444  17.331  0.00  0.00    +0.000 A 
ATOM     21  H   UNL     1      48.466  12.426  16.321  0.00  0.00    +0.000 HD
ENDBRANCH   9  12
ENDBRANCH   7  10
ENDBRANCH   1   7
BRANCH   4  22
ATOM     22  C   UNL     1      43.608   5.100  10.854  0.00  0.00    +0.000 C 
BRANCH  22  23
ATOM     23  N   UNL     1      43.909   4.531   9.547  0.00  0.00    +0.000 NA
ATOM     24  H   UNL     1      44.628   5.091   9.085  0.00  0.00    +0.000 HD
BRANCH  23  25
ATOM     25  C   UNL     1      44.414   3.152   9.649  0.00  0.00    +0.000 C 
BRANCH  25  26
ATOM     26  C   UNL     1      45.422   2.825   8.556  0.00  0.00    +0.000 A 
ATOM     27  N   UNL     1      45.934   1.572   8.536  0.00  0.00    +0.000 NA
ATOM     28  C   UNL     1      46.868   1.323   7.599  0.00  0.00    +0.000 A 
ATOM     29  C   UNL     1      47.295   2.256   6.686  0.00  0.00    +0.000 A 
ATOM     30  C   UNL     1      46.700   3.491   6.775  0.00  0.00    +0.000 A 
ATOM     31  N   UNL     1      45.762   3.802   7.690  0.00  0.00    +0.000 NA
ENDBRANCH  25  26
ENDBRANCH  23  25
ENDBRANCH  22  23
ENDBRANCH   4  22
TORSDOF 7
ENDMDL
MODEL 8
REMARK VINA RESULT:    -6.946      2.056      3.053
REMARK INTER + INTRA:         -10.678
REMARK INTER:                  -9.813
REMARK INTRA:                  -0.865
REMARK UNBOUND:                -0.890
REMARK  Name = 
REMARK  7 active torsions:
REMARK  status: ('A' for Active; 'I' for Inactive)
REMARK    1  A    between atoms: C_2  and  C_20
REMARK    2  A    between atoms: N_3  and  C_4
REMARK    3  A    between atoms: C_4  and  C_5
REMARK    4  A    between atoms: C_8  and  C_9
REMARK    5  A    between atoms: C_9  and  N_10
REMARK    6  A    between atoms: N_10  and  C_11
REMARK    7  A    between atoms: C_11  and  C_12
REMARK                            x       y       z     vdW  Elec       q    Type
REMARK                         _______ _______ _______ _____ _____    ______ ____
ROOT
ATOM      1  C   UNL     1      46.852   5.864  13.643  0.00  0.00    +0.000 A 
ATOM      2  C   UNL     1      47.826   6.753  14.113  0.00  0.00    +0.000 A 
ATOM      3  C   UNL     1      48.534   6.480  15.284  0.00  0.00    +0.000 A 
ATOM      4  C   UNL     1      48.283   5.312  16.020  0.00  0.00    +0.000 A 
ATOM      5  C   UNL     1      47.326   4.411  15.538  0.00  0.00    +0.000 A 
ATOM      6  C   UNL     1      46.620   4.684  14.361  0.00  0.00    +0.000 A 
ENDROOT
BRANCH   1   7
ATOM      7  C   UNL     1      46.086   6.143  12.372  0.00  0.00    +0.000 C 
BRANCH   7  10
ATOM      8  O   UNL     1      43.663   5.750  10.910  0.00  0.00    +0.000 OA
ATOM      9  C   UNL     1      44.504   4.860  10.974  0.00  0.00    +0.000 C 
ATOM     10  N   UNL     1      45.625   4.919  11.775  0.00  0.00    +0.000 N 
ATOM     11  H   UNL     1      46.280   4.153  11.637  0.00  0.00    +0.000 HD
BRANCH   9  12
ATOM     12  C   UNL     1      44.509   3.668  10.108  0.00  0.00    +0.000 A 
ATOM     13  N   UNL     1      43.869   2.538  10.494  0.00  0.00    +0.000 NA
ATOM     14  N   UNL     1      44.343   1.604   9.657  0.00  0.00    +0.000 N 
ATOM     15  C   UNL     1      45.293   2.062   8.788  0.00  0.00    +0.000 A 
ATOM     16  C   UNL     1      46.163   1.390   7.927  0.00  0.00    +0.000 A 
ATOM     17  C   UNL     1      46.979   2.177   7.109  0.00  0.00    +0.000 A 
ATOM     18  C   UNL     1      46.881   3.569   7.122  0.00  0.00    +0.000 A 
ATOM     19  C   UNL     1      46.045   4.221   8.038  0.00  0.00    +0.000 A 
ATOM     20  C   UNL     1      45.274   3.446   8.924  0.00  0.00    +0.000 A 
ATOM     21  H   UNL     1      44.008   0.653   9.759  0.00  0.00    +0.000 HD
ENDBRANCH   9  12
ENDBRANCH   7  10
ENDBRANCH   1   7
BRANCH   4  22
ATOM     22  C   UNL     1      49.026   5.039  17.310  0.00  0.00    +0.000 C 
BRANCH  22  23
ATOM     23  N   UNL     1      50.056   6.045  17.531  0.00  0.00    +0.000 NA
ATOM     24  H   UNL     1      49.902   6.839  16.906  0.00  0.00    +0.000 HD
BRANCH  23  25
ATOM     25  C   UNL     1      50.042   6.555  18.912  0.00  0.00    +0.000 C 
BRANCH  25  26
ATOM     26  C   UNL     1      49.084   7.726  19.084  0.00  0.00    +0.000 A 
ATOM     27  N   UNL     1      48.276   7.714  20.171  0.00  0.00    +0.000 NA
ATOM     28  C   UNL     1      47.395   8.727  20.270  0.00  0.00    +0.000 A 
ATOM     29  C   UNL     1      47.298   9.743  19.351  0.00  0.00    +0.000 A 
ATOM     30  C   UNL     1      48.175   9.675  18.295  0.00  0.00    +0.000 A 
ATOM     31  N   UNL     1      49.077   8.688  18.138  0.00  0.00    +0.000 NA
ENDBRANCH  25  26
ENDBRANCH  23  25
ENDBRANCH  22  23
ENDBRANCH   4  22
TORSDOF 7
ENDMDL
MODEL 9
REMARK VINA RESULT:    -6.778      2.426      3.705
REMARK INTER + INTRA:         -10.442
REMARK INTER:                 -10.225
REMARK INTRA:                  -0.217
REMARK UNBOUND:                -0.890
REMARK  Name = 
REMARK  7 active torsions:
REMARK  status: ('A' for Active; 'I' for Inactive)
REMARK    1  A    between atoms: C_2  and  C_20
REMARK    2  A    between atoms: N_3  and  C_4
REMARK    3  A    between atoms: C_4  and  C_5
REMARK    4  A    between atoms: C_8  and  C_9
REMARK    5  A    between atoms: C_9  and  N_10
REMARK    6  A    between atoms: N_10  and  C_11
REMARK    7  A    between atoms: C_11  and  C_12
REMARK                            x       y       z     vdW  Elec       q    Type
REMARK                         _______ _______ _______ _____ _____    ______ ____
ROOT
ATOM      1  C   UNL     1      47.686   5.379  15.057  0.00  0.00    +0.000 A 
ATOM      2  C   UNL     1      48.448   6.241  15.854  0.00  0.00    +0.000 A 
ATOM      3  C   UNL     1      48.891   5.842  17.115  0.00  0.00    +0.000 A 
ATOM      4  C   UNL     1      48.579   4.569  17.616  0.00  0.00    +0.000 A 
ATOM      5  C   UNL     1      47.837   3.697  16.809  0.00  0.00    +0.000 A 
ATOM      6  C   UNL     1      47.397   4.097  15.543  0.00  0.00    +0.000 A 
ENDROOT
BRANCH   1   7
ATOM      7  C   UNL     1      47.209   5.796  13.687  0.00  0.00    +0.000 C 
BRANCH   7  10
ATOM      8  O   UNL     1      44.381   6.061  13.369  0.00  0.00    +0.000 OA
ATOM      9  C   UNL     1      44.973   5.092  12.907  0.00  0.00    +0.000 C 
ATOM     10  N   UNL     1      46.304   4.819  13.141  0.00  0.00    +0.000 N 
ATOM     11  H   UNL     1      46.675   4.041  12.603  0.00  0.00    +0.000 HD
BRANCH   9  12
ATOM     12  C   UNL     1      44.385   4.158  11.929  0.00  0.00    +0.000 A 
ATOM     13  N   UNL     1      43.600   3.136  12.344  0.00  0.00    +0.000 NA
ATOM     14  N   UNL     1      43.522   2.340  11.267  0.00  0.00    +0.000 N 
ATOM     15  C   UNL     1      44.259   2.769  10.199  0.00  0.00    +0.000 A 
ATOM     16  C   UNL     1      44.608   2.142   9.002  0.00  0.00    +0.000 A 
ATOM     17  C   UNL     1      45.330   2.901   8.076  0.00  0.00    +0.000 A 
ATOM     18  C   UNL     1      45.634   4.240   8.325  0.00  0.00    +0.000 A 
ATOM     19  C   UNL     1      45.326   4.829   9.559  0.00  0.00    +0.000 A 
ATOM     20  C   UNL     1      44.669   4.055  10.534  0.00  0.00    +0.000 A 
ATOM     21  H   UNL     1      42.980   1.486  11.339  0.00  0.00    +0.000 HD
ENDBRANCH   9  12
ENDBRANCH   7  10
ENDBRANCH   1   7
BRANCH   4  22
ATOM     22  C   UNL     1      49.028   4.153  19.000  0.00  0.00    +0.000 C 
BRANCH  22  23
ATOM     23  N   UNL     1      50.452   4.405  19.173  0.00  0.00    +0.000 NA
ATOM     24  H   UNL     1      50.828   3.782  19.891  0.00  0.00    +0.000 HD
BRANCH  23  25
ATOM     25  C   UNL     1      51.209   4.164  17.933  0.00  0.00    +0.000 C 
BRANCH  25  26
ATOM     26  C   UNL     1      52.054   2.899  18.010  0.00  0.00    +0.000 A 
ATOM     27  N   UNL     1      53.245   2.984  18.646  0.00  0.00    +0.000 NA
ATOM     28  C   UNL     1      54.001   1.871  18.649  0.00  0.00    +0.000 A 
ATOM     29  C   UNL     1      53.616   0.689  18.063  0.00  0.00    +0.000 A 
ATOM     30  C   UNL     1      52.381   0.699  17.461  0.00  0.00    +0.000 A 
ATOM     31  N   UNL     1      51.580   1.781  17.422  0.00  0.00    +0.000 NA
ENDBRANCH  25  26
ENDBRANCH  23  25
ENDBRANCH  22  23
ENDBRANCH   4  22
TORSDOF 7
ENDMDL
