MODEL 1
REMARK VINA RESULT:    -7.654      0.000      0.000
REMARK INTER + INTRA:         -10.339
REMARK INTER:                 -10.115
REMARK INTRA:                  -0.224
REMARK UNBOUND:                -0.224
REMARK  Name = 
REMARK  6 active torsions:
REMARK  status: ('A' for Active; 'I' for Inactive)
REMARK    1  A    between atoms: N_1  and  C_2
REMARK    2  A    between atoms: C_2  and  C_3
REMARK    3  A    between atoms: C_7  and  C_8
REMARK    4  A    between atoms: C_8  and  O_9
REMARK    5  A    between atoms: O_9  and  C_10
REMARK    6  A    between atoms: C_14  and  C_15
REMARK                            x       y       z     vdW  Elec       q    Type
REMARK                         _______ _______ _______ _____ _____    ______ ____
ROOT
ATOM      1  O   UNL     1      43.627   3.151  10.230  0.00  0.00    +0.000 OA
ENDROOT
BRANCH   1   2
ATOM      2  C   UNL     1      44.633   3.157   9.314  0.00  0.00    +0.000 A 
ATOM      3  C   UNL     1      44.972   4.408   8.810  0.00  0.00    +0.000 A 
ATOM      4  N   UNL     1      45.940   4.628   7.890  0.00  0.00    +0.000 NA
ATOM      5  C   UNL     1      46.605   3.535   7.447  0.00  0.00    +0.000 A 
ATOM      6  C   UNL     1      46.347   2.240   7.878  0.00  0.00    +0.000 A 
ATOM      7  C   UNL     1      45.338   2.057   8.838  0.00  0.00    +0.000 A 
BRANCH   6   8
ATOM      8  C   UNL     1      47.074   1.053   7.368  0.00  0.00    +0.000 C 
ATOM      9  N   UNL     1      46.628  -0.197   7.695  0.00  0.00    +0.000 N 
ATOM     10  O   UNL     1      48.069   1.179   6.664  0.00  0.00    +0.000 OA
ATOM     11  H   UNL     1      45.831  -0.417   8.272  0.00  0.00    +0.000 HD
ATOM     12  H   UNL     1      47.166  -0.975   7.333  0.00  0.00    +0.000 HD
ENDBRANCH   6   8
ENDBRANCH   1   2
BRANCH   1  13
ATOM     13  C   UNL     1      43.915   2.662  11.544  0.00  0.00    +0.000 C 
BRANCH  13  18
ATOM     14  C   UNL     1      45.498   5.874  12.853  0.00  0.00    +0.000 A 
ATOM     15  C   UNL     1      46.565   5.325  13.564  0.00  0.00    +0.000 A 
ATOM     16  C   UNL     1      46.714   3.947  13.580  0.00  0.00    +0.000 A 
ATOM     17  N   UNL     1      45.886   3.089  12.943  0.00  0.00    +0.000 NA
ATOM     18  C   UNL     1      44.856   3.624  12.240  0.00  0.00    +0.000 A 
ATOM     19  C   UNL     1      44.630   5.002  12.191  0.00  0.00    +0.000 A 
BRANCH  14  20
ATOM     20  C   UNL     1      45.275   7.361  12.803  0.00  0.00    +0.000 C 
BRANCH  20  21
ATOM     21  N   UNL     1      44.334   7.727  11.753  0.00  0.00    +0.000 NA
ATOM     22  H   UNL     1      43.791   8.533  12.059  0.00  0.00    +0.000 HD
ATOM     23  H   UNL     1      43.666   6.966  11.630  0.00  0.00    +0.000 HD
ENDBRANCH  20  21
ENDBRANCH  14  20
ENDBRANCH  13  18
ENDBRANCH   1  13
TORSDOF 6
ENDMDL
MODEL 2
REMARK VINA RESULT:    -7.574      2.150      6.185
REMARK INTER + INTRA:         -10.234
REMARK INTER:                  -9.774
REMARK INTRA:                  -0.460
REMARK UNBOUND:                -0.224
REMARK  Name = 
REMARK  6 active torsions:
REMARK  status: ('A' for Active; 'I' for Inactive)
REMARK    1  A    between atoms: N_1  and  C_2
REMARK    2  A    between atoms: C_2  and  C_3
REMARK    3  A    between atoms: C_7  and  C_8
REMARK    4  A    between atoms: C_8  and  O_9
REMARK    5  A    between atoms: O_9  and  C_10
REMARK    6  A    between atoms: C_14  and  C_15
REMARK                            x       y       z     vdW  Elec       q    Type
REMARK                         _______ _______ _______ _____ _____    ______ ____
ROOT
ATOM      1  O   UNL     1      44.007   3.904  10.560  0.00  0.00    +0.000 OA
ENDROOT
BRANCH   1   2
ATOM      2  C   UNL     1      44.725   4.590  11.490  0.00  0.00    +0.000 A 
ATOM      3  C   UNL     1      44.701   5.975  11.361  0.00  0.00    +0.000 A 
ATOM      4  N   UNL     1      45.350   6.834  12.179  0.00  0.00    +0.000 NA
ATOM      5  C   UNL     1      46.067   6.278  13.184  0.00  0.00    +0.000 A 
ATOM      6  C   UNL     1      46.165   4.910  13.405  0.00  0.00    +0.000 A 
ATOM      7  C   UNL     1      45.470   4.054  12.535  0.00  0.00    +0.000 A 
BRANCH   6   8
ATOM      8  C   UNL     1      46.969   4.319  14.501  0.00  0.00    +0.000 C 
ATOM      9  N   UNL     1      47.299   5.090  15.581  0.00  0.00    +0.000 N 
ATOM     10  O   UNL     1      47.344   3.154  14.450  0.00  0.00    +0.000 OA
ATOM     11  H   UNL     1      47.054   6.058  15.723  0.00  0.00    +0.000 HD
ATOM     12  H   UNL     1      47.858   4.645  16.298  0.00  0.00    +0.000 HD
ENDBRANCH   6   8
ENDBRANCH   1   2
BRANCH   1  13
ATOM     13  C   UNL     1      44.185   4.249   9.182  0.00  0.00    +0.000 C 
BRANCH  13  18
ATOM     14  C   UNL     1      46.658   2.570   6.817  0.00  0.00    +0.000 A 
ATOM     15  C   UNL     1      46.664   1.289   7.371  0.00  0.00    +0.000 A 
ATOM     16  C   UNL     1      45.867   1.040   8.477  0.00  0.00    +0.000 A 
ATOM     17  N   UNL     1      45.074   1.965   9.062  0.00  0.00    +0.000 NA
ATOM     18  C   UNL     1      45.057   3.206   8.514  0.00  0.00    +0.000 A 
ATOM     19  C   UNL     1      45.845   3.539   7.410  0.00  0.00    +0.000 A 
BRANCH  14  20
ATOM     20  C   UNL     1      47.506   2.908   5.621  0.00  0.00    +0.000 C 
BRANCH  20  21
ATOM     21  N   UNL     1      48.481   1.861   5.343  0.00  0.00    +0.000 NA
ATOM     22  H   UNL     1      47.996   1.045   4.975  0.00  0.00    +0.000 HD
ATOM     23  H   UNL     1      48.907   1.566   6.221  0.00  0.00    +0.000 HD
ENDBRANCH  20  21
ENDBRANCH  14  20
ENDBRANCH  13  18
ENDBRANCH   1  13
TORSDOF 6
ENDMDL
MODEL 3
REMARK VINA RESULT:    -7.557      1.628      2.755
REMARK INTER + INTRA:         -10.212
REMARK INTER:                  -9.715
REMARK INTRA:                  -0.497
REMARK UNBOUND:                -0.224
REMARK  Name = 
REMARK  6 active torsions:
REMARK  status: ('A' for Active; 'I' for Inactive)
REMARK    1  A    between atoms: N_1  and  C_2
REMARK    2  A    between atoms: C_2  and  C_3
REMARK    3  A    between atoms: C_7  and  C_8
REMARK    4  A    between atoms: C_8  and  O_9
REMARK    5  A    between atoms: O_9  and  C_10
REMARK    6  A    between atoms: C_14  and  C_15
REMARK                            x       y       z     vdW  Elec       q    Type
REMARK                         _______ _______ _______ _____ _____    ______ ____
ROOT
ATOM      1  O   UNL     1      44.023   4.301   9.249  0.00  0.00    +0.000 OA
ENDROOT
BRANCH   1   2
ATOM      2  C   UNL     1      44.843   3.368   8.695  0.00  0.00    +0.000 A 
ATOM      3  C   UNL     1      44.771   2.099   9.260  0.00  0.00    +0.000 A 
ATOM      4  N   UNL     1      45.505   1.037   8.857  0.00  0.00    +0.000 NA
ATOM      5  C   UNL     1      46.360   1.254   7.831  0.00  0.00    +0.000 A 
ATOM      6  C   UNL     1      46.516   2.479   7.195  0.00  0.00    +0.000 A 
ATOM      7  C   UNL     1      45.731   3.555   7.641  0.00  0.00    +0.000 A 
BRANCH   6   8
ATOM      8  C   UNL     1      47.472   2.703   6.083  0.00  0.00    +0.000 C 
ATOM      9  N   UNL     1      48.804   2.477   6.291  0.00  0.00    +0.000 N 
ATOM     10  O   UNL     1      47.084   3.090   4.988  0.00  0.00    +0.000 OA
ATOM     11  H   UNL     1      49.233   2.169   7.149  0.00  0.00    +0.000 HD
ATOM     12  H   UNL     1      49.418   2.655   5.504  0.00  0.00    +0.000 HD
ENDBRANCH   6   8
ENDBRANCH   1   2
BRANCH   1  13
ATOM     13  C   UNL     1      43.706   4.180  10.640  0.00  0.00    +0.000 C 
BRANCH  13  18
ATOM     14  C   UNL     1      46.241   5.227  13.287  0.00  0.00    +0.000 A 
ATOM     15  C   UNL     1      46.493   6.529  12.854  0.00  0.00    +0.000 A 
ATOM     16  C   UNL     1      45.828   6.997  11.732  0.00  0.00    +0.000 A 
ATOM     17  N   UNL     1      44.939   6.267  11.021  0.00  0.00    +0.000 NA
ATOM     18  C   UNL     1      44.685   5.005  11.450  0.00  0.00    +0.000 A 
ATOM     19  C   UNL     1      45.328   4.457  12.562  0.00  0.00    +0.000 A 
BRANCH  14  20
ATOM     20  C   UNL     1      46.937   4.656  14.494  0.00  0.00    +0.000 C 
BRANCH  20  21
ATOM     21  N   UNL     1      47.302   3.260  14.290  0.00  0.00    +0.000 NA
ATOM     22  H   UNL     1      46.557   2.666  14.650  0.00  0.00    +0.000 HD
ATOM     23  H   UNL     1      48.128   3.051  14.851  0.00  0.00    +0.000 HD
ENDBRANCH  20  21
ENDBRANCH  14  20
ENDBRANCH  13  18
ENDBRANCH   1  13
TORSDOF 6
ENDMDL
MODEL 4
REMARK VINA RESULT:    -7.150      1.736      2.075
REMARK INTER + INTRA:          -9.674
REMARK INTER:                  -9.264
REMARK INTRA:                  -0.410
REMARK UNBOUND:                -0.224
REMARK  Name = 
REMARK  6 active torsions:
REMARK  status: ('A' for Active; 'I' for Inactive)
REMARK    1  A    between atoms: N_1  and  C_2
REMARK    2  A    between atoms: C_2  and  C_3
REMARK    3  A    between atoms: C_7  and  C_8
REMARK    4  A    between atoms: C_8  and  O_9
REMARK    5  A    between atoms: O_9  and  C_10
REMARK    6  A    between atoms: C_14  and  C_15
REMARK                            x       y       z     vdW  Elec       q    Type
REMARK                         _______ _______ _______ _____ _____    ______ ____
ROOT
ATOM      1  O   UNL     1      44.250   4.568   9.378  0.00  0.00    +0.000 OA
ENDROOT
BRANCH   1   2
ATOM      2  C   UNL     1      44.969   3.571   8.793  0.00  0.00    +0.000 A 
ATOM      3  C   UNL     1      44.787   2.305   9.339  0.00  0.00    +0.000 A 
ATOM      4  N   UNL     1      45.410   1.186   8.905  0.00  0.00    +0.000 NA
ATOM      5  C   UNL     1      46.265   1.340   7.867  0.00  0.00    +0.000 A 
ATOM      6  C   UNL     1      46.526   2.556   7.249  0.00  0.00    +0.000 A 
ATOM      7  C   UNL     1      45.853   3.692   7.726  0.00  0.00    +0.000 A 
BRANCH   6   8
ATOM      8  C   UNL     1      47.479   2.708   6.124  0.00  0.00    +0.000 C 
ATOM      9  N   UNL     1      48.813   2.500   6.343  0.00  0.00    +0.000 N 
ATOM     10  O   UNL     1      47.089   3.022   5.005  0.00  0.00    +0.000 OA
ATOM     11  H   UNL     1      49.243   2.250   7.219  0.00  0.00    +0.000 HD
ATOM     12  H   UNL     1      49.425   2.627   5.546  0.00  0.00    +0.000 HD
ENDBRANCH   6   8
ENDBRANCH   1   2
BRANCH   1  13
ATOM     13  C   UNL     1      43.803   4.376  10.724  0.00  0.00    +0.000 C 
BRANCH  13  18
ATOM     14  C   UNL     1      46.038   6.840  12.586  0.00  0.00    +0.000 A 
ATOM     15  C   UNL     1      46.663   5.956  13.466  0.00  0.00    +0.000 A 
ATOM     16  C   UNL     1      46.330   4.612  13.406  0.00  0.00    +0.000 A 
ATOM     17  N   UNL     1      45.428   4.095  12.542  0.00  0.00    +0.000 NA
ATOM     18  C   UNL     1      44.830   4.953  11.678  0.00  0.00    +0.000 A 
ATOM     19  C   UNL     1      45.101   6.323  11.688  0.00  0.00    +0.000 A 
BRANCH  14  20
ATOM     20  C   UNL     1      46.350   8.313  12.605  0.00  0.00    +0.000 C 
BRANCH  20  21
ATOM     21  N   UNL     1      46.635   8.782  13.955  0.00  0.00    +0.000 NA
ATOM     22  H   UNL     1      45.756   8.967  14.435  0.00  0.00    +0.000 HD
ATOM     23  H   UNL     1      47.121   9.677  13.896  0.00  0.00    +0.000 HD
ENDBRANCH  20  21
ENDBRANCH  14  20
ENDBRANCH  13  18
ENDBRANCH   1  13
TORSDOF 6
ENDMDL
MODEL 5
REMARK VINA RESULT:    -7.066      2.516      6.498
REMARK INTER + INTRA:          -9.562
REMARK INTER:                  -9.200
REMARK INTRA:                  -0.361
REMARK UNBOUND:                -0.224
REMARK  Name = 
REMARK  6 active torsions:
REMARK  status: ('A' for Active; 'I' for Inactive)
REMARK    1  A    between atoms: N_1  and  C_2
REMARK    2  A    between atoms: C_2  and  C_3
REMARK    3  A    between atoms: C_7  and  C_8
REMARK    4  A    between atoms: C_8  and  O_9
REMARK    5  A    between atoms: O_9  and  C_10
REMARK    6  A    between atoms: C_14  and  C_15
REMARK                            x       y       z     vdW  Elec       q    Type
REMARK                         _______ _______ _______ _____ _____    ______ ____
ROOT
ATOM      1  O   UNL     1      45.242   5.328   9.870  0.00  0.00    +0.000 OA
ENDROOT
BRANCH   1   2
ATOM      2  C   UNL     1      45.605   5.284  11.180  0.00  0.00    +0.000 A 
ATOM      3  C   UNL     1      44.926   4.350  11.956  0.00  0.00    +0.000 A 
ATOM      4  N   UNL     1      45.137   4.153  13.278  0.00  0.00    +0.000 NA
ATOM      5  C   UNL     1      46.078   4.933  13.858  0.00  0.00    +0.000 A 
ATOM      6  C   UNL     1      46.813   5.898  13.181  0.00  0.00    +0.000 A 
ATOM      7  C   UNL     1      46.567   6.067  11.809  0.00  0.00    +0.000 A 
BRANCH   6   8
ATOM      8  C   UNL     1      47.828   6.756  13.838  0.00  0.00    +0.000 C 
ATOM      9  N   UNL     1      47.454   7.971  14.342  0.00  0.00    +0.000 N 
ATOM     10  O   UNL     1      48.995   6.393  13.930  0.00  0.00    +0.000 OA
ATOM     11  H   UNL     1      46.530   8.372  14.313  0.00  0.00    +0.000 HD
ATOM     12  H   UNL     1      48.186   8.525  14.770  0.00  0.00    +0.000 HD
ENDBRANCH   6   8
ENDBRANCH   1   2
BRANCH   1  13
ATOM     13  C   UNL     1      44.352   4.318   9.382  0.00  0.00    +0.000 C 
BRANCH  13  18
ATOM     14  C   UNL     1      46.637   2.638   6.836  0.00  0.00    +0.000 A 
ATOM     15  C   UNL     1      46.618   1.338   7.341  0.00  0.00    +0.000 A 
ATOM     16  C   UNL     1      45.865   1.076   8.474  0.00  0.00    +0.000 A 
ATOM     17  N   UNL     1      45.139   2.007   9.132  0.00  0.00    +0.000 NA
ATOM     18  C   UNL     1      45.148   3.269   8.633  0.00  0.00    +0.000 A 
ATOM     19  C   UNL     1      45.895   3.615   7.505  0.00  0.00    +0.000 A 
BRANCH  14  20
ATOM     20  C   UNL     1      47.441   2.990   5.613  0.00  0.00    +0.000 C 
BRANCH  20  21
ATOM     21  N   UNL     1      48.436   1.969   5.315  0.00  0.00    +0.000 NA
ATOM     22  H   UNL     1      48.242   1.575   4.395  0.00  0.00    +0.000 HD
ATOM     23  H   UNL     1      48.331   1.202   5.979  0.00  0.00    +0.000 HD
ENDBRANCH  20  21
ENDBRANCH  14  20
ENDBRANCH  13  18
ENDBRANCH   1  13
TORSDOF 6
ENDMDL
MODEL 6
REMARK VINA RESULT:    -6.800      1.647      6.421
REMARK INTER + INTRA:          -9.211
REMARK INTER:                  -8.730
REMARK INTRA:                  -0.481
REMARK UNBOUND:                -0.224
REMARK  Name = 
REMARK  6 active torsions:
REMARK  status: ('A' for Active; 'I' for Inactive)
REMARK    1  A    between atoms: N_1  and  C_2
REMARK    2  A    between atoms: C_2  and  C_3
REMARK    3  A    between atoms: C_7  and  C_8
REMARK    4  A    between atoms: C_8  and  O_9
REMARK    5  A    between atoms: O_9  and  C_10
REMARK    6  A    between atoms: C_14  and  C_15
REMARK                            x       y       z     vdW  Elec       q    Type
REMARK                         _______ _______ _______ _____ _____    ______ ____
ROOT
ATOM      1  O   UNL     1      44.481   2.806  11.193  0.00  0.00    +0.000 OA
ENDROOT
BRANCH   1   2
ATOM      2  C   UNL     1      45.113   3.713  11.987  0.00  0.00    +0.000 A 
ATOM      3  C   UNL     1      45.957   3.175  12.953  0.00  0.00    +0.000 A 
ATOM      4  N   UNL     1      46.671   3.904  13.840  0.00  0.00    +0.000 NA
ATOM      5  C   UNL     1      46.533   5.248  13.760  0.00  0.00    +0.000 A 
ATOM      6  C   UNL     1      45.717   5.892  12.839  0.00  0.00    +0.000 A 
ATOM      7  C   UNL     1      44.997   5.098  11.932  0.00  0.00    +0.000 A 
BRANCH   6   8
ATOM      8  C   UNL     1      45.566   7.366  12.777  0.00  0.00    +0.000 C 
ATOM      9  N   UNL     1      44.493   7.902  12.121  0.00  0.00    +0.000 N 
ATOM     10  O   UNL     1      46.390   8.106  13.301  0.00  0.00    +0.000 OA
ATOM     11  H   UNL     1      43.763   7.391  11.649  0.00  0.00    +0.000 HD
ATOM     12  H   UNL     1      44.440   8.913  12.097  0.00  0.00    +0.000 HD
ENDBRANCH   6   8
ENDBRANCH   1   2
BRANCH   1  13
ATOM     13  C   UNL     1      43.986   3.250   9.925  0.00  0.00    +0.000 C 
BRANCH  13  18
ATOM     14  C   UNL     1      46.731   1.947   7.624  0.00  0.00    +0.000 A 
ATOM     15  C   UNL     1      47.094   3.144   7.007  0.00  0.00    +0.000 A 
ATOM     16  C   UNL     1      46.432   4.306   7.370  0.00  0.00    +0.000 A 
ATOM     17  N   UNL     1      45.447   4.358   8.295  0.00  0.00    +0.000 NA
ATOM     18  C   UNL     1      45.104   3.196   8.905  0.00  0.00    +0.000 A 
ATOM     19  C   UNL     1      45.713   1.981   8.580  0.00  0.00    +0.000 A 
BRANCH  14  20
ATOM     20  C   UNL     1      47.405   0.649   7.268  0.00  0.00    +0.000 C 
BRANCH  20  21
ATOM     21  N   UNL     1      46.628  -0.498   7.717  0.00  0.00    +0.000 NA
ATOM     22  H   UNL     1      45.947  -0.188   8.409  0.00  0.00    +0.000 HD
ATOM     23  H   UNL     1      47.248  -1.148   8.201  0.00  0.00    +0.000 HD
ENDBRANCH  20  21
ENDBRANCH  14  20
ENDBRANCH  13  18
ENDBRANCH   1  13
TORSDOF 6
ENDMDL
MODEL 7
REMARK VINA RESULT:    -6.528      3.445      5.099
REMARK INTER + INTRA:          -8.851
REMARK INTER:                  -8.567
REMARK INTRA:                  -0.284
REMARK UNBOUND:                -0.224
REMARK  Name = 
REMARK  6 active torsions:
REMARK  status: ('A' for Active; 'I' for Inactive)
REMARK    1  A    between atoms: N_1  and  C_2
REMARK    2  A    between atoms: C_2  and  C_3
REMARK    3  A    between atoms: C_7  and  C_8
REMARK    4  A    between atoms: C_8  and  O_9
REMARK    5  A    between atoms: O_9  and  C_10
REMARK    6  A    between atoms: C_14  and  C_15
REMARK                            x       y       z     vdW  Elec       q    Type
REMARK                         _______ _______ _______ _____ _____    ______ ____
ROOT
ATOM      1  O   UNL     1      45.588   3.929  13.918  0.00  0.00    +0.000 OA
ENDROOT
BRANCH   1   2
ATOM      2  C   UNL     1      44.901   4.278  12.797  0.00  0.00    +0.000 A 
ATOM      3  C   UNL     1      43.740   5.014  13.013  0.00  0.00    +0.000 A 
ATOM      4  N   UNL     1      42.917   5.453  12.033  0.00  0.00    +0.000 NA
ATOM      5  C   UNL     1      43.272   5.138  10.766  0.00  0.00    +0.000 A 
ATOM      6  C   UNL     1      44.405   4.406  10.435  0.00  0.00    +0.000 A 
ATOM      7  C   UNL     1      45.236   3.975  11.482  0.00  0.00    +0.000 A 
BRANCH   6   8
ATOM      8  C   UNL     1      44.769   4.056   9.041  0.00  0.00    +0.000 C 
ATOM      9  N   UNL     1      44.332   2.874   8.512  0.00  0.00    +0.000 N 
ATOM     10  O   UNL     1      45.458   4.808   8.362  0.00  0.00    +0.000 OA
ATOM     11  H   UNL     1      43.772   2.179   8.980  0.00  0.00    +0.000 HD
ATOM     12  H   UNL     1      44.616   2.675   7.560  0.00  0.00    +0.000 HD
ENDBRANCH   6   8
ENDBRANCH   1   2
BRANCH   1  13
ATOM     13  C   UNL     1      46.614   4.813  14.383  0.00  0.00    +0.000 C 
BRANCH  13  18
ATOM     14  C   UNL     1      48.168   4.140  17.798  0.00  0.00    +0.000 A 
ATOM     15  C   UNL     1      48.707   2.877  17.555  0.00  0.00    +0.000 A 
ATOM     16  C   UNL     1      48.540   2.313  16.300  0.00  0.00    +0.000 A 
ATOM     17  N   UNL     1      47.883   2.914  15.283  0.00  0.00    +0.000 NA
ATOM     18  C   UNL     1      47.370   4.148  15.516  0.00  0.00    +0.000 A 
ATOM     19  C   UNL     1      47.482   4.774  16.759  0.00  0.00    +0.000 A 
BRANCH  14  20
ATOM     20  C   UNL     1      48.307   4.803  19.142  0.00  0.00    +0.000 C 
BRANCH  20  21
ATOM     21  N   UNL     1      48.496   3.825  20.205  0.00  0.00    +0.000 NA
ATOM     22  H   UNL     1      47.586   3.563  20.580  0.00  0.00    +0.000 HD
ATOM     23  H   UNL     1      49.003   4.266  20.972  0.00  0.00    +0.000 HD
ENDBRANCH  20  21
ENDBRANCH  14  20
ENDBRANCH  13  18
ENDBRANCH   1  13
TORSDOF 6
ENDMDL
MODEL 8
REMARK VINA RESULT:    -6.302      3.558      7.067
REMARK INTER + INTRA:          -8.552
REMARK INTER:                  -8.119
REMARK INTRA:                  -0.433
REMARK UNBOUND:                -0.224
REMARK  Name = 
REMARK  6 active torsions:
REMARK  status: ('A' for Active; 'I' for Inactive)
REMARK    1  A    between atoms: N_1  and  C_2
REMARK    2  A    between atoms: C_2  and  C_3
REMARK    3  A    between atoms: C_7  and  C_8
REMARK    4  A    between atoms: C_8  and  O_9
REMARK    5  A    between atoms: O_9  and  C_10
REMARK    6  A    between atoms: C_14  and  C_15
REMARK                            x       y       z     vdW  Elec       q    Type
REMARK                         _______ _______ _______ _____ _____    ______ ____
ROOT
ATOM      1  O   UNL     1      47.357   6.031  13.160  0.00  0.00    +0.000 OA
ENDROOT
BRANCH   1   2
ATOM      2  C   UNL     1      47.780   5.835  14.438  0.00  0.00    +0.000 A 
ATOM      3  C   UNL     1      48.747   6.726  14.889  0.00  0.00    +0.000 A 
ATOM      4  N   UNL     1      49.299   6.699  16.124  0.00  0.00    +0.000 NA
ATOM      5  C   UNL     1      48.860   5.725  16.956  0.00  0.00    +0.000 A 
ATOM      6  C   UNL     1      47.902   4.780  16.609  0.00  0.00    +0.000 A 
ATOM      7  C   UNL     1      47.351   4.848  15.319  0.00  0.00    +0.000 A 
BRANCH   6   8
ATOM      8  C   UNL     1      47.447   3.709  17.527  0.00  0.00    +0.000 C 
ATOM      9  N   UNL     1      48.133   3.487  18.689  0.00  0.00    +0.000 N 
ATOM     10  O   UNL     1      46.470   3.021  17.257  0.00  0.00    +0.000 OA
ATOM     11  H   UNL     1      48.951   3.984  19.006  0.00  0.00    +0.000 HD
ATOM     12  H   UNL     1      47.790   2.738  19.278  0.00  0.00    +0.000 HD
ENDBRANCH   6   8
ENDBRANCH   1   2
BRANCH   1  13
ATOM     13  C   UNL     1      46.180   6.819  12.952  0.00  0.00    +0.000 C 
BRANCH  13  18
ATOM     14  C   UNL     1      44.242   4.616  10.518  0.00  0.00    +0.000 A 
ATOM     15  C   UNL     1      43.127   4.335  11.309  0.00  0.00    +0.000 A 
ATOM     16  C   UNL     1      43.064   4.874  12.583  0.00  0.00    +0.000 A 
ATOM     17  N   UNL     1      44.020   5.665  13.118  0.00  0.00    +0.000 NA
ATOM     18  C   UNL     1      45.098   5.950  12.344  0.00  0.00    +0.000 A 
ATOM     19  C   UNL     1      45.242   5.430  11.056  0.00  0.00    +0.000 A 
BRANCH  14  20
ATOM     20  C   UNL     1      44.376   4.055   9.128  0.00  0.00    +0.000 C 
BRANCH  20  21
ATOM     21  N   UNL     1      45.398   4.757   8.363  0.00  0.00    +0.000 NA
ATOM     22  H   UNL     1      45.429   4.373   7.420  0.00  0.00    +0.000 HD
ATOM     23  H   UNL     1      46.309   4.566   8.778  0.00  0.00    +0.000 HD
ENDBRANCH  20  21
ENDBRANCH  14  20
ENDBRANCH  13  18
ENDBRANCH   1  13
TORSDOF 6
ENDMDL
MODEL 9
REMARK VINA RESULT:    -6.075      4.512      7.419
REMARK INTER + INTRA:          -8.253
REMARK INTER:                  -7.968
REMARK INTRA:                  -0.285
REMARK UNBOUND:                -0.224
REMARK  Name = 
REMARK  6 active torsions:
REMARK  status: ('A' for Active; 'I' for Inactive)
REMARK    1  A    between atoms: N_1  and  C_2
REMARK    2  A    between atoms: C_2  and  C_3
REMARK    3  A    between atoms: C_7  and  C_8
REMARK    4  A    between atoms: C_8  and  O_9
REMARK    5  A    between atoms: O_9  and  C_10
REMARK    6  A    between atoms: C_14  and  C_15
REMARK                            x       y       z     vdW  Elec       q    Type
REMARK                         _______ _______ _______ _____ _____    ______ ____
ROOT
ATOM      1  O   UNL     1      46.548   4.112  15.610  0.00  0.00    +0.000 OA
ENDROOT
BRANCH   1   2
ATOM      2  C   UNL     1      47.530   3.971  16.541  0.00  0.00    +0.000 A 
ATOM      3  C   UNL     1      47.407   4.779  17.666  0.00  0.00    +0.000 A 
ATOM      4  N   UNL     1      48.279   4.792  18.700  0.00  0.00    +0.000 NA
ATOM      5  C   UNL     1      49.335   3.951  18.605  0.00  0.00    +0.000 A 
ATOM      6  C   UNL     1      49.559   3.103  17.527  0.00  0.00    +0.000 A 
ATOM      7  C   UNL     1      48.626   3.117  16.477  0.00  0.00    +0.000 A 
BRANCH   6   8
ATOM      8  C   UNL     1      50.731   2.201  17.433  0.00  0.00    +0.000 C 
ATOM      9  N   UNL     1      51.820   2.432  18.226  0.00  0.00    +0.000 N 
ATOM     10  O   UNL     1      50.737   1.256  16.652  0.00  0.00    +0.000 OA
ATOM     11  H   UNL     1      51.927   3.180  18.893  0.00  0.00    +0.000 HD
ATOM     12  H   UNL     1      52.600   1.795  18.117  0.00  0.00    +0.000 HD
ENDBRANCH   6   8
ENDBRANCH   1   2
BRANCH   1  13
ATOM     13  C   UNL     1      46.843   4.860  14.426  0.00  0.00    +0.000 C 
BRANCH  13  18
ATOM     14  C   UNL     1      44.099   5.181  11.799  0.00  0.00    +0.000 A 
ATOM     15  C   UNL     1      44.041   3.854  11.372  0.00  0.00    +0.000 A 
ATOM     16  C   UNL     1      44.890   2.929  11.958  0.00  0.00    +0.000 A 
ATOM     17  N   UNL     1      45.781   3.230  12.929  0.00  0.00    +0.000 NA
ATOM     18  C   UNL     1      45.828   4.518  13.353  0.00  0.00    +0.000 A 
ATOM     19  C   UNL     1      45.017   5.510  12.799  0.00  0.00    +0.000 A 
BRANCH  14  20
ATOM     20  C   UNL     1      43.210   6.235  11.197  0.00  0.00    +0.000 C 
BRANCH  20  21
ATOM     21  N   UNL     1      41.948   6.346  11.915  0.00  0.00    +0.000 NA
ATOM     22  H   UNL     1      41.214   6.607  11.259  0.00  0.00    +0.000 HD
ATOM     23  H   UNL     1      42.016   7.112  12.585  0.00  0.00    +0.000 HD
ENDBRANCH  20  21
ENDBRANCH  14  20
ENDBRANCH  13  18
ENDBRANCH   1  13
TORSDOF 6
ENDMDL
