MODEL 1
REMARK VINA RESULT:    -8.483      0.000      0.000
REMARK INTER + INTRA:         -13.104
REMARK INTER:                 -11.954
REMARK INTRA:                  -1.150
REMARK UNBOUND:                -1.150
REMARK  Name = 
REMARK  8 active torsions:
REMARK  status: ('A' for Active; 'I' for Inactive)
REMARK    1  A    between atoms: C_1  and  C_2
REMARK    2  A    between atoms: C_2  and  C_3
REMARK    3  A    between atoms: C_2  and  C_14
REMARK    4  A    between atoms: C_3  and  O_4
REMARK    5  A    between atoms: O_4  and  C_5
REMARK    6  A    between atoms: C_8  and  C_9
REMARK    7  A    between atoms: C_18  and  O_19
REMARK    8  A    between atoms: O_19  and  C_20
REMARK                            x       y       z     vdW  Elec       q    Type
REMARK                         _______ _______ _______ _____ _____    ______ ____
ROOT
ATOM      1  C   UNL     1      42.799   5.042  12.555  0.00  0.00    +0.000 C 
ATOM      2  C   UNL     1      44.051   4.212  12.600  0.00  0.00    +0.000 C 
ENDROOT
BRANCH   2   3
ATOM      3  C   UNL     1      45.302   4.943  12.890  0.00  0.00    +0.000 A 
ATOM      4  C   UNL     1      45.734   5.918  11.983  0.00  0.00    +0.000 A 
ATOM      5  C   UNL     1      46.993   6.497  12.112  0.00  0.00    +0.000 A 
ATOM      6  C   UNL     1      47.822   6.138  13.172  0.00  0.00    +0.000 A 
ATOM      7  C   UNL     1      47.372   5.248  14.146  0.00  0.00    +0.000 A 
ATOM      8  C   UNL     1      46.117   4.640  13.995  0.00  0.00    +0.000 A 
BRANCH   7   9
ATOM      9  O   UNL     1      48.108   4.871  15.244  0.00  0.00    +0.000 OA
BRANCH   9  10
ATOM     10  C   UNL     1      47.387   4.143  16.253  0.00  0.00    +0.000 C 
ATOM     11  C   UNL     1      47.367   4.901  17.571  0.00  0.00    +0.000 C 
ATOM     12  C   UNL     1      48.539   4.346  18.355  0.00  0.00    +0.000 C 
ATOM     13  N   UNL     1      48.706   2.956  17.933  0.00  0.00    +0.000 NA
ATOM     14  C   UNL     1      48.122   2.841  16.587  0.00  0.00    +0.000 C 
ATOM     15  H   UNL     1      48.206   2.340  18.572  0.00  0.00    +0.000 HD
ENDBRANCH   9  10
ENDBRANCH   7   9
ENDBRANCH   2   3
BRANCH   2  16
ATOM     16  C   UNL     1      44.093   2.979  11.744  0.00  0.00    +0.000 C 
BRANCH  16  17
ATOM     17  O   UNL     1      43.575   3.258  10.436  0.00  0.00    +0.000 OA
BRANCH  17  18
ATOM     18  C   UNL     1      44.531   3.032   9.469  0.00  0.00    +0.000 A 
ATOM     19  C   UNL     1      45.032   4.130   8.784  0.00  0.00    +0.000 A 
ATOM     20  C   UNL     1      46.011   3.907   7.810  0.00  0.00    +0.000 A 
ATOM     21  C   UNL     1      46.452   2.606   7.548  0.00  0.00    +0.000 A 
ATOM     22  C   UNL     1      45.882   1.583   8.284  0.00  0.00    +0.000 A 
ATOM     23  N   UNL     1      44.938   1.769   9.232  0.00  0.00    +0.000 NA
BRANCH  21  24
ATOM     24  C   UNL     1      47.486   2.365   6.515  0.00  0.00    +0.000 C 
ATOM     25  N   UNL     1      47.422   3.048   5.333  0.00  0.00    +0.000 N 
ATOM     26  O   UNL     1      48.395   1.560   6.705  0.00  0.00    +0.000 OA
ATOM     27  H   UNL     1      46.716   3.714   5.061  0.00  0.00    +0.000 HD
ATOM     28  H   UNL     1      48.147   2.844   4.655  0.00  0.00    +0.000 HD
ENDBRANCH  21  24
ENDBRANCH  17  18
ENDBRANCH  16  17
ENDBRANCH   2  16
TORSDOF 7
ENDMDL
MODEL 2
REMARK VINA RESULT:    -8.019      1.163      1.528
REMARK INTER + INTRA:         -12.450
REMARK INTER:                 -11.574
REMARK INTRA:                  -0.876
REMARK UNBOUND:                -1.150
REMARK  Name = 
REMARK  8 active torsions:
REMARK  status: ('A' for Active; 'I' for Inactive)
REMARK    1  A    between atoms: C_1  and  C_2
REMARK    2  A    between atoms: C_2  and  C_3
REMARK    3  A    between atoms: C_2  and  C_14
REMARK    4  A    between atoms: C_3  and  O_4
REMARK    5  A    between atoms: O_4  and  C_5
REMARK    6  A    between atoms: C_8  and  C_9
REMARK    7  A    between atoms: C_18  and  O_19
REMARK    8  A    between atoms: O_19  and  C_20
REMARK                            x       y       z     vdW  Elec       q    Type
REMARK                         _______ _______ _______ _____ _____    ______ ____
ROOT
ATOM      1  C   UNL     1      44.024   3.970  12.863  0.00  0.00    +0.000 C 
ATOM      2  C   UNL     1      44.956   4.883  12.117  0.00  0.00    +0.000 C 
ENDROOT
BRANCH   2   3
ATOM      3  C   UNL     1      45.985   5.562  12.932  0.00  0.00    +0.000 A 
ATOM      4  C   UNL     1      46.381   6.855  12.570  0.00  0.00    +0.000 A 
ATOM      5  C   UNL     1      47.472   7.461  13.185  0.00  0.00    +0.000 A 
ATOM      6  C   UNL     1      48.161   6.797  14.197  0.00  0.00    +0.000 A 
ATOM      7  C   UNL     1      47.721   5.553  14.647  0.00  0.00    +0.000 A 
ATOM      8  C   UNL     1      46.643   4.931  14.003  0.00  0.00    +0.000 A 
BRANCH   7   9
ATOM      9  O   UNL     1      48.317   4.848  15.666  0.00  0.00    +0.000 OA
BRANCH   9  10
ATOM     10  C   UNL     1      47.713   5.005  16.961  0.00  0.00    +0.000 C 
ATOM     11  C   UNL     1      48.760   5.298  18.026  0.00  0.00    +0.000 C 
ATOM     12  C   UNL     1      49.099   3.945  18.617  0.00  0.00    +0.000 C 
ATOM     13  N   UNL     1      47.893   3.125  18.513  0.00  0.00    +0.000 NA
ATOM     14  C   UNL     1      47.088   3.680  17.413  0.00  0.00    +0.000 C 
ATOM     15  H   UNL     1      47.363   3.182  19.382  0.00  0.00    +0.000 HD
ENDBRANCH   9  10
ENDBRANCH   7   9
ENDBRANCH   2   3
BRANCH   2  16
ATOM     16  C   UNL     1      44.427   5.551  10.882  0.00  0.00    +0.000 C 
BRANCH  16  17
ATOM     17  O   UNL     1      43.754   4.599  10.045  0.00  0.00    +0.000 OA
BRANCH  17  18
ATOM     18  C   UNL     1      44.654   3.904   9.266  0.00  0.00    +0.000 A 
ATOM     19  C   UNL     1      44.712   2.526   9.414  0.00  0.00    +0.000 A 
ATOM     20  C   UNL     1      45.616   1.816   8.618  0.00  0.00    +0.000 A 
ATOM     21  C   UNL     1      46.431   2.498   7.709  0.00  0.00    +0.000 A 
ATOM     22  C   UNL     1      46.298   3.874   7.646  0.00  0.00    +0.000 A 
ATOM     23  N   UNL     1      45.432   4.585   8.400  0.00  0.00    +0.000 NA
BRANCH  21  24
ATOM     24  C   UNL     1      47.393   1.750   6.866  0.00  0.00    +0.000 C 
ATOM     25  N   UNL     1      48.512   2.385   6.405  0.00  0.00    +0.000 N 
ATOM     26  O   UNL     1      47.197   0.573   6.575  0.00  0.00    +0.000 OA
ATOM     27  H   UNL     1      48.765   3.348   6.563  0.00  0.00    +0.000 HD
ATOM     28  H   UNL     1      49.136   1.834   5.825  0.00  0.00    +0.000 HD
ENDBRANCH  21  24
ENDBRANCH  17  18
ENDBRANCH  16  17
ENDBRANCH   2  16
TORSDOF 7
ENDMDL
MODEL 3
REMARK VINA RESULT:    -7.736      3.601      5.660
REMARK INTER + INTRA:         -12.051
REMARK INTER:                 -11.159
REMARK INTRA:                  -0.892
REMARK UNBOUND:                -1.150
REMARK  Name = 
REMARK  8 active torsions:
REMARK  status: ('A' for Active; 'I' for Inactive)
REMARK    1  A    between atoms: C_1  and  C_2
REMARK    2  A    between atoms: C_2  and  C_3
REMARK    3  A    between atoms: C_2  and  C_14
REMARK    4  A    between atoms: C_3  and  O_4
REMARK    5  A    between atoms: O_4  and  C_5
REMARK    6  A    between atoms: C_8  and  C_9
REMARK    7  A    between atoms: C_18  and  O_19
REMARK    8  A    between atoms: O_19  and  C_20
REMARK                            x       y       z     vdW  Elec       q    Type
REMARK                         _______ _______ _______ _____ _____    ______ ____
ROOT
ATOM      1  C   UNL     1      45.736   3.949  12.734  0.00  0.00    +0.000 C 
ATOM      2  C   UNL     1      45.141   4.855  11.693  0.00  0.00    +0.000 C 
ENDROOT
BRANCH   2   3
ATOM      3  C   UNL     1      45.606   6.257  11.715  0.00  0.00    +0.000 A 
ATOM      4  C   UNL     1      46.968   6.509  11.914  0.00  0.00    +0.000 A 
ATOM      5  C   UNL     1      47.425   7.806  12.130  0.00  0.00    +0.000 A 
ATOM      6  C   UNL     1      46.531   8.873  12.113  0.00  0.00    +0.000 A 
ATOM      7  C   UNL     1      45.186   8.660  11.813  0.00  0.00    +0.000 A 
ATOM      8  C   UNL     1      44.723   7.349  11.629  0.00  0.00    +0.000 A 
BRANCH   7   9
ATOM      9  O   UNL     1      44.247   9.659  11.736  0.00  0.00    +0.000 OA
BRANCH   9  10
ATOM     10  C   UNL     1      43.611   9.814  10.455  0.00  0.00    +0.000 C 
ATOM     11  C   UNL     1      44.039  11.108   9.780  0.00  0.00    +0.000 C 
ATOM     12  C   UNL     1      42.970  12.113  10.158  0.00  0.00    +0.000 C 
ATOM     13  N   UNL     1      41.726  11.364  10.322  0.00  0.00    +0.000 NA
ATOM     14  C   UNL     1      42.098   9.974  10.636  0.00  0.00    +0.000 C 
ATOM     15  H   UNL     1      41.195  11.383   9.452  0.00  0.00    +0.000 HD
ENDBRANCH   9  10
ENDBRANCH   7   9
ENDBRANCH   2   3
BRANCH   2  16
ATOM     16  C   UNL     1      43.754   4.540  11.214  0.00  0.00    +0.000 C 
BRANCH  16  17
ATOM     17  O   UNL     1      43.650   4.757   9.800  0.00  0.00    +0.000 OA
BRANCH  17  18
ATOM     18  C   UNL     1      44.584   4.009   9.116  0.00  0.00    +0.000 A 
ATOM     19  C   UNL     1      44.603   2.639   9.332  0.00  0.00    +0.000 A 
ATOM     20  C   UNL     1      45.543   1.875   8.631  0.00  0.00    +0.000 A 
ATOM     21  C   UNL     1      46.429   2.498   7.747  0.00  0.00    +0.000 A 
ATOM     22  C   UNL     1      46.328   3.871   7.610  0.00  0.00    +0.000 A 
ATOM     23  N   UNL     1      45.430   4.633   8.271  0.00  0.00    +0.000 NA
BRANCH  21  24
ATOM     24  C   UNL     1      47.428   1.693   7.005  0.00  0.00    +0.000 C 
ATOM     25  N   UNL     1      48.516   2.316   6.462  0.00  0.00    +0.000 N 
ATOM     26  O   UNL     1      47.288   0.480   6.870  0.00  0.00    +0.000 OA
ATOM     27  H   UNL     1      48.723   3.301   6.493  0.00  0.00    +0.000 HD
ATOM     28  H   UNL     1      49.168   1.724   5.957  0.00  0.00    +0.000 HD
ENDBRANCH  21  24
ENDBRANCH  17  18
ENDBRANCH  16  17
ENDBRANCH   2  16
TORSDOF 7
ENDMDL
MODEL 4
REMARK VINA RESULT:    -7.580      2.778      4.237
REMARK INTER + INTRA:         -11.832
REMARK INTER:                 -10.743
REMARK INTRA:                  -1.089
REMARK UNBOUND:                -1.150
REMARK  Name = 
REMARK  8 active torsions:
REMARK  status: ('A' for Active; 'I' for Inactive)
REMARK    1  A    between atoms: C_1  and  C_2
REMARK    2  A    between atoms: C_2  and  C_3
REMARK    3  A    between atoms: C_2  and  C_14
REMARK    4  A    between atoms: C_3  and  O_4
REMARK    5  A    between atoms: O_4  and  C_5
REMARK    6  A    between atoms: C_8  and  C_9
REMARK    7  A    between atoms: C_18  and  O_19
REMARK    8  A    between atoms: O_19  and  C_20
REMARK                            x       y       z     vdW  Elec       q    Type
REMARK                         _______ _______ _______ _____ _____    ______ ____
ROOT
ATOM      1  C   UNL     1      42.798   5.489  11.965  0.00  0.00    +0.000 C 
ATOM      2  C   UNL     1      43.906   4.537  12.314  0.00  0.00    +0.000 C 
ENDROOT
BRANCH   2   3
ATOM      3  C   UNL     1      45.232   5.146  12.549  0.00  0.00    +0.000 A 
ATOM      4  C   UNL     1      46.125   4.497  13.411  0.00  0.00    +0.000 A 
ATOM      5  C   UNL     1      47.303   5.120  13.811  0.00  0.00    +0.000 A 
ATOM      6  C   UNL     1      47.623   6.386  13.327  0.00  0.00    +0.000 A 
ATOM      7  C   UNL     1      46.802   7.008  12.387  0.00  0.00    +0.000 A 
ATOM      8  C   UNL     1      45.600   6.393  12.011  0.00  0.00    +0.000 A 
BRANCH   7   9
ATOM      9  O   UNL     1      47.064   8.236  11.828  0.00  0.00    +0.000 OA
BRANCH   9  10
ATOM     10  C   UNL     1      46.653   9.371  12.607  0.00  0.00    +0.000 C 
ATOM     11  C   UNL     1      45.234   9.794  12.259  0.00  0.00    +0.000 C 
ATOM     12  C   UNL     1      45.398  10.879  11.214  0.00  0.00    +0.000 C 
ATOM     13  N   UNL     1      46.665  11.550  11.501  0.00  0.00    +0.000 NA
ATOM     14  C   UNL     1      47.502  10.594  12.243  0.00  0.00    +0.000 C 
ATOM     15  H   UNL     1      46.495  12.372  12.080  0.00  0.00    +0.000 HD
ENDBRANCH   9  10
ENDBRANCH   7   9
ENDBRANCH   2   3
BRANCH   2  16
ATOM     16  C   UNL     1      43.818   3.142  11.765  0.00  0.00    +0.000 C 
BRANCH  16  17
ATOM     17  O   UNL     1      43.304   3.161  10.426  0.00  0.00    +0.000 OA
BRANCH  17  18
ATOM     18  C   UNL     1      44.313   2.957   9.508  0.00  0.00    +0.000 A 
ATOM     19  C   UNL     1      44.750   4.049   8.771  0.00  0.00    +0.000 A 
ATOM     20  C   UNL     1      45.780   3.848   7.847  0.00  0.00    +0.000 A 
ATOM     21  C   UNL     1      46.336   2.575   7.686  0.00  0.00    +0.000 A 
ATOM     22  C   UNL     1      45.823   1.555   8.468  0.00  0.00    +0.000 A 
ATOM     23  N   UNL     1      44.830   1.720   9.369  0.00  0.00    +0.000 NA
BRANCH  21  24
ATOM     24  C   UNL     1      47.426   2.358   6.706  0.00  0.00    +0.000 C 
ATOM     25  N   UNL     1      47.485   3.141   5.588  0.00  0.00    +0.000 N 
ATOM     26  O   UNL     1      48.272   1.484   6.884  0.00  0.00    +0.000 OA
ATOM     27  H   UNL     1      46.840   3.871   5.330  0.00  0.00    +0.000 HD
ATOM     28  H   UNL     1      48.245   2.949   4.944  0.00  0.00    +0.000 HD
ENDBRANCH  21  24
ENDBRANCH  17  18
ENDBRANCH  16  17
ENDBRANCH   2  16
TORSDOF 7
ENDMDL
MODEL 5
REMARK VINA RESULT:    -7.548      2.652      3.167
REMARK INTER + INTRA:         -11.787
REMARK INTER:                 -11.157
REMARK INTRA:                  -0.631
REMARK UNBOUND:                -1.150
REMARK  Name = 
REMARK  8 active torsions:
REMARK  status: ('A' for Active; 'I' for Inactive)
REMARK    1  A    between atoms: C_1  and  C_2
REMARK    2  A    between atoms: C_2  and  C_3
REMARK    3  A    between atoms: C_2  and  C_14
REMARK    4  A    between atoms: C_3  and  O_4
REMARK    5  A    between atoms: O_4  and  C_5
REMARK    6  A    between atoms: C_8  and  C_9
REMARK    7  A    between atoms: C_18  and  O_19
REMARK    8  A    between atoms: O_19  and  C_20
REMARK                            x       y       z     vdW  Elec       q    Type
REMARK                         _______ _______ _______ _____ _____    ______ ____
ROOT
ATOM      1  C   UNL     1      45.675   3.396  12.768  0.00  0.00    +0.000 C 
ATOM      2  C   UNL     1      44.976   4.410  11.907  0.00  0.00    +0.000 C 
ENDROOT
BRANCH   2   3
ATOM      3  C   UNL     1      45.252   5.827  12.224  0.00  0.00    +0.000 A 
ATOM      4  C   UNL     1      44.467   6.815  11.618  0.00  0.00    +0.000 A 
ATOM      5  C   UNL     1      44.805   8.160  11.735  0.00  0.00    +0.000 A 
ATOM      6  C   UNL     1      45.911   8.539  12.492  0.00  0.00    +0.000 A 
ATOM      7  C   UNL     1      46.646   7.582  13.191  0.00  0.00    +0.000 A 
ATOM      8  C   UNL     1      46.324   6.226  13.044  0.00  0.00    +0.000 A 
BRANCH   7   9
ATOM      9  O   UNL     1      47.724   7.874  13.992  0.00  0.00    +0.000 OA
BRANCH   9  10
ATOM     10  C   UNL     1      48.864   7.011  13.833  0.00  0.00    +0.000 C 
ATOM     11  C   UNL     1      49.855   7.193  14.973  0.00  0.00    +0.000 C 
ATOM     12  C   UNL     1      50.857   8.206  14.456  0.00  0.00    +0.000 C 
ATOM     13  N   UNL     1      50.928   8.026  13.007  0.00  0.00    +0.000 NA
ATOM     14  C   UNL     1      49.658   7.413  12.586  0.00  0.00    +0.000 C 
ATOM     15  H   UNL     1      51.698   7.399  12.776  0.00  0.00    +0.000 HD
ENDBRANCH   9  10
ENDBRANCH   7   9
ENDBRANCH   2   3
BRANCH   2  16
ATOM     16  C   UNL     1      43.647   4.025  11.325  0.00  0.00    +0.000 C 
BRANCH  16  17
ATOM     17  O   UNL     1      43.567   4.426   9.950  0.00  0.00    +0.000 OA
BRANCH  17  18
ATOM     18  C   UNL     1      44.531   3.793   9.195  0.00  0.00    +0.000 A 
ATOM     19  C   UNL     1      44.681   2.423   9.350  0.00  0.00    +0.000 A 
ATOM     20  C   UNL     1      45.650   1.775   8.577  0.00  0.00    +0.000 A 
ATOM     21  C   UNL     1      46.436   2.510   7.684  0.00  0.00    +0.000 A 
ATOM     22  C   UNL     1      46.208   3.873   7.611  0.00  0.00    +0.000 A 
ATOM     23  N   UNL     1      45.278   4.524   8.342  0.00  0.00    +0.000 NA
BRANCH  21  24
ATOM     24  C   UNL     1      47.466   1.828   6.865  0.00  0.00    +0.000 C 
ATOM     25  N   UNL     1      48.557   2.534   6.441  0.00  0.00    +0.000 N 
ATOM     26  O   UNL     1      47.351   0.643   6.563  0.00  0.00    +0.000 OA
ATOM     27  H   UNL     1      48.746   3.509   6.612  0.00  0.00    +0.000 HD
ATOM     28  H   UNL     1      49.230   2.026   5.878  0.00  0.00    +0.000 HD
ENDBRANCH  21  24
ENDBRANCH  17  18
ENDBRANCH  16  17
ENDBRANCH   2  16
TORSDOF 7
ENDMDL
MODEL 6
REMARK VINA RESULT:    -7.308      2.733      4.036
REMARK INTER + INTRA:         -11.448
REMARK INTER:                 -10.406
REMARK INTRA:                  -1.042
REMARK UNBOUND:                -1.150
REMARK  Name = 
REMARK  8 active torsions:
REMARK  status: ('A' for Active; 'I' for Inactive)
REMARK    1  A    between atoms: C_1  and  C_2
REMARK    2  A    between atoms: C_2  and  C_3
REMARK    3  A    between atoms: C_2  and  C_14
REMARK    4  A    between atoms: C_3  and  O_4
REMARK    5  A    between atoms: O_4  and  C_5
REMARK    6  A    between atoms: C_8  and  C_9
REMARK    7  A    between atoms: C_18  and  O_19
REMARK    8  A    between atoms: O_19  and  C_20
REMARK                            x       y       z     vdW  Elec       q    Type
REMARK                         _______ _______ _______ _____ _____    ______ ____
ROOT
ATOM      1  C   UNL     1      43.648   6.035  11.315  0.00  0.00    +0.000 C 
ATOM      2  C   UNL     1      44.454   4.961  11.990  0.00  0.00    +0.000 C 
ENDROOT
BRANCH   2   3
ATOM      3  C   UNL     1      45.797   5.359  12.459  0.00  0.00    +0.000 A 
ATOM      4  C   UNL     1      46.235   4.898  13.707  0.00  0.00    +0.000 A 
ATOM      5  C   UNL     1      47.406   5.393  14.274  0.00  0.00    +0.000 A 
ATOM      6  C   UNL     1      48.175   6.328  13.586  0.00  0.00    +0.000 A 
ATOM      7  C   UNL     1      47.815   6.723  12.298  0.00  0.00    +0.000 A 
ATOM      8  C   UNL     1      46.618   6.248  11.743  0.00  0.00    +0.000 A 
BRANCH   7   9
ATOM      9  O   UNL     1      48.538   7.607  11.533  0.00  0.00    +0.000 OA
BRANCH   9  10
ATOM     10  C   UNL     1      49.235   8.630  12.263  0.00  0.00    +0.000 C 
ATOM     11  C   UNL     1      48.837  10.018  11.784  0.00  0.00    +0.000 C 
ATOM     12  C   UNL     1      49.882  10.385  10.750  0.00  0.00    +0.000 C 
ATOM     13  N   UNL     1      51.119   9.714  11.146  0.00  0.00    +0.000 NA
ATOM     14  C   UNL     1      50.737   8.555  11.968  0.00  0.00    +0.000 C 
ATOM     15  H   UNL     1      51.692  10.348  11.702  0.00  0.00    +0.000 HD
ENDBRANCH   9  10
ENDBRANCH   7   9
ENDBRANCH   2   3
BRANCH   2  16
ATOM     16  C   UNL     1      44.205   3.542  11.568  0.00  0.00    +0.000 C 
BRANCH  16  17
ATOM     17  O   UNL     1      43.638   3.503  10.250  0.00  0.00    +0.000 OA
BRANCH  17  18
ATOM     18  C   UNL     1      44.597   3.194   9.309  0.00  0.00    +0.000 A 
ATOM     19  C   UNL     1      45.081   4.222   8.514  0.00  0.00    +0.000 A 
ATOM     20  C   UNL     1      46.062   3.915   7.566  0.00  0.00    +0.000 A 
ATOM     21  C   UNL     1      46.523   2.601   7.439  0.00  0.00    +0.000 A 
ATOM     22  C   UNL     1      45.969   1.650   8.278  0.00  0.00    +0.000 A 
ATOM     23  N   UNL     1      45.023   1.919   9.204  0.00  0.00    +0.000 NA
BRANCH  21  24
ATOM     24  C   UNL     1      47.560   2.271   6.434  0.00  0.00    +0.000 C 
ATOM     25  N   UNL     1      47.543   2.905   5.223  0.00  0.00    +0.000 N 
ATOM     26  O   UNL     1      48.429   1.436   6.672  0.00  0.00    +0.000 OA
ATOM     27  H   UNL     1      46.872   3.588   4.912  0.00  0.00    +0.000 HD
ATOM     28  H   UNL     1      48.268   2.639   4.566  0.00  0.00    +0.000 HD
ENDBRANCH  21  24
ENDBRANCH  17  18
ENDBRANCH  16  17
ENDBRANCH   2  16
TORSDOF 7
ENDMDL
MODEL 7
REMARK VINA RESULT:    -6.897      1.903      7.622
REMARK INTER + INTRA:         -10.869
REMARK INTER:                 -10.161
REMARK INTRA:                  -0.708
REMARK UNBOUND:                -1.150
REMARK  Name = 
REMARK  8 active torsions:
REMARK  status: ('A' for Active; 'I' for Inactive)
REMARK    1  A    between atoms: C_1  and  C_2
REMARK    2  A    between atoms: C_2  and  C_3
REMARK    3  A    between atoms: C_2  and  C_14
REMARK    4  A    between atoms: C_3  and  O_4
REMARK    5  A    between atoms: O_4  and  C_5
REMARK    6  A    between atoms: C_8  and  C_9
REMARK    7  A    between atoms: C_18  and  O_19
REMARK    8  A    between atoms: O_19  and  C_20
REMARK                            x       y       z     vdW  Elec       q    Type
REMARK                         _______ _______ _______ _____ _____    ______ ____
ROOT
ATOM      1  C   UNL     1      44.549   8.953  11.228  0.00  0.00    +0.000 C 
ATOM      2  C   UNL     1      45.267   7.702  11.649  0.00  0.00    +0.000 C 
ENDROOT
BRANCH   2   3
ATOM      3  C   UNL     1      44.575   6.430  11.356  0.00  0.00    +0.000 A 
ATOM      4  C   UNL     1      43.225   6.305  11.705  0.00  0.00    +0.000 A 
ATOM      5  C   UNL     1      42.583   5.073  11.624  0.00  0.00    +0.000 A 
ATOM      6  C   UNL     1      43.271   3.956  11.157  0.00  0.00    +0.000 A 
ATOM      7  C   UNL     1      44.585   4.077  10.705  0.00  0.00    +0.000 A 
ATOM      8  C   UNL     1      45.239   5.312  10.819  0.00  0.00    +0.000 A 
BRANCH   7   9
ATOM      9  O   UNL     1      45.322   3.037  10.192  0.00  0.00    +0.000 OA
BRANCH   9  10
ATOM     10  C   UNL     1      44.940   2.597   8.878  0.00  0.00    +0.000 C 
ATOM     11  C   UNL     1      45.977   1.652   8.289  0.00  0.00    +0.000 C 
ATOM     12  C   UNL     1      46.885   2.541   7.462  0.00  0.00    +0.000 C 
ATOM     13  N   UNL     1      46.061   3.647   6.977  0.00  0.00    +0.000 NA
ATOM     14  C   UNL     1      44.930   3.784   7.908  0.00  0.00    +0.000 C 
ATOM     15  H   UNL     1      45.708   3.430   6.045  0.00  0.00    +0.000 HD
ENDBRANCH   9  10
ENDBRANCH   7   9
ENDBRANCH   2   3
BRANCH   2  16
ATOM     16  C   UNL     1      46.177   7.795  12.839  0.00  0.00    +0.000 C 
BRANCH  16  17
ATOM     17  O   UNL     1      47.284   6.893  12.697  0.00  0.00    +0.000 OA
BRANCH  17  18
ATOM     18  C   UNL     1      47.387   6.062  13.792  0.00  0.00    +0.000 A 
ATOM     19  C   UNL     1      46.584   4.930  13.825  0.00  0.00    +0.000 A 
ATOM     20  C   UNL     1      46.694   4.078  14.929  0.00  0.00    +0.000 A 
ATOM     21  C   UNL     1      47.590   4.382  15.959  0.00  0.00    +0.000 A 
ATOM     22  C   UNL     1      48.338   5.538  15.829  0.00  0.00    +0.000 A 
ATOM     23  N   UNL     1      48.256   6.377  14.773  0.00  0.00    +0.000 NA
BRANCH  21  24
ATOM     24  C   UNL     1      47.707   3.484  17.132  0.00  0.00    +0.000 C 
ATOM     25  N   UNL     1      48.917   3.348  17.751  0.00  0.00    +0.000 N 
ATOM     26  O   UNL     1      46.734   2.860  17.550  0.00  0.00    +0.000 OA
ATOM     27  H   UNL     1      49.782   3.793  17.486  0.00  0.00    +0.000 HD
ATOM     28  H   UNL     1      48.949   2.717  18.544  0.00  0.00    +0.000 HD
ENDBRANCH  21  24
ENDBRANCH  17  18
ENDBRANCH  16  17
ENDBRANCH   2  16
TORSDOF 7
ENDMDL
MODEL 8
REMARK VINA RESULT:    -6.675      1.705      8.130
REMARK INTER + INTRA:         -10.556
REMARK INTER:                  -9.746
REMARK INTRA:                  -0.810
REMARK UNBOUND:                -1.150
REMARK  Name = 
REMARK  8 active torsions:
REMARK  status: ('A' for Active; 'I' for Inactive)
REMARK    1  A    between atoms: C_1  and  C_2
REMARK    2  A    between atoms: C_2  and  C_3
REMARK    3  A    between atoms: C_2  and  C_14
REMARK    4  A    between atoms: C_3  and  O_4
REMARK    5  A    between atoms: O_4  and  C_5
REMARK    6  A    between atoms: C_8  and  C_9
REMARK    7  A    between atoms: C_18  and  O_19
REMARK    8  A    between atoms: O_19  and  C_20
REMARK                            x       y       z     vdW  Elec       q    Type
REMARK                         _______ _______ _______ _____ _____    ______ ____
ROOT
ATOM      1  C   UNL     1      44.469   7.852  11.398  0.00  0.00    +0.000 C 
ATOM      2  C   UNL     1      45.327   6.646  11.656  0.00  0.00    +0.000 C 
ENDROOT
BRANCH   2   3
ATOM      3  C   UNL     1      44.781   5.353  11.193  0.00  0.00    +0.000 A 
ATOM      4  C   UNL     1      44.016   4.591  12.084  0.00  0.00    +0.000 A 
ATOM      5  C   UNL     1      43.640   3.291  11.763  0.00  0.00    +0.000 A 
ATOM      6  C   UNL     1      43.992   2.746  10.531  0.00  0.00    +0.000 A 
ATOM      7  C   UNL     1      44.663   3.521   9.585  0.00  0.00    +0.000 A 
ATOM      8  C   UNL     1      45.070   4.819   9.925  0.00  0.00    +0.000 A 
BRANCH   7   9
ATOM      9  O   UNL     1      45.012   3.076   8.333  0.00  0.00    +0.000 OA
BRANCH   9  10
ATOM     10  C   UNL     1      46.417   2.856   8.123  0.00  0.00    +0.000 C 
ATOM     11  C   UNL     1      46.913   3.597   6.890  0.00  0.00    +0.000 C 
ATOM     12  C   UNL     1      46.835   2.579   5.770  0.00  0.00    +0.000 C 
ATOM     13  N   UNL     1      47.051   1.267   6.377  0.00  0.00    +0.000 NA
ATOM     14  C   UNL     1      46.674   1.381   7.795  0.00  0.00    +0.000 C 
ATOM     15  H   UNL     1      48.036   1.014   6.309  0.00  0.00    +0.000 HD
ENDBRANCH   9  10
ENDBRANCH   7   9
ENDBRANCH   2   3
BRANCH   2  16
ATOM     16  C   UNL     1      46.231   6.684  12.854  0.00  0.00    +0.000 C 
BRANCH  16  17
ATOM     17  O   UNL     1      47.062   5.515  12.893  0.00  0.00    +0.000 OA
BRANCH  17  18
ATOM     18  C   UNL     1      47.432   5.216  14.187  0.00  0.00    +0.000 A 
ATOM     19  C   UNL     1      48.166   6.163  14.887  0.00  0.00    +0.000 A 
ATOM     20  C   UNL     1      48.534   5.869  16.205  0.00  0.00    +0.000 A 
ATOM     21  C   UNL     1      48.164   4.647  16.775  0.00  0.00    +0.000 A 
ATOM     22  C   UNL     1      47.437   3.772  15.988  0.00  0.00    +0.000 A 
ATOM     23  N   UNL     1      47.066   4.031  14.715  0.00  0.00    +0.000 NA
BRANCH  21  24
ATOM     24  C   UNL     1      48.554   4.329  18.170  0.00  0.00    +0.000 C 
ATOM     25  N   UNL     1      49.093   3.106  18.450  0.00  0.00    +0.000 N 
ATOM     26  O   UNL     1      48.395   5.147  19.073  0.00  0.00    +0.000 OA
ATOM     27  H   UNL     1      49.251   2.354  17.797  0.00  0.00    +0.000 HD
ATOM     28  H   UNL     1      49.337   2.932  19.419  0.00  0.00    +0.000 HD
ENDBRANCH  21  24
ENDBRANCH  17  18
ENDBRANCH  16  17
ENDBRANCH   2  16
TORSDOF 7
ENDMDL
MODEL 9
REMARK VINA RESULT:    -6.397      3.149      7.701
REMARK INTER + INTRA:         -10.165
REMARK INTER:                  -9.042
REMARK INTRA:                  -1.124
REMARK UNBOUND:                -1.150
REMARK  Name = 
REMARK  8 active torsions:
REMARK  status: ('A' for Active; 'I' for Inactive)
REMARK    1  A    between atoms: C_1  and  C_2
REMARK    2  A    between atoms: C_2  and  C_3
REMARK    3  A    between atoms: C_2  and  C_14
REMARK    4  A    between atoms: C_3  and  O_4
REMARK    5  A    between atoms: O_4  and  C_5
REMARK    6  A    between atoms: C_8  and  C_9
REMARK    7  A    between atoms: C_18  and  O_19
REMARK    8  A    between atoms: O_19  and  C_20
REMARK                            x       y       z     vdW  Elec       q    Type
REMARK                         _______ _______ _______ _____ _____    ______ ____
ROOT
ATOM      1  C   UNL     1      49.757   9.421  11.809  0.00  0.00    +0.000 C 
ATOM      2  C   UNL     1      48.980   8.183  12.160  0.00  0.00    +0.000 C 
ENDROOT
BRANCH   2   3
ATOM      3  C   UNL     1      47.512   8.282  12.023  0.00  0.00    +0.000 A 
ATOM      4  C   UNL     1      46.916   9.548  12.084  0.00  0.00    +0.000 A 
ATOM      5  C   UNL     1      45.532   9.678  12.150  0.00  0.00    +0.000 A 
ATOM      6  C   UNL     1      44.722   8.546  12.117  0.00  0.00    +0.000 A 
ATOM      7  C   UNL     1      45.287   7.282  11.950  0.00  0.00    +0.000 A 
ATOM      8  C   UNL     1      46.682   7.151  11.918  0.00  0.00    +0.000 A 
BRANCH   7   9
ATOM      9  O   UNL     1      44.559   6.119  11.866  0.00  0.00    +0.000 OA
BRANCH   9  10
ATOM     10  C   UNL     1      45.308   4.945  11.505  0.00  0.00    +0.000 C 
ATOM     11  C   UNL     1      44.605   4.159  10.408  0.00  0.00    +0.000 C 
ATOM     12  C   UNL     1      43.789   3.115  11.143  0.00  0.00    +0.000 C 
ATOM     13  N   UNL     1      44.516   2.803  12.373  0.00  0.00    +0.000 NA
ATOM     14  C   UNL     1      45.356   3.970  12.686  0.00  0.00    +0.000 C 
ATOM     15  H   UNL     1      45.110   1.988  12.225  0.00  0.00    +0.000 HD
ENDBRANCH   9  10
ENDBRANCH   7   9
ENDBRANCH   2   3
BRANCH   2  16
ATOM     16  C   UNL     1      49.569   7.266  13.191  0.00  0.00    +0.000 C 
BRANCH  16  17
ATOM     17  O   UNL     1      49.251   7.726  14.513  0.00  0.00    +0.000 OA
BRANCH  17  18
ATOM     18  C   UNL     1      48.843   6.681  15.314  0.00  0.00    +0.000 A 
ATOM     19  C   UNL     1      49.273   6.668  16.633  0.00  0.00    +0.000 A 
ATOM     20  C   UNL     1      48.852   5.615  17.452  0.00  0.00    +0.000 A 
ATOM     21  C   UNL     1      48.024   4.615  16.932  0.00  0.00    +0.000 A 
ATOM     22  C   UNL     1      47.658   4.721  15.602  0.00  0.00    +0.000 A 
ATOM     23  N   UNL     1      48.047   5.727  14.789  0.00  0.00    +0.000 NA
BRANCH  21  24
ATOM     24  C   UNL     1      47.578   3.496  17.796  0.00  0.00    +0.000 C 
ATOM     25  N   UNL     1      48.275   3.215  18.937  0.00  0.00    +0.000 N 
ATOM     26  O   UNL     1      46.597   2.820  17.498  0.00  0.00    +0.000 OA
ATOM     27  H   UNL     1      49.100   3.687  19.270  0.00  0.00    +0.000 HD
ATOM     28  H   UNL     1      47.936   2.436  19.491  0.00  0.00    +0.000 HD
ENDBRANCH  21  24
ENDBRANCH  17  18
ENDBRANCH  16  17
ENDBRANCH   2  16
TORSDOF 7
ENDMDL
