MODEL 1
REMARK VINA RESULT:    -7.555      0.000      0.000
REMARK INTER + INTRA:         -11.439
REMARK INTER:                 -10.647
REMARK INTRA:                  -0.792
REMARK UNBOUND:                -0.792
REMARK  Name = 
REMARK  9 active torsions:
REMARK  status: ('A' for Active; 'I' for Inactive)
REMARK    1  A    between atoms: C_1  and  C_2
REMARK    2  A    between atoms: CA_4  and  C_5
REMARK    3  A    between atoms: C_5  and  OXT_7
REMARK    4  A    between atoms: C_10  and  C_11
REMARK    5  A    between atoms: C_11  and  C_12
REMARK    6  A    between atoms: C_12  and  C_13
REMARK    7  A    between atoms: C_13  and  C_14
REMARK    8  A    between atoms: C_18  and  C_19
REMARK    9  A    between atoms: C_19  and  N_20
REMARK                            x       y       z     vdW  Elec       q    Type
REMARK                         _______ _______ _______ _____ _____    ______ ____
ROOT
ATOM      1  C   UNL     1      45.130   6.288  11.098  0.00  0.00    +0.000 C 
ENDROOT
BRANCH   1   8
ATOM      2  C   UNL     1      43.918   4.025  12.824  0.00  0.00    +0.000 C 
ATOM      3  C   UNL     1      45.215   4.707  13.151  0.00  0.00    +0.000 A 
ATOM      4  N   UNL     1      45.808   4.256  14.291  0.00  0.00    +0.000 NA
ATOM      5  CA  UNL     1      46.989   4.829  14.656  0.00  0.00    +0.000 A 
ATOM      6  C   UNL     1      47.617   5.828  13.938  0.00  0.00    +0.000 A 
ATOM      7  C   UNL     1      46.995   6.275  12.776  0.00  0.00    +0.000 A 
ATOM      8  C   UNL     1      45.774   5.721  12.353  0.00  0.00    +0.000 A 
BRANCH   5   9
ATOM      9  C   UNL     1      47.590   4.309  15.918  0.00  0.00    +0.000 C 
ATOM     10  O   UNL     1      48.749   4.444  16.251  0.00  0.00    +0.000 OA
BRANCH   9  11
ATOM     11  OXT UNL     1      46.650   3.653  16.649  0.00  0.00    +0.000 OA
ATOM     12  HXT UNL     1      46.151   4.315  17.183  0.00  0.00    +0.000 HD
ENDBRANCH   9  11
ENDBRANCH   5   9
ENDBRANCH   1   8
BRANCH   1  13
ATOM     13  C   UNL     1      45.616   5.553   9.840  0.00  0.00    +0.000 C 
BRANCH  13  14
ATOM     14  C   UNL     1      44.588   4.584   9.236  0.00  0.00    +0.000 C 
BRANCH  14  15
ATOM     15  C   UNL     1      45.277   3.426   8.542  0.00  0.00    +0.000 A 
ATOM     16  C   UNL     1      45.210   2.125   9.056  0.00  0.00    +0.000 A 
ATOM     17  C   UNL     1      45.872   1.073   8.414  0.00  0.00    +0.000 A 
ATOM     18  C   UNL     1      46.601   1.306   7.246  0.00  0.00    +0.000 A 
ATOM     19  C   UNL     1      46.676   2.596   6.708  0.00  0.00    +0.000 A 
ATOM     20  C   UNL     1      46.027   3.649   7.377  0.00  0.00    +0.000 A 
BRANCH  19  21
ATOM     21  C   UNL     1      47.442   2.862   5.436  0.00  0.00    +0.000 C 
BRANCH  21  22
ATOM     22  N   UNL     1      48.509   1.885   5.248  0.00  0.00    +0.000 NA
ATOM     23  H   UNL     1      48.930   1.689   6.155  0.00  0.00    +0.000 HD
ATOM     24  H   UNL     1      49.239   2.291   4.668  0.00  0.00    +0.000 HD
ENDBRANCH  21  22
ENDBRANCH  19  21
ENDBRANCH  14  15
ENDBRANCH  13  14
ENDBRANCH   1  13
TORSDOF 8
ENDMDL
MODEL 2
REMARK VINA RESULT:    -7.392      1.867      2.876
REMARK INTER + INTRA:         -11.208
REMARK INTER:                 -10.126
REMARK INTRA:                  -1.083
REMARK UNBOUND:                -0.792
REMARK  Name = 
REMARK  9 active torsions:
REMARK  status: ('A' for Active; 'I' for Inactive)
REMARK    1  A    between atoms: C_1  and  C_2
REMARK    2  A    between atoms: CA_4  and  C_5
REMARK    3  A    between atoms: C_5  and  OXT_7
REMARK    4  A    between atoms: C_10  and  C_11
REMARK    5  A    between atoms: C_11  and  C_12
REMARK    6  A    between atoms: C_12  and  C_13
REMARK    7  A    between atoms: C_13  and  C_14
REMARK    8  A    between atoms: C_18  and  C_19
REMARK    9  A    between atoms: C_19  and  N_20
REMARK                            x       y       z     vdW  Elec       q    Type
REMARK                         _______ _______ _______ _____ _____    ______ ____
ROOT
ATOM      1  C   UNL     1      43.478   4.687  12.716  0.00  0.00    +0.000 C 
ENDROOT
BRANCH   1   8
ATOM      2  C   UNL     1      44.301   7.371  11.416  0.00  0.00    +0.000 C 
ATOM      3  C   UNL     1      45.254   6.498  12.179  0.00  0.00    +0.000 A 
ATOM      4  N   UNL     1      46.526   6.981  12.236  0.00  0.00    +0.000 NA
ATOM      5  CA  UNL     1      47.451   6.242  12.910  0.00  0.00    +0.000 A 
ATOM      6  C   UNL     1      47.173   5.046  13.540  0.00  0.00    +0.000 A 
ATOM      7  C   UNL     1      45.868   4.569  13.471  0.00  0.00    +0.000 A 
ATOM      8  C   UNL     1      44.873   5.288  12.787  0.00  0.00    +0.000 A 
BRANCH   5   9
ATOM      9  C   UNL     1      48.832   6.808  12.929  0.00  0.00    +0.000 C 
ATOM     10  O   UNL     1      49.353   7.417  12.018  0.00  0.00    +0.000 OA
BRANCH   9  11
ATOM     11  OXT UNL     1      49.431   6.541  14.119  0.00  0.00    +0.000 OA
ATOM     12  HXT UNL     1      49.375   7.347  14.686  0.00  0.00    +0.000 HD
ENDBRANCH   9  11
ENDBRANCH   5   9
ENDBRANCH   1   8
BRANCH   1  13
ATOM     13  C   UNL     1      43.163   4.172  11.304  0.00  0.00    +0.000 C 
BRANCH  13  14
ATOM     14  C   UNL     1      43.908   2.885  10.919  0.00  0.00    +0.000 C 
BRANCH  14  15
ATOM     15  C   UNL     1      44.820   3.120   9.731  0.00  0.00    +0.000 A 
ATOM     16  C   UNL     1      45.056   4.410   9.238  0.00  0.00    +0.000 A 
ATOM     17  C   UNL     1      45.881   4.605   8.126  0.00  0.00    +0.000 A 
ATOM     18  C   UNL     1      46.488   3.516   7.498  0.00  0.00    +0.000 A 
ATOM     19  C   UNL     1      46.274   2.217   7.976  0.00  0.00    +0.000 A 
ATOM     20  C   UNL     1      45.422   2.033   9.079  0.00  0.00    +0.000 A 
BRANCH  19  21
ATOM     21  C   UNL     1      46.938   1.031   7.322  0.00  0.00    +0.000 C 
BRANCH  21  22
ATOM     22  N   UNL     1      48.111   1.439   6.555  0.00  0.00    +0.000 NA
ATOM     23  H   UNL     1      48.471   2.305   6.953  0.00  0.00    +0.000 HD
ATOM     24  H   UNL     1      47.832   1.650   5.601  0.00  0.00    +0.000 HD
ENDBRANCH  21  22
ENDBRANCH  19  21
ENDBRANCH  14  15
ENDBRANCH  13  14
ENDBRANCH   1  13
TORSDOF 8
ENDMDL
MODEL 3
REMARK VINA RESULT:    -7.000      3.416      6.931
REMARK INTER + INTRA:         -10.657
REMARK INTER:                  -9.947
REMARK INTRA:                  -0.710
REMARK UNBOUND:                -0.792
REMARK  Name = 
REMARK  9 active torsions:
REMARK  status: ('A' for Active; 'I' for Inactive)
REMARK    1  A    between atoms: C_1  and  C_2
REMARK    2  A    between atoms: CA_4  and  C_5
REMARK    3  A    between atoms: C_5  and  OXT_7
REMARK    4  A    between atoms: C_10  and  C_11
REMARK    5  A    between atoms: C_11  and  C_12
REMARK    6  A    between atoms: C_12  and  C_13
REMARK    7  A    between atoms: C_13  and  C_14
REMARK    8  A    between atoms: C_18  and  C_19
REMARK    9  A    between atoms: C_19  and  N_20
REMARK                            x       y       z     vdW  Elec       q    Type
REMARK                         _______ _______ _______ _____ _____    ______ ____
ROOT
ATOM      1  C   UNL     1      43.759   4.986   9.908  0.00  0.00    +0.000 C 
ENDROOT
BRANCH   1   8
ATOM      2  C   UNL     1      43.919   2.048  10.864  0.00  0.00    +0.000 C 
ATOM      3  C   UNL     1      44.697   2.578   9.696  0.00  0.00    +0.000 A 
ATOM      4  N   UNL     1      45.501   1.655   9.098  0.00  0.00    +0.000 NA
ATOM      5  CA  UNL     1      46.243   2.062   8.030  0.00  0.00    +0.000 A 
ATOM      6  C   UNL     1      46.220   3.344   7.518  0.00  0.00    +0.000 A 
ATOM      7  C   UNL     1      45.392   4.272   8.142  0.00  0.00    +0.000 A 
ATOM      8  C   UNL     1      44.607   3.909   9.250  0.00  0.00    +0.000 A 
BRANCH   5   9
ATOM      9  C   UNL     1      47.117   1.017   7.422  0.00  0.00    +0.000 C 
ATOM     10  O   UNL     1      48.055   1.231   6.683  0.00  0.00    +0.000 OA
BRANCH   9  11
ATOM     11  OXT UNL     1      46.708  -0.219   7.811  0.00  0.00    +0.000 OA
ATOM     12  HXT UNL     1      46.504  -0.750   7.004  0.00  0.00    +0.000 HD
ENDBRANCH   9  11
ENDBRANCH   5   9
ENDBRANCH   1   8
BRANCH   1  13
ATOM     13  C   UNL     1      44.473   5.595  11.123  0.00  0.00    +0.000 C 
BRANCH  13  14
ATOM     14  C   UNL     1      45.847   6.205  10.808  0.00  0.00    +0.000 C 
BRANCH  14  15
ATOM     15  C   UNL     1      46.690   6.320  12.063  0.00  0.00    +0.000 A 
ATOM     16  C   UNL     1      47.595   7.374  12.238  0.00  0.00    +0.000 A 
ATOM     17  C   UNL     1      48.381   7.451  13.393  0.00  0.00    +0.000 A 
ATOM     18  C   UNL     1      48.265   6.481  14.391  0.00  0.00    +0.000 A 
ATOM     19  C   UNL     1      47.361   5.423  14.243  0.00  0.00    +0.000 A 
ATOM     20  C   UNL     1      46.595   5.343  13.067  0.00  0.00    +0.000 A 
BRANCH  19  21
ATOM     21  C   UNL     1      47.208   4.378  15.321  0.00  0.00    +0.000 C 
BRANCH  21  22
ATOM     22  N   UNL     1      47.592   3.057  14.833  0.00  0.00    +0.000 NA
ATOM     23  H   UNL     1      47.004   2.361  15.291  0.00  0.00    +0.000 HD
ATOM     24  H   UNL     1      48.549   2.859  15.112  0.00  0.00    +0.000 HD
ENDBRANCH  21  22
ENDBRANCH  19  21
ENDBRANCH  14  15
ENDBRANCH  13  14
ENDBRANCH   1  13
TORSDOF 8
ENDMDL
MODEL 4
REMARK VINA RESULT:    -6.945      3.740      7.122
REMARK INTER + INTRA:         -10.579
REMARK INTER:                  -9.372
REMARK INTRA:                  -1.207
REMARK UNBOUND:                -0.792
REMARK  Name = 
REMARK  9 active torsions:
REMARK  status: ('A' for Active; 'I' for Inactive)
REMARK    1  A    between atoms: C_1  and  C_2
REMARK    2  A    between atoms: CA_4  and  C_5
REMARK    3  A    between atoms: C_5  and  OXT_7
REMARK    4  A    between atoms: C_10  and  C_11
REMARK    5  A    between atoms: C_11  and  C_12
REMARK    6  A    between atoms: C_12  and  C_13
REMARK    7  A    between atoms: C_13  and  C_14
REMARK    8  A    between atoms: C_18  and  C_19
REMARK    9  A    between atoms: C_19  and  N_20
REMARK                            x       y       z     vdW  Elec       q    Type
REMARK                         _______ _______ _______ _____ _____    ______ ____
ROOT
ATOM      1  C   UNL     1      43.630   3.747  10.702  0.00  0.00    +0.000 C 
ENDROOT
BRANCH   1   8
ATOM      2  C   UNL     1      45.588   5.736   9.368  0.00  0.00    +0.000 C 
ATOM      3  C   UNL     1      45.537   4.275   9.027  0.00  0.00    +0.000 A 
ATOM      4  N   UNL     1      46.419   3.899   8.060  0.00  0.00    +0.000 NA
ATOM      5  CA  UNL     1      46.431   2.586   7.694  0.00  0.00    +0.000 A 
ATOM      6  C   UNL     1      45.612   1.623   8.248  0.00  0.00    +0.000 A 
ATOM      7  C   UNL     1      44.718   2.027   9.234  0.00  0.00    +0.000 A 
ATOM      8  C   UNL     1      44.660   3.368   9.650  0.00  0.00    +0.000 A 
BRANCH   5   9
ATOM      9  C   UNL     1      47.405   2.230   6.621  0.00  0.00    +0.000 C 
ATOM     10  O   UNL     1      48.139   1.264   6.633  0.00  0.00    +0.000 OA
BRANCH   9  11
ATOM     11  OXT UNL     1      47.357   3.149   5.621  0.00  0.00    +0.000 OA
ATOM     12  HXT UNL     1      47.085   4.016   6.005  0.00  0.00    +0.000 HD
ENDBRANCH   9  11
ENDBRANCH   5   9
ENDBRANCH   1   8
BRANCH   1  13
ATOM     13  C   UNL     1      44.053   3.265  12.097  0.00  0.00    +0.000 C 
BRANCH  13  14
ATOM     14  C   UNL     1      43.995   4.349  13.185  0.00  0.00    +0.000 C 
BRANCH  14  15
ATOM     15  C   UNL     1      45.171   5.298  13.069  0.00  0.00    +0.000 A 
ATOM     16  C   UNL     1      46.475   4.882  13.367  0.00  0.00    +0.000 A 
ATOM     17  C   UNL     1      47.545   5.778  13.277  0.00  0.00    +0.000 A 
ATOM     18  C   UNL     1      47.327   7.099  12.878  0.00  0.00    +0.000 A 
ATOM     19  C   UNL     1      46.034   7.537  12.567  0.00  0.00    +0.000 A 
ATOM     20  C   UNL     1      44.964   6.632  12.686  0.00  0.00    +0.000 A 
BRANCH  19  21
ATOM     21  C   UNL     1      45.783   8.954  12.115  0.00  0.00    +0.000 C 
BRANCH  21  22
ATOM     22  N   UNL     1      44.675   9.554  12.850  0.00  0.00    +0.000 NA
ATOM     23  H   UNL     1      43.915   8.877  12.898  0.00  0.00    +0.000 HD
ATOM     24  H   UNL     1      44.321  10.354  12.332  0.00  0.00    +0.000 HD
ENDBRANCH  21  22
ENDBRANCH  19  21
ENDBRANCH  14  15
ENDBRANCH  13  14
ENDBRANCH   1  13
TORSDOF 8
ENDMDL
MODEL 5
REMARK VINA RESULT:    -6.729      2.425      3.932
REMARK INTER + INTRA:         -10.275
REMARK INTER:                  -8.913
REMARK INTRA:                  -1.362
REMARK UNBOUND:                -0.792
REMARK  Name = 
REMARK  9 active torsions:
REMARK  status: ('A' for Active; 'I' for Inactive)
REMARK    1  A    between atoms: C_1  and  C_2
REMARK    2  A    between atoms: CA_4  and  C_5
REMARK    3  A    between atoms: C_5  and  OXT_7
REMARK    4  A    between atoms: C_10  and  C_11
REMARK    5  A    between atoms: C_11  and  C_12
REMARK    6  A    between atoms: C_12  and  C_13
REMARK    7  A    between atoms: C_13  and  C_14
REMARK    8  A    between atoms: C_18  and  C_19
REMARK    9  A    between atoms: C_19  and  N_20
REMARK                            x       y       z     vdW  Elec       q    Type
REMARK                         _______ _______ _______ _____ _____    ______ ____
ROOT
ATOM      1  C   UNL     1      47.338   6.753  12.502  0.00  0.00    +0.000 C 
ENDROOT
BRANCH   1   8
ATOM      2  C   UNL     1      48.761   7.489  15.148  0.00  0.00    +0.000 C 
ATOM      3  C   UNL     1      48.113   6.158  14.904  0.00  0.00    +0.000 A 
ATOM      4  N   UNL     1      48.221   5.287  15.945  0.00  0.00    +0.000 NA
ATOM      5  CA  UNL     1      47.658   4.055  15.798  0.00  0.00    +0.000 A 
ATOM      6  C   UNL     1      46.984   3.645  14.665  0.00  0.00    +0.000 A 
ATOM      7  C   UNL     1      46.884   4.549  13.612  0.00  0.00    +0.000 A 
ATOM      8  C   UNL     1      47.448   5.833  13.708  0.00  0.00    +0.000 A 
BRANCH   5   9
ATOM      9  C   UNL     1      47.817   3.135  16.961  0.00  0.00    +0.000 C 
ATOM     10  O   UNL     1      48.858   2.615  17.306  0.00  0.00    +0.000 OA
BRANCH   9  11
ATOM     11  OXT UNL     1      46.623   2.957  17.584  0.00  0.00    +0.000 OA
ATOM     12  HXT UNL     1      46.424   1.990  17.610  0.00  0.00    +0.000 HD
ENDBRANCH   9  11
ENDBRANCH   5   9
ENDBRANCH   1   8
BRANCH   1  13
ATOM     13  C   UNL     1      46.065   7.611  12.568  0.00  0.00    +0.000 C 
BRANCH  13  14
ATOM     14  C   UNL     1      45.062   7.341  11.437  0.00  0.00    +0.000 C 
BRANCH  14  15
ATOM     15  C   UNL     1      44.473   5.949  11.554  0.00  0.00    +0.000 A 
ATOM     16  C   UNL     1      43.719   5.569  12.672  0.00  0.00    +0.000 A 
ATOM     17  C   UNL     1      43.204   4.272  12.773  0.00  0.00    +0.000 A 
ATOM     18  C   UNL     1      43.427   3.343  11.756  0.00  0.00    +0.000 A 
ATOM     19  C   UNL     1      44.171   3.701  10.625  0.00  0.00    +0.000 A 
ATOM     20  C   UNL     1      44.704   5.000  10.547  0.00  0.00    +0.000 A 
BRANCH  19  21
ATOM     21  C   UNL     1      44.405   2.716   9.506  0.00  0.00    +0.000 C 
BRANCH  21  22
ATOM     22  N   UNL     1      44.408   3.382   8.208  0.00  0.00    +0.000 NA
ATOM     23  H   UNL     1      44.222   2.685   7.488  0.00  0.00    +0.000 HD
ATOM     24  H   UNL     1      45.336   3.754   8.022  0.00  0.00    +0.000 HD
ENDBRANCH  21  22
ENDBRANCH  19  21
ENDBRANCH  14  15
ENDBRANCH  13  14
ENDBRANCH   1  13
TORSDOF 8
ENDMDL
MODEL 6
REMARK VINA RESULT:    -6.671      3.567      7.120
REMARK INTER + INTRA:         -10.193
REMARK INTER:                  -9.277
REMARK INTRA:                  -0.916
REMARK UNBOUND:                -0.792
REMARK  Name = 
REMARK  9 active torsions:
REMARK  status: ('A' for Active; 'I' for Inactive)
REMARK    1  A    between atoms: C_1  and  C_2
REMARK    2  A    between atoms: CA_4  and  C_5
REMARK    3  A    between atoms: C_5  and  OXT_7
REMARK    4  A    between atoms: C_10  and  C_11
REMARK    5  A    between atoms: C_11  and  C_12
REMARK    6  A    between atoms: C_12  and  C_13
REMARK    7  A    between atoms: C_13  and  C_14
REMARK    8  A    between atoms: C_18  and  C_19
REMARK    9  A    between atoms: C_19  and  N_20
REMARK                            x       y       z     vdW  Elec       q    Type
REMARK                         _______ _______ _______ _____ _____    ______ ____
ROOT
ATOM      1  C   UNL     1      43.929   5.045  10.148  0.00  0.00    +0.000 C 
ENDROOT
BRANCH   1   8
ATOM      2  C   UNL     1      43.873   2.024  10.813  0.00  0.00    +0.000 C 
ATOM      3  C   UNL     1      44.721   2.612   9.724  0.00  0.00    +0.000 A 
ATOM      4  N   UNL     1      45.485   1.701   9.060  0.00  0.00    +0.000 NA
ATOM      5  CA  UNL     1      46.286   2.160   8.057  0.00  0.00    +0.000 A 
ATOM      6  C   UNL     1      46.360   3.484   7.674  0.00  0.00    +0.000 A 
ATOM      7  C   UNL     1      45.573   4.400   8.365  0.00  0.00    +0.000 A 
ATOM      8  C   UNL     1      44.730   3.983   9.409  0.00  0.00    +0.000 A 
BRANCH   5   9
ATOM      9  C   UNL     1      47.112   1.123   7.373  0.00  0.00    +0.000 C 
ATOM     10  O   UNL     1      48.001   1.348   6.578  0.00  0.00    +0.000 OA
BRANCH   9  11
ATOM     11  OXT UNL     1      46.722  -0.119   7.763  0.00  0.00    +0.000 OA
ATOM     12  HXT UNL     1      47.176  -0.783   7.191  0.00  0.00    +0.000 HD
ENDBRANCH   9  11
ENDBRANCH   5   9
ENDBRANCH   1   8
BRANCH   1  13
ATOM     13  C   UNL     1      44.849   6.001  10.920  0.00  0.00    +0.000 C 
BRANCH  13  14
ATOM     14  C   UNL     1      45.575   5.357  12.111  0.00  0.00    +0.000 C 
BRANCH  14  15
ATOM     15  C   UNL     1      46.828   6.132  12.467  0.00  0.00    +0.000 A 
ATOM     16  C   UNL     1      47.506   6.899  11.511  0.00  0.00    +0.000 A 
ATOM     17  C   UNL     1      48.674   7.589  11.852  0.00  0.00    +0.000 A 
ATOM     18  C   UNL     1      49.174   7.529  13.154  0.00  0.00    +0.000 A 
ATOM     19  C   UNL     1      48.510   6.775  14.130  0.00  0.00    +0.000 A 
ATOM     20  C   UNL     1      47.351   6.067  13.767  0.00  0.00    +0.000 A 
BRANCH  19  21
ATOM     21  C   UNL     1      49.025   6.716  15.547  0.00  0.00    +0.000 C 
BRANCH  21  22
ATOM     22  N   UNL     1      48.960   5.357  16.075  0.00  0.00    +0.000 NA
ATOM     23  H   UNL     1      49.133   4.705  15.311  0.00  0.00    +0.000 HD
ATOM     24  H   UNL     1      48.018   5.171  16.410  0.00  0.00    +0.000 HD
ENDBRANCH  21  22
ENDBRANCH  19  21
ENDBRANCH  14  15
ENDBRANCH  13  14
ENDBRANCH   1  13
TORSDOF 8
ENDMDL
MODEL 7
REMARK VINA RESULT:    -6.274      3.938      7.086
REMARK INTER + INTRA:          -9.633
REMARK INTER:                  -8.820
REMARK INTRA:                  -0.813
REMARK UNBOUND:                -0.792
REMARK  Name = 
REMARK  9 active torsions:
REMARK  status: ('A' for Active; 'I' for Inactive)
REMARK    1  A    between atoms: C_1  and  C_2
REMARK    2  A    between atoms: CA_4  and  C_5
REMARK    3  A    between atoms: C_5  and  OXT_7
REMARK    4  A    between atoms: C_10  and  C_11
REMARK    5  A    between atoms: C_11  and  C_12
REMARK    6  A    between atoms: C_12  and  C_13
REMARK    7  A    between atoms: C_13  and  C_14
REMARK    8  A    between atoms: C_18  and  C_19
REMARK    9  A    between atoms: C_19  and  N_20
REMARK                            x       y       z     vdW  Elec       q    Type
REMARK                         _______ _______ _______ _____ _____    ______ ____
ROOT
ATOM      1  C   UNL     1      44.013   5.090  10.191  0.00  0.00    +0.000 C 
ENDROOT
BRANCH   1   8
ATOM      2  C   UNL     1      43.909   2.068  10.842  0.00  0.00    +0.000 C 
ATOM      3  C   UNL     1      44.750   2.645   9.742  0.00  0.00    +0.000 A 
ATOM      4  N   UNL     1      45.485   1.723   9.061  0.00  0.00    +0.000 NA
ATOM      5  CA  UNL     1      46.278   2.171   8.047  0.00  0.00    +0.000 A 
ATOM      6  C   UNL     1      46.372   3.496   7.670  0.00  0.00    +0.000 A 
ATOM      7  C   UNL     1      45.614   4.423   8.378  0.00  0.00    +0.000 A 
ATOM      8  C   UNL     1      44.780   4.017   9.434  0.00  0.00    +0.000 A 
BRANCH   5   9
ATOM      9  C   UNL     1      47.072   1.123   7.344  0.00  0.00    +0.000 C 
ATOM     10  O   UNL     1      47.917   1.333   6.498  0.00  0.00    +0.000 OA
BRANCH   9  11
ATOM     11  OXT UNL     1      46.711  -0.112   7.783  0.00  0.00    +0.000 OA
ATOM     12  HXT UNL     1      47.367  -0.768   7.446  0.00  0.00    +0.000 HD
ENDBRANCH   9  11
ENDBRANCH   5   9
ENDBRANCH   1   8
BRANCH   1  13
ATOM     13  C   UNL     1      44.960   6.149  10.773  0.00  0.00    +0.000 C 
BRANCH  13  14
ATOM     14  C   UNL     1      45.711   5.701  12.036  0.00  0.00    +0.000 C 
BRANCH  14  15
ATOM     15  C   UNL     1      46.890   6.611  12.318  0.00  0.00    +0.000 A 
ATOM     16  C   UNL     1      48.034   6.138  12.973  0.00  0.00    +0.000 A 
ATOM     17  C   UNL     1      49.103   6.998  13.245  0.00  0.00    +0.000 A 
ATOM     18  C   UNL     1      49.047   8.339  12.858  0.00  0.00    +0.000 A 
ATOM     19  C   UNL     1      47.917   8.833  12.194  0.00  0.00    +0.000 A 
ATOM     20  C   UNL     1      46.840   7.964  11.949  0.00  0.00    +0.000 A 
BRANCH  19  21
ATOM     21  C   UNL     1      47.848  10.273  11.749  0.00  0.00    +0.000 C 
BRANCH  21  22
ATOM     22  N   UNL     1      46.725  10.965  12.374  0.00  0.00    +0.000 NA
ATOM     23  H   UNL     1      47.013  11.275  13.301  0.00  0.00    +0.000 HD
ATOM     24  H   UNL     1      45.959  10.310  12.510  0.00  0.00    +0.000 HD
ENDBRANCH  21  22
ENDBRANCH  19  21
ENDBRANCH  14  15
ENDBRANCH  13  14
ENDBRANCH   1  13
TORSDOF 8
ENDMDL
MODEL 8
REMARK VINA RESULT:    -6.075      3.906      7.001
REMARK INTER + INTRA:          -9.353
REMARK INTER:                  -8.349
REMARK INTRA:                  -1.004
REMARK UNBOUND:                -0.792
REMARK  Name = 
REMARK  9 active torsions:
REMARK  status: ('A' for Active; 'I' for Inactive)
REMARK    1  A    between atoms: C_1  and  C_2
REMARK    2  A    between atoms: CA_4  and  C_5
REMARK    3  A    between atoms: C_5  and  OXT_7
REMARK    4  A    between atoms: C_10  and  C_11
REMARK    5  A    between atoms: C_11  and  C_12
REMARK    6  A    between atoms: C_12  and  C_13
REMARK    7  A    between atoms: C_13  and  C_14
REMARK    8  A    between atoms: C_18  and  C_19
REMARK    9  A    between atoms: C_19  and  N_20
REMARK                            x       y       z     vdW  Elec       q    Type
REMARK                         _______ _______ _______ _____ _____    ______ ____
ROOT
ATOM      1  C   UNL     1      47.467   7.062  13.314  0.00  0.00    +0.000 C 
ENDROOT
BRANCH   1   8
ATOM      2  C   UNL     1      46.864   4.391  14.752  0.00  0.00    +0.000 C 
ATOM      3  C   UNL     1      46.303   4.748  13.407  0.00  0.00    +0.000 A 
ATOM      4  N   UNL     1      45.515   3.781  12.858  0.00  0.00    +0.000 NA
ATOM      5  CA  UNL     1      44.971   4.031  11.635  0.00  0.00    +0.000 A 
ATOM      6  C   UNL     1      45.164   5.201  10.928  0.00  0.00    +0.000 A 
ATOM      7  C   UNL     1      45.972   6.176  11.505  0.00  0.00    +0.000 A 
ATOM      8  C   UNL     1      46.562   5.972  12.764  0.00  0.00    +0.000 A 
BRANCH   5   9
ATOM      9  C   UNL     1      44.128   2.935  11.073  0.00  0.00    +0.000 C 
ATOM     10  O   UNL     1      42.988   2.686  11.406  0.00  0.00    +0.000 OA
BRANCH   9  11
ATOM     11  OXT UNL     1      44.824   2.245  10.132  0.00  0.00    +0.000 OA
ATOM     12  HXT UNL     1      45.464   1.650  10.589  0.00  0.00    +0.000 HD
ENDBRANCH   9  11
ENDBRANCH   5   9
ENDBRANCH   1   8
BRANCH   1  13
ATOM     13  C   UNL     1      46.726   8.403  13.422  0.00  0.00    +0.000 C 
BRANCH  13  14
ATOM     14  C   UNL     1      47.260   9.498  12.486  0.00  0.00    +0.000 C 
BRANCH  14  15
ATOM     15  C   UNL     1      46.122  10.273  11.853  0.00  0.00    +0.000 A 
ATOM     16  C   UNL     1      46.243  11.638  11.564  0.00  0.00    +0.000 A 
ATOM     17  C   UNL     1      45.174  12.342  11.001  0.00  0.00    +0.000 A 
ATOM     18  C   UNL     1      43.974  11.689  10.710  0.00  0.00    +0.000 A 
ATOM     19  C   UNL     1      43.831  10.323  10.982  0.00  0.00    +0.000 A 
ATOM     20  C   UNL     1      44.905   9.633  11.571  0.00  0.00    +0.000 A 
BRANCH  19  21
ATOM     21  C   UNL     1      42.550   9.597  10.656  0.00  0.00    +0.000 C 
BRANCH  21  22
ATOM     22  N   UNL     1      42.666   8.170  10.934  0.00  0.00    +0.000 NA
ATOM     23  H   UNL     1      42.022   7.934  11.688  0.00  0.00    +0.000 HD
ATOM     24  H   UNL     1      43.602   7.968  11.277  0.00  0.00    +0.000 HD
ENDBRANCH  21  22
ENDBRANCH  19  21
ENDBRANCH  14  15
ENDBRANCH  13  14
ENDBRANCH   1  13
TORSDOF 8
ENDMDL
MODEL 9
REMARK VINA RESULT:    -6.052      4.765      7.764
REMARK INTER + INTRA:          -9.320
REMARK INTER:                  -8.189
REMARK INTRA:                  -1.131
REMARK UNBOUND:                -0.792
REMARK  Name = 
REMARK  9 active torsions:
REMARK  status: ('A' for Active; 'I' for Inactive)
REMARK    1  A    between atoms: C_1  and  C_2
REMARK    2  A    between atoms: CA_4  and  C_5
REMARK    3  A    between atoms: C_5  and  OXT_7
REMARK    4  A    between atoms: C_10  and  C_11
REMARK    5  A    between atoms: C_11  and  C_12
REMARK    6  A    between atoms: C_12  and  C_13
REMARK    7  A    between atoms: C_13  and  C_14
REMARK    8  A    between atoms: C_18  and  C_19
REMARK    9  A    between atoms: C_19  and  N_20
REMARK                            x       y       z     vdW  Elec       q    Type
REMARK                         _______ _______ _______ _____ _____    ______ ____
ROOT
ATOM      1  C   UNL     1      48.294   7.963  12.519  0.00  0.00    +0.000 C 
ENDROOT
BRANCH   1   8
ATOM      2  C   UNL     1      45.381   8.981  12.301  0.00  0.00    +0.000 C 
ATOM      3  C   UNL     1      45.735   7.547  12.566  0.00  0.00    +0.000 A 
ATOM      4  N   UNL     1      44.658   6.728  12.723  0.00  0.00    +0.000 NA
ATOM      5  CA  UNL     1      44.899   5.410  12.970  0.00  0.00    +0.000 A 
ATOM      6  C   UNL     1      46.162   4.860  13.061  0.00  0.00    +0.000 A 
ATOM      7  C   UNL     1      47.249   5.713  12.898  0.00  0.00    +0.000 A 
ATOM      8  C   UNL     1      47.060   7.082  12.644  0.00  0.00    +0.000 A 
BRANCH   5   9
ATOM      9  C   UNL     1      43.686   4.560  13.148  0.00  0.00    +0.000 C 
ATOM     10  O   UNL     1      43.658   3.350  13.057  0.00  0.00    +0.000 OA
BRANCH   9  11
ATOM     11  OXT UNL     1      42.606   5.337  13.425  0.00  0.00    +0.000 OA
ATOM     12  HXT UNL     1      42.536   6.034  12.730  0.00  0.00    +0.000 HD
ENDBRANCH   9  11
ENDBRANCH   5   9
ENDBRANCH   1   8
BRANCH   1  13
ATOM     13  C   UNL     1      49.430   7.465  13.424  0.00  0.00    +0.000 C 
BRANCH  13  14
ATOM     14  C   UNL     1      49.366   7.991  14.866  0.00  0.00    +0.000 C 
BRANCH  14  15
ATOM     15  C   UNL     1      49.584   6.871  15.863  0.00  0.00    +0.000 A 
ATOM     16  C   UNL     1      50.868   6.533  16.309  0.00  0.00    +0.000 A 
ATOM     17  C   UNL     1      51.053   5.480  17.211  0.00  0.00    +0.000 A 
ATOM     18  C   UNL     1      49.956   4.758  17.686  0.00  0.00    +0.000 A 
ATOM     19  C   UNL     1      48.661   5.082  17.262  0.00  0.00    +0.000 A 
ATOM     20  C   UNL     1      48.493   6.126  16.335  0.00  0.00    +0.000 A 
BRANCH  19  21
ATOM     21  C   UNL     1      47.463   4.326  17.780  0.00  0.00    +0.000 C 
BRANCH  21  22
ATOM     22  N   UNL     1      46.557   5.208  18.508  0.00  0.00    +0.000 NA
ATOM     23  H   UNL     1      45.901   5.616  17.842  0.00  0.00    +0.000 HD
ATOM     24  H   UNL     1      47.085   5.980  18.906  0.00  0.00    +0.000 HD
ENDBRANCH  21  22
ENDBRANCH  19  21
ENDBRANCH  14  15
ENDBRANCH  13  14
ENDBRANCH   1  13
TORSDOF 8
ENDMDL
