MODEL 1
REMARK VINA RESULT:    -7.133      0.000      0.000
REMARK INTER + INTRA:         -12.351
REMARK INTER:                 -11.094
REMARK INTRA:                  -1.257
REMARK UNBOUND:                -1.257
REMARK  Name = 
REMARK  11 active torsions:
REMARK  status: ('A' for Active; 'I' for Inactive)
REMARK    1  A    between atoms: C_1  and  C_2
REMARK    2  A    between atoms: C_7  and  C_8
REMARK    3  A    between atoms: C_8  and  N_9
REMARK    4  A    between atoms: N_9  and  C_10
REMARK    5  A    between atoms: C_10  and  C_11
REMARK    6  A    between atoms: C_14  and  C_15
REMARK    7  A    between atoms: C_15  and  N_16
REMARK    8  A    between atoms: N_16  and  C_17
REMARK    9  A    between atoms: C_17  and  C_18
REMARK   10  A    between atoms: C_18  and  O_19
REMARK   11  A    between atoms: C_20  and  C_22
REMARK                            x       y       z     vdW  Elec       q    Type
REMARK                         _______ _______ _______ _____ _____    ______ ____
ROOT
ATOM      1  C   UNL     1      48.071   6.767  12.364  0.00  0.00    +0.000 C 
ENDROOT
BRANCH   1   5
ATOM      2  C   UNL     1      44.680   4.239  11.475  0.00  0.00    +0.000 A 
ATOM      3  C   UNL     1      45.321   4.157  12.718  0.00  0.00    +0.000 A 
ATOM      4  C   UNL     1      46.347   5.049  13.049  0.00  0.00    +0.000 A 
ATOM      5  C   UNL     1      46.756   6.040  12.148  0.00  0.00    +0.000 A 
ATOM      6  C   UNL     1      45.979   6.251  11.001  0.00  0.00    +0.000 A 
ATOM      7  C   UNL     1      44.963   5.346  10.659  0.00  0.00    +0.000 A 
BRANCH   2   8
ATOM      8  C   UNL     1      43.873   3.068  10.938  0.00  0.00    +0.000 C 
BRANCH   8   9
ATOM      9  N   UNL     1      43.970   2.841   9.495  0.00  0.00    +0.000 NA
ATOM     10  H   UNL     1      43.082   2.481   9.150  0.00  0.00    +0.000 HD
BRANCH   9  11
ATOM     11  C   UNL     1      45.017   1.836   9.201  0.00  0.00    +0.000 C 
BRANCH  11  18
ATOM     12  C   UNL     1      46.756  -0.212   7.762  0.00  0.00    +0.000 C 
ATOM     13  C   UNL     1      46.725   1.239   7.365  0.00  0.00    +0.000 A 
ATOM     14  C   UNL     1      47.558   1.646   6.302  0.00  0.00    +0.000 A 
ATOM     15  C   UNL     1      47.628   2.981   5.912  0.00  0.00    +0.000 A 
ATOM     16  C   UNL     1      46.884   3.934   6.594  0.00  0.00    +0.000 A 
ATOM     17  C   UNL     1      46.044   3.549   7.640  0.00  0.00    +0.000 A 
ATOM     18  C   UNL     1      45.921   2.200   8.030  0.00  0.00    +0.000 A 
ENDBRANCH  11  18
ENDBRANCH   9  11
ENDBRANCH   8   9
ENDBRANCH   2   8
ENDBRANCH   1   5
BRANCH   1  19
ATOM     19  N   UNL     1      47.969   7.808  13.411  0.00  0.00    +0.000 N 
ATOM     20  C   UNL     1      48.919   7.778  14.455  0.00  0.00    +0.000 C 
ATOM     21  O   UNL     1      49.845   6.971  14.448  0.00  0.00    +0.000 OA
BRANCH  20  22
ATOM     22  C   UNL     1      48.789   8.704  15.598  0.00  0.00    +0.000 A 
ATOM     23  C   UNL     1      48.791  10.096  15.539  0.00  0.00    +0.000 A 
ATOM     24  N   UNL     1      48.552  10.597  16.791  0.00  0.00    +0.000 N 
ATOM     25  C   UNL     1      48.305   9.571  17.651  0.00  0.00    +0.000 A 
ATOM     26  N   UNL     1      47.951   9.742  18.933  0.00  0.00    +0.000 NA
ATOM     27  C   UNL     1      47.769   8.569  19.564  0.00  0.00    +0.000 A 
ATOM     28  N   UNL     1      47.950   7.339  19.070  0.00  0.00    +0.000 NA
ATOM     29  C   UNL     1      48.309   7.249  17.775  0.00  0.00    +0.000 A 
ATOM     30 CL   UNL     1      48.654   5.696  17.187  0.00  0.00    +0.000 Cl
ATOM     31  C   UNL     1      48.481   8.371  16.970  0.00  0.00    +0.000 A 
ATOM     32  H   UNL     1      48.509  11.572  17.051  0.00  0.00    +0.000 HD
ENDBRANCH  20  22
BRANCH  19  33
ATOM     33  C   UNL     1      46.860   8.770  13.394  0.00  0.00    +0.000 C 
BRANCH  33  34
ATOM     34  C   UNL     1      46.780   9.838  12.306  0.00  0.00    +0.000 C 
BRANCH  34  35
ATOM     35  O   UNL     1      48.106  10.135  11.865  0.00  0.00    +0.000 OA
ATOM     36  H   UNL     1      48.343  11.003  12.232  0.00  0.00    +0.000 HD
ENDBRANCH  34  35
ENDBRANCH  33  34
ENDBRANCH  19  33
ENDBRANCH   1  19
TORSDOF 10
ENDMDL
MODEL 2
REMARK VINA RESULT:    -7.128      3.319      9.072
REMARK INTER + INTRA:         -12.344
REMARK INTER:                  -9.803
REMARK INTRA:                  -2.541
REMARK UNBOUND:                -1.257
REMARK  Name = 
REMARK  11 active torsions:
REMARK  status: ('A' for Active; 'I' for Inactive)
REMARK    1  A    between atoms: C_1  and  C_2
REMARK    2  A    between atoms: C_7  and  C_8
REMARK    3  A    between atoms: C_8  and  N_9
REMARK    4  A    between atoms: N_9  and  C_10
REMARK    5  A    between atoms: C_10  and  C_11
REMARK    6  A    between atoms: C_14  and  C_15
REMARK    7  A    between atoms: C_15  and  N_16
REMARK    8  A    between atoms: N_16  and  C_17
REMARK    9  A    between atoms: C_17  and  C_18
REMARK   10  A    between atoms: C_18  and  O_19
REMARK   11  A    between atoms: C_20  and  C_22
REMARK                            x       y       z     vdW  Elec       q    Type
REMARK                         _______ _______ _______ _____ _____    ______ ____
ROOT
ATOM      1  C   UNL     1      46.051   7.688  13.128  0.00  0.00    +0.000 C 
ENDROOT
BRANCH   1   5
ATOM      2  C   UNL     1      49.481   9.721  11.462  0.00  0.00    +0.000 A 
ATOM      3  C   UNL     1      49.391   8.324  11.416  0.00  0.00    +0.000 A 
ATOM      4  C   UNL     1      48.234   7.671  11.854  0.00  0.00    +0.000 A 
ATOM      5  C   UNL     1      47.143   8.397  12.349  0.00  0.00    +0.000 A 
ATOM      6  C   UNL     1      47.155   9.790  12.199  0.00  0.00    +0.000 A 
ATOM      7  C   UNL     1      48.321  10.446  11.778  0.00  0.00    +0.000 A 
BRANCH   2   8
ATOM      8  C   UNL     1      50.830  10.417  11.383  0.00  0.00    +0.000 C 
BRANCH   8   9
ATOM      9  N   UNL     1      51.875   9.872  12.253  0.00  0.00    +0.000 NA
ATOM     10  H   UNL     1      51.838   8.854  12.227  0.00  0.00    +0.000 HD
BRANCH   9  11
ATOM     11  C   UNL     1      51.657  10.301  13.653  0.00  0.00    +0.000 C 
BRANCH  11  18
ATOM     12  C   UNL     1      49.273  11.458  15.160  0.00  0.00    +0.000 C 
ATOM     13  C   UNL     1      49.563   9.981  15.123  0.00  0.00    +0.000 A 
ATOM     14  C   UNL     1      48.702   9.126  15.839  0.00  0.00    +0.000 A 
ATOM     15  C   UNL     1      48.935   7.754  15.900  0.00  0.00    +0.000 A 
ATOM     16  C   UNL     1      50.047   7.220  15.265  0.00  0.00    +0.000 A 
ATOM     17  C   UNL     1      50.905   8.049  14.540  0.00  0.00    +0.000 A 
ATOM     18  C   UNL     1      50.671   9.435  14.426  0.00  0.00    +0.000 A 
ENDBRANCH  11  18
ENDBRANCH   9  11
ENDBRANCH   8   9
ENDBRANCH   2   8
ENDBRANCH   1   5
BRANCH   1  19
ATOM     19  N   UNL     1      45.866   6.288  12.686  0.00  0.00    +0.000 N 
ATOM     20  C   UNL     1      44.691   5.981  11.967  0.00  0.00    +0.000 C 
ATOM     21  O   UNL     1      43.893   6.860  11.647  0.00  0.00    +0.000 OA
BRANCH  20  22
ATOM     22  C   UNL     1      44.384   4.580  11.616  0.00  0.00    +0.000 A 
ATOM     23  C   UNL     1      43.629   3.685  12.370  0.00  0.00    +0.000 A 
ATOM     24  N   UNL     1      43.489   2.516  11.670  0.00  0.00    +0.000 N 
ATOM     25  C   UNL     1      44.056   2.654  10.439  0.00  0.00    +0.000 A 
ATOM     26  N   UNL     1      44.007   1.711   9.487  0.00  0.00    +0.000 NA
ATOM     27  C   UNL     1      44.647   2.095   8.369  0.00  0.00    +0.000 A 
ATOM     28  N   UNL     1      45.323   3.231   8.163  0.00  0.00    +0.000 NA
ATOM     29  C   UNL     1      45.329   4.127   9.169  0.00  0.00    +0.000 A 
ATOM     30 CL   UNL     1      46.285   5.510   8.949  0.00  0.00    +0.000 Cl
ATOM     31  C   UNL     1      44.664   3.903  10.370  0.00  0.00    +0.000 A 
ATOM     32  H   UNL     1      43.000   1.686  11.975  0.00  0.00    +0.000 HD
ENDBRANCH  20  22
BRANCH  19  33
ATOM     33  C   UNL     1      46.837   5.255  13.069  0.00  0.00    +0.000 C 
BRANCH  33  34
ATOM     34  C   UNL     1      46.743   4.572  14.430  0.00  0.00    +0.000 C 
BRANCH  34  35
ATOM     35  O   UNL     1      47.324   3.271  14.326  0.00  0.00    +0.000 OA
ATOM     36  H   UNL     1      48.274   3.394  14.159  0.00  0.00    +0.000 HD
ENDBRANCH  34  35
ENDBRANCH  33  34
ENDBRANCH  19  33
ENDBRANCH   1  19
TORSDOF 10
ENDMDL
MODEL 3
REMARK VINA RESULT:    -6.974      2.890      8.095
REMARK INTER + INTRA:         -12.104
REMARK INTER:                  -9.568
REMARK INTRA:                  -2.535
REMARK UNBOUND:                -1.257
REMARK  Name = 
REMARK  11 active torsions:
REMARK  status: ('A' for Active; 'I' for Inactive)
REMARK    1  A    between atoms: C_1  and  C_2
REMARK    2  A    between atoms: C_7  and  C_8
REMARK    3  A    between atoms: C_8  and  N_9
REMARK    4  A    between atoms: N_9  and  C_10
REMARK    5  A    between atoms: C_10  and  C_11
REMARK    6  A    between atoms: C_14  and  C_15
REMARK    7  A    between atoms: C_15  and  N_16
REMARK    8  A    between atoms: N_16  and  C_17
REMARK    9  A    between atoms: C_17  and  C_18
REMARK   10  A    between atoms: C_18  and  O_19
REMARK   11  A    between atoms: C_20  and  C_22
REMARK                            x       y       z     vdW  Elec       q    Type
REMARK                         _______ _______ _______ _____ _____    ______ ____
ROOT
ATOM      1  C   UNL     1      48.320   8.911  13.046  0.00  0.00    +0.000 C 
ENDROOT
BRANCH   1   5
ATOM      2  C   UNL     1      48.572   8.005  17.264  0.00  0.00    +0.000 A 
ATOM      3  C   UNL     1      48.922   7.043  16.308  0.00  0.00    +0.000 A 
ATOM      4  C   UNL     1      48.947   7.367  14.948  0.00  0.00    +0.000 A 
ATOM      5  C   UNL     1      48.622   8.658  14.512  0.00  0.00    +0.000 A 
ATOM      6  C   UNL     1      48.479   9.664  15.476  0.00  0.00    +0.000 A 
ATOM      7  C   UNL     1      48.435   9.336  16.839  0.00  0.00    +0.000 A 
BRANCH   2   8
ATOM      8  C   UNL     1      48.150   7.592  18.664  0.00  0.00    +0.000 C 
BRANCH   8   9
ATOM      9  N   UNL     1      47.110   6.564  18.734  0.00  0.00    +0.000 NA
ATOM     10  H   UNL     1      46.312   6.926  19.253  0.00  0.00    +0.000 HD
BRANCH   9  11
ATOM     11  C   UNL     1      47.614   5.368  19.447  0.00  0.00    +0.000 C 
BRANCH  11  18
ATOM     12  C   UNL     1      50.622   4.875  19.371  0.00  0.00    +0.000 C 
ATOM     13  C   UNL     1      49.657   4.101  18.515  0.00  0.00    +0.000 A 
ATOM     14  C   UNL     1      50.189   3.136  17.636  0.00  0.00    +0.000 A 
ATOM     15  C   UNL     1      49.368   2.417  16.771  0.00  0.00    +0.000 A 
ATOM     16  C   UNL     1      48.003   2.670  16.754  0.00  0.00    +0.000 A 
ATOM     17  C   UNL     1      47.455   3.612  17.626  0.00  0.00    +0.000 A 
ATOM     18  C   UNL     1      48.256   4.325  18.542  0.00  0.00    +0.000 A 
ENDBRANCH  11  18
ENDBRANCH   9  11
ENDBRANCH   8   9
ENDBRANCH   2   8
ENDBRANCH   1   5
BRANCH   1  19
ATOM     19  N   UNL     1      47.162   8.120  12.569  0.00  0.00    +0.000 N 
ATOM     20  C   UNL     1      47.432   6.963  11.807  0.00  0.00    +0.000 C 
ATOM     21  O   UNL     1      48.585   6.581  11.619  0.00  0.00    +0.000 OA
BRANCH  20  22
ATOM     22  C   UNL     1      46.322   6.210  11.190  0.00  0.00    +0.000 A 
ATOM     23  C   UNL     1      45.883   6.314   9.872  0.00  0.00    +0.000 A 
ATOM     24  N   UNL     1      44.899   5.388   9.654  0.00  0.00    +0.000 N 
ATOM     25  C   UNL     1      44.744   4.619  10.767  0.00  0.00    +0.000 A 
ATOM     26  N   UNL     1      43.914   3.568  10.836  0.00  0.00    +0.000 NA
ATOM     27  C   UNL     1      43.947   2.983  12.046  0.00  0.00    +0.000 A 
ATOM     28  N   UNL     1      44.643   3.368  13.121  0.00  0.00    +0.000 NA
ATOM     29  C   UNL     1      45.452   4.436  12.974  0.00  0.00    +0.000 A 
ATOM     30 CL   UNL     1      46.240   4.991  14.368  0.00  0.00    +0.000 Cl
ATOM     31  C   UNL     1      45.574   5.115  11.766  0.00  0.00    +0.000 A 
ATOM     32  H   UNL     1      44.389   5.243   8.794  0.00  0.00    +0.000 HD
ENDBRANCH  20  22
BRANCH  19  33
ATOM     33  C   UNL     1      45.793   8.590  12.815  0.00  0.00    +0.000 C 
BRANCH  33  34
ATOM     34  C   UNL     1      45.175   9.669  11.931  0.00  0.00    +0.000 C 
BRANCH  34  35
ATOM     35  O   UNL     1      44.059  10.236  12.621  0.00  0.00    +0.000 OA
ATOM     36  H   UNL     1      44.363  10.471  13.514  0.00  0.00    +0.000 HD
ENDBRANCH  34  35
ENDBRANCH  33  34
ENDBRANCH  19  33
ENDBRANCH   1  19
TORSDOF 10
ENDMDL
MODEL 4
REMARK VINA RESULT:    -6.896      2.032      3.152
REMARK INTER + INTRA:         -11.982
REMARK INTER:                 -10.724
REMARK INTRA:                  -1.258
REMARK UNBOUND:                -1.257
REMARK  Name = 
REMARK  11 active torsions:
REMARK  status: ('A' for Active; 'I' for Inactive)
REMARK    1  A    between atoms: C_1  and  C_2
REMARK    2  A    between atoms: C_7  and  C_8
REMARK    3  A    between atoms: C_8  and  N_9
REMARK    4  A    between atoms: N_9  and  C_10
REMARK    5  A    between atoms: C_10  and  C_11
REMARK    6  A    between atoms: C_14  and  C_15
REMARK    7  A    between atoms: C_15  and  N_16
REMARK    8  A    between atoms: N_16  and  C_17
REMARK    9  A    between atoms: C_17  and  C_18
REMARK   10  A    between atoms: C_18  and  O_19
REMARK   11  A    between atoms: C_20  and  C_22
REMARK                            x       y       z     vdW  Elec       q    Type
REMARK                         _______ _______ _______ _____ _____    ______ ____
ROOT
ATOM      1  C   UNL     1      49.091   6.895  14.509  0.00  0.00    +0.000 C 
ENDROOT
BRANCH   1   5
ATOM      2  C   UNL     1      45.770   5.913  11.924  0.00  0.00    +0.000 A 
ATOM      3  C   UNL     1      46.214   4.999  12.888  0.00  0.00    +0.000 A 
ATOM      4  C   UNL     1      47.214   5.356  13.798  0.00  0.00    +0.000 A 
ATOM      5  C   UNL     1      47.794   6.631  13.765  0.00  0.00    +0.000 A 
ATOM      6  C   UNL     1      47.206   7.602  12.944  0.00  0.00    +0.000 A 
ATOM      7  C   UNL     1      46.216   7.240  12.018  0.00  0.00    +0.000 A 
BRANCH   2   8
ATOM      8  C   UNL     1      45.004   5.440  10.699  0.00  0.00    +0.000 C 
BRANCH   8   9
ATOM      9  N   UNL     1      45.764   5.415   9.448  0.00  0.00    +0.000 NA
ATOM     10  H   UNL     1      45.841   6.362   9.081  0.00  0.00    +0.000 HD
BRANCH   9  11
ATOM     11  C   UNL     1      45.066   4.588   8.437  0.00  0.00    +0.000 C 
BRANCH  11  18
ATOM     12  C   UNL     1      44.552   1.766   9.469  0.00  0.00    +0.000 C 
ATOM     13  C   UNL     1      45.613   2.068   8.446  0.00  0.00    +0.000 A 
ATOM     14  C   UNL     1      46.401   0.995   7.983  0.00  0.00    +0.000 A 
ATOM     15  C   UNL     1      47.440   1.202   7.079  0.00  0.00    +0.000 A 
ATOM     16  C   UNL     1      47.722   2.488   6.642  0.00  0.00    +0.000 A 
ATOM     17  C   UNL     1      46.945   3.562   7.079  0.00  0.00    +0.000 A 
ATOM     18  C   UNL     1      45.861   3.379   7.962  0.00  0.00    +0.000 A 
ENDBRANCH  11  18
ENDBRANCH   9  11
ENDBRANCH   8   9
ENDBRANCH   2   8
ENDBRANCH   1   5
BRANCH   1  19
ATOM     19  N   UNL     1      48.865   7.172  15.945  0.00  0.00    +0.000 N 
ATOM     20  C   UNL     1      49.009   6.097  16.847  0.00  0.00    +0.000 C 
ATOM     21  O   UNL     1      49.390   4.993  16.465  0.00  0.00    +0.000 OA
BRANCH  20  22
ATOM     22  C   UNL     1      48.666   6.277  18.272  0.00  0.00    +0.000 A 
ATOM     23  C   UNL     1      47.494   5.863  18.900  0.00  0.00    +0.000 A 
ATOM     24  N   UNL     1      47.587   6.124  20.241  0.00  0.00    +0.000 N 
ATOM     25  C   UNL     1      48.826   6.615  20.522  0.00  0.00    +0.000 A 
ATOM     26  N   UNL     1      49.255   6.887  21.763  0.00  0.00    +0.000 NA
ATOM     27  C   UNL     1      50.512   7.364  21.765  0.00  0.00    +0.000 A 
ATOM     28  N   UNL     1      51.290   7.622  20.708  0.00  0.00    +0.000 NA
ATOM     29  C   UNL     1      50.787   7.326  19.494  0.00  0.00    +0.000 A 
ATOM     30 CL   UNL     1      51.726   7.764  18.153  0.00  0.00    +0.000 Cl
ATOM     31  C   UNL     1      49.522   6.771  19.328  0.00  0.00    +0.000 A 
ATOM     32  H   UNL     1      46.883   5.940  20.941  0.00  0.00    +0.000 HD
ENDBRANCH  20  22
BRANCH  19  33
ATOM     33  C   UNL     1      48.421   8.502  16.382  0.00  0.00    +0.000 C 
BRANCH  33  34
ATOM     34  C   UNL     1      49.276   9.734  16.101  0.00  0.00    +0.000 C 
BRANCH  34  35
ATOM     35  O   UNL     1      48.451  10.731  15.495  0.00  0.00    +0.000 OA
ATOM     36  H   UNL     1      47.568  10.341  15.381  0.00  0.00    +0.000 HD
ENDBRANCH  34  35
ENDBRANCH  33  34
ENDBRANCH  19  33
ENDBRANCH   1  19
TORSDOF 10
ENDMDL
MODEL 5
REMARK VINA RESULT:    -6.773      2.531      3.830
REMARK INTER + INTRA:         -11.791
REMARK INTER:                 -11.567
REMARK INTRA:                  -0.224
REMARK UNBOUND:                -1.257
REMARK  Name = 
REMARK  11 active torsions:
REMARK  status: ('A' for Active; 'I' for Inactive)
REMARK    1  A    between atoms: C_1  and  C_2
REMARK    2  A    between atoms: C_7  and  C_8
REMARK    3  A    between atoms: C_8  and  N_9
REMARK    4  A    between atoms: N_9  and  C_10
REMARK    5  A    between atoms: C_10  and  C_11
REMARK    6  A    between atoms: C_14  and  C_15
REMARK    7  A    between atoms: C_15  and  N_16
REMARK    8  A    between atoms: N_16  and  C_17
REMARK    9  A    between atoms: C_17  and  C_18
REMARK   10  A    between atoms: C_18  and  O_19
REMARK   11  A    between atoms: C_20  and  C_22
REMARK                            x       y       z     vdW  Elec       q    Type
REMARK                         _______ _______ _______ _____ _____    ______ ____
ROOT
ATOM      1  C   UNL     1      47.963   5.041  14.189  0.00  0.00    +0.000 C 
ENDROOT
BRANCH   1   5
ATOM      2  C   UNL     1      44.372   5.099  11.784  0.00  0.00    +0.000 A 
ATOM      3  C   UNL     1      44.911   3.884  12.227  0.00  0.00    +0.000 A 
ATOM      4  C   UNL     1      46.008   3.868  13.096  0.00  0.00    +0.000 A 
ATOM      5  C   UNL     1      46.591   5.062  13.539  0.00  0.00    +0.000 A 
ATOM      6  C   UNL     1      45.925   6.263  13.265  0.00  0.00    +0.000 A 
ATOM      7  C   UNL     1      44.837   6.282  12.379  0.00  0.00    +0.000 A 
BRANCH   2   8
ATOM      8  C   UNL     1      43.474   5.150  10.559  0.00  0.00    +0.000 C 
BRANCH   8   9
ATOM      9  N   UNL     1      43.839   4.243   9.469  0.00  0.00    +0.000 NA
ATOM     10  H   UNL     1      43.943   3.299   9.836  0.00  0.00    +0.000 HD
BRANCH   9  11
ATOM     11  C   UNL     1      45.134   4.648   8.874  0.00  0.00    +0.000 C 
BRANCH  11  18
ATOM     12  C   UNL     1      44.638   1.708   9.511  0.00  0.00    +0.000 C 
ATOM     13  C   UNL     1      45.646   2.151   8.484  0.00  0.00    +0.000 A 
ATOM     14  C   UNL     1      46.392   1.153   7.826  0.00  0.00    +0.000 A 
ATOM     15  C   UNL     1      47.382   1.484   6.904  0.00  0.00    +0.000 A 
ATOM     16  C   UNL     1      47.658   2.820   6.645  0.00  0.00    +0.000 A 
ATOM     17  C   UNL     1      46.921   3.822   7.278  0.00  0.00    +0.000 A 
ATOM     18  C   UNL     1      45.885   3.517   8.184  0.00  0.00    +0.000 A 
ENDBRANCH  11  18
ENDBRANCH   9  11
ENDBRANCH   8   9
ENDBRANCH   2   8
ENDBRANCH   1   5
BRANCH   1  19
ATOM     19  N   UNL     1      47.882   4.939  15.663  0.00  0.00    +0.000 N 
ATOM     20  C   UNL     1      48.321   6.047  16.419  0.00  0.00    +0.000 C 
ATOM     21  O   UNL     1      48.676   7.089  15.872  0.00  0.00    +0.000 OA
BRANCH  20  22
ATOM     22  C   UNL     1      48.392   5.956  17.891  0.00  0.00    +0.000 A 
ATOM     23  C   UNL     1      47.321   6.034  18.778  0.00  0.00    +0.000 A 
ATOM     24  N   UNL     1      47.775   5.810  20.050  0.00  0.00    +0.000 N 
ATOM     25  C   UNL     1      49.100   5.498  20.010  0.00  0.00    +0.000 A 
ATOM     26  N   UNL     1      49.814   5.141  21.088  0.00  0.00    +0.000 NA
ATOM     27  C   UNL     1      51.097   4.889  20.778  0.00  0.00    +0.000 A 
ATOM     28  N   UNL     1      51.688   5.009  19.583  0.00  0.00    +0.000 NA
ATOM     29  C   UNL     1      50.905   5.376  18.550  0.00  0.00    +0.000 A 
ATOM     30 CL   UNL     1      51.680   5.642  17.066  0.00  0.00    +0.000 Cl
ATOM     31  C   UNL     1      49.543   5.616  18.697  0.00  0.00    +0.000 A 
ATOM     32  H   UNL     1      47.223   5.816  20.896  0.00  0.00    +0.000 HD
ENDBRANCH  20  22
BRANCH  19  33
ATOM     33  C   UNL     1      47.444   3.688  16.296  0.00  0.00    +0.000 C 
BRANCH  33  34
ATOM     34  C   UNL     1      48.468   2.709  16.864  0.00  0.00    +0.000 C 
BRANCH  34  35
ATOM     35  O   UNL     1      49.010   1.945  15.786  0.00  0.00    +0.000 OA
ATOM     36  H   UNL     1      49.969   2.106  15.774  0.00  0.00    +0.000 HD
ENDBRANCH  34  35
ENDBRANCH  33  34
ENDBRANCH  19  33
ENDBRANCH   1  19
TORSDOF 10
ENDMDL
MODEL 6
REMARK VINA RESULT:    -6.653      3.601      6.050
REMARK INTER + INTRA:         -11.606
REMARK INTER:                  -9.733
REMARK INTRA:                  -1.873
REMARK UNBOUND:                -1.257
REMARK  Name = 
REMARK  11 active torsions:
REMARK  status: ('A' for Active; 'I' for Inactive)
REMARK    1  A    between atoms: C_1  and  C_2
REMARK    2  A    between atoms: C_7  and  C_8
REMARK    3  A    between atoms: C_8  and  N_9
REMARK    4  A    between atoms: N_9  and  C_10
REMARK    5  A    between atoms: C_10  and  C_11
REMARK    6  A    between atoms: C_14  and  C_15
REMARK    7  A    between atoms: C_15  and  N_16
REMARK    8  A    between atoms: N_16  and  C_17
REMARK    9  A    between atoms: C_17  and  C_18
REMARK   10  A    between atoms: C_18  and  O_19
REMARK   11  A    between atoms: C_20  and  C_22
REMARK                            x       y       z     vdW  Elec       q    Type
REMARK                         _______ _______ _______ _____ _____    ______ ____
ROOT
ATOM      1  C   UNL     1      47.139   4.302  17.341  0.00  0.00    +0.000 C 
ENDROOT
BRANCH   1   5
ATOM      2  C   UNL     1      47.635   5.890  13.353  0.00  0.00    +0.000 A 
ATOM      3  C   UNL     1      48.233   6.524  14.450  0.00  0.00    +0.000 A 
ATOM      4  C   UNL     1      48.166   5.952  15.725  0.00  0.00    +0.000 A 
ATOM      5  C   UNL     1      47.501   4.738  15.933  0.00  0.00    +0.000 A 
ATOM      6  C   UNL     1      47.090   4.009  14.810  0.00  0.00    +0.000 A 
ATOM      7  C   UNL     1      47.140   4.589  13.533  0.00  0.00    +0.000 A 
BRANCH   2   8
ATOM      8  C   UNL     1      47.343   6.659  12.075  0.00  0.00    +0.000 C 
BRANCH   8   9
ATOM      9  N   UNL     1      46.185   7.553  12.124  0.00  0.00    +0.000 NA
ATOM     10  H   UNL     1      45.796   7.549  13.066  0.00  0.00    +0.000 HD
BRANCH   9  11
ATOM     11  C   UNL     1      45.132   7.085  11.194  0.00  0.00    +0.000 C 
BRANCH  11  18
ATOM     12  C   UNL     1      45.387   4.735   9.268  0.00  0.00    +0.000 C 
ATOM     13  C   UNL     1      44.715   4.609  10.609  0.00  0.00    +0.000 A 
ATOM     14  C   UNL     1      44.169   3.356  10.953  0.00  0.00    +0.000 A 
ATOM     15  C   UNL     1      43.483   3.173  12.151  0.00  0.00    +0.000 A 
ATOM     16  C   UNL     1      43.310   4.247  13.012  0.00  0.00    +0.000 A 
ATOM     17  C   UNL     1      43.854   5.493  12.695  0.00  0.00    +0.000 A 
ATOM     18  C   UNL     1      44.590   5.698  11.510  0.00  0.00    +0.000 A 
ENDBRANCH  11  18
ENDBRANCH   9  11
ENDBRANCH   8   9
ENDBRANCH   2   8
ENDBRANCH   1   5
BRANCH   1  19
ATOM     19  N   UNL     1      48.335   4.079  18.183  0.00  0.00    +0.000 N 
ATOM     20  C   UNL     1      48.784   5.157  18.977  0.00  0.00    +0.000 C 
ATOM     21  O   UNL     1      48.156   6.212  19.031  0.00  0.00    +0.000 OA
BRANCH  20  22
ATOM     22  C   UNL     1      50.047   5.041  19.733  0.00  0.00    +0.000 A 
ATOM     23  C   UNL     1      50.179   4.688  21.074  0.00  0.00    +0.000 A 
ATOM     24  N   UNL     1      51.509   4.596  21.385  0.00  0.00    +0.000 N 
ATOM     25  C   UNL     1      52.252   4.791  20.260  0.00  0.00    +0.000 A 
ATOM     26  N   UNL     1      53.588   4.677  20.220  0.00  0.00    +0.000 NA
ATOM     27  C   UNL     1      54.075   4.923  18.992  0.00  0.00    +0.000 A 
ATOM     28  N   UNL     1      53.395   5.297  17.902  0.00  0.00    +0.000 NA
ATOM     29  C   UNL     1      52.056   5.392  18.022  0.00  0.00    +0.000 A 
ATOM     30 CL   UNL     1      51.212   5.980  16.675  0.00  0.00    +0.000 Cl
ATOM     31  C   UNL     1      51.394   5.113  19.214  0.00  0.00    +0.000 A 
ATOM     32  H   UNL     1      51.903   4.368  22.286  0.00  0.00    +0.000 HD
ENDBRANCH  20  22
BRANCH  19  33
ATOM     33  C   UNL     1      49.065   2.807  18.112  0.00  0.00    +0.000 C 
BRANCH  33  34
ATOM     34  C   UNL     1      50.039   2.537  16.969  0.00  0.00    +0.000 C 
BRANCH  34  35
ATOM     35  O   UNL     1      49.408   1.660  16.034  0.00  0.00    +0.000 OA
ATOM     36  H   UNL     1      49.106   2.205  15.288  0.00  0.00    +0.000 HD
ENDBRANCH  34  35
ENDBRANCH  33  34
ENDBRANCH  19  33
ENDBRANCH   1  19
TORSDOF 10
ENDMDL
MODEL 7
REMARK VINA RESULT:    -6.599      2.152      3.340
REMARK INTER + INTRA:         -11.521
REMARK INTER:                  -9.859
REMARK INTRA:                  -1.662
REMARK UNBOUND:                -1.257
REMARK  Name = 
REMARK  11 active torsions:
REMARK  status: ('A' for Active; 'I' for Inactive)
REMARK    1  A    between atoms: C_1  and  C_2
REMARK    2  A    between atoms: C_7  and  C_8
REMARK    3  A    between atoms: C_8  and  N_9
REMARK    4  A    between atoms: N_9  and  C_10
REMARK    5  A    between atoms: C_10  and  C_11
REMARK    6  A    between atoms: C_14  and  C_15
REMARK    7  A    between atoms: C_15  and  N_16
REMARK    8  A    between atoms: N_16  and  C_17
REMARK    9  A    between atoms: C_17  and  C_18
REMARK   10  A    between atoms: C_18  and  O_19
REMARK   11  A    between atoms: C_20  and  C_22
REMARK                            x       y       z     vdW  Elec       q    Type
REMARK                         _______ _______ _______ _____ _____    ______ ____
ROOT
ATOM      1  C   UNL     1      48.507   9.113  13.578  0.00  0.00    +0.000 C 
ENDROOT
BRANCH   1   5
ATOM      2  C   UNL     1      45.195   6.972  11.811  0.00  0.00    +0.000 A 
ATOM      3  C   UNL     1      44.988   8.205  12.444  0.00  0.00    +0.000 A 
ATOM      4  C   UNL     1      46.071   8.951  12.919  0.00  0.00    +0.000 A 
ATOM      5  C   UNL     1      47.384   8.484  12.774  0.00  0.00    +0.000 A 
ATOM      6  C   UNL     1      47.600   7.363  11.962  0.00  0.00    +0.000 A 
ATOM      7  C   UNL     1      46.513   6.604  11.501  0.00  0.00    +0.000 A 
BRANCH   2   8
ATOM      8  C   UNL     1      44.056   5.977  11.657  0.00  0.00    +0.000 C 
BRANCH   8   9
ATOM      9  N   UNL     1      43.750   5.574  10.283  0.00  0.00    +0.000 NA
ATOM     10  H   UNL     1      42.769   5.767  10.086  0.00  0.00    +0.000 HD
BRANCH   9  11
ATOM     11  C   UNL     1      43.973   4.121  10.110  0.00  0.00    +0.000 C 
BRANCH  11  18
ATOM     12  C   UNL     1      44.449   1.266   9.153  0.00  0.00    +0.000 C 
ATOM     13  C   UNL     1      45.217   2.438   8.604  0.00  0.00    +0.000 A 
ATOM     14  C   UNL     1      46.204   2.177   7.632  0.00  0.00    +0.000 A 
ATOM     15  C   UNL     1      46.995   3.201   7.116  0.00  0.00    +0.000 A 
ATOM     16  C   UNL     1      46.828   4.497   7.582  0.00  0.00    +0.000 A 
ATOM     17  C   UNL     1      45.847   4.777   8.535  0.00  0.00    +0.000 A 
ATOM     18  C   UNL     1      45.004   3.769   9.045  0.00  0.00    +0.000 A 
ENDBRANCH  11  18
ENDBRANCH   9  11
ENDBRANCH   8   9
ENDBRANCH   2   8
ENDBRANCH   1   5
BRANCH   1  19
ATOM     19  N   UNL     1      48.689   8.458  14.893  0.00  0.00    +0.000 N 
ATOM     20  C   UNL     1      49.501   7.304  14.939  0.00  0.00    +0.000 C 
ATOM     21  O   UNL     1      50.100   6.908  13.942  0.00  0.00    +0.000 OA
BRANCH  20  22
ATOM     22  C   UNL     1      49.612   6.529  16.191  0.00  0.00    +0.000 A 
ATOM     23  C   UNL     1      50.464   6.801  17.259  0.00  0.00    +0.000 A 
ATOM     24  N   UNL     1      50.207   5.917  18.273  0.00  0.00    +0.000 N 
ATOM     25  C   UNL     1      49.148   5.131  17.933  0.00  0.00    +0.000 A 
ATOM     26  N   UNL     1      48.600   4.224  18.754  0.00  0.00    +0.000 NA
ATOM     27  C   UNL     1      47.571   3.581  18.174  0.00  0.00    +0.000 A 
ATOM     28  N   UNL     1      47.120   3.722  16.923  0.00  0.00    +0.000 NA
ATOM     29  C   UNL     1      47.725   4.651  16.158  0.00  0.00    +0.000 A 
ATOM     30 CL   UNL     1      47.230   4.744  14.539  0.00  0.00    +0.000 Cl
ATOM     31  C   UNL     1      48.767   5.441  16.632  0.00  0.00    +0.000 A 
ATOM     32  H   UNL     1      50.680   5.869  19.164  0.00  0.00    +0.000 HD
ENDBRANCH  20  22
BRANCH  19  33
ATOM     33  C   UNL     1      47.972   8.954  16.074  0.00  0.00    +0.000 C 
BRANCH  33  34
ATOM     34  C   UNL     1      48.530  10.120  16.884  0.00  0.00    +0.000 C 
BRANCH  34  35
ATOM     35  O   UNL     1      48.711   9.688  18.234  0.00  0.00    +0.000 OA
ATOM     36  H   UNL     1      49.098   8.797  18.201  0.00  0.00    +0.000 HD
ENDBRANCH  34  35
ENDBRANCH  33  34
ENDBRANCH  19  33
ENDBRANCH   1  19
TORSDOF 10
ENDMDL
MODEL 8
REMARK VINA RESULT:    -6.407      3.263      5.373
REMARK INTER + INTRA:         -11.223
REMARK INTER:                  -9.567
REMARK INTRA:                  -1.656
REMARK UNBOUND:                -1.257
REMARK  Name = 
REMARK  11 active torsions:
REMARK  status: ('A' for Active; 'I' for Inactive)
REMARK    1  A    between atoms: C_1  and  C_2
REMARK    2  A    between atoms: C_7  and  C_8
REMARK    3  A    between atoms: C_8  and  N_9
REMARK    4  A    between atoms: N_9  and  C_10
REMARK    5  A    between atoms: C_10  and  C_11
REMARK    6  A    between atoms: C_14  and  C_15
REMARK    7  A    between atoms: C_15  and  N_16
REMARK    8  A    between atoms: N_16  and  C_17
REMARK    9  A    between atoms: C_17  and  C_18
REMARK   10  A    between atoms: C_18  and  O_19
REMARK   11  A    between atoms: C_20  and  C_22
REMARK                            x       y       z     vdW  Elec       q    Type
REMARK                         _______ _______ _______ _____ _____    ______ ____
ROOT
ATOM      1  C   UNL     1      47.315   3.789  16.793  0.00  0.00    +0.000 C 
ENDROOT
BRANCH   1   5
ATOM      2  C   UNL     1      47.143   5.821  12.983  0.00  0.00    +0.000 A 
ATOM      3  C   UNL     1      47.840   6.386  14.059  0.00  0.00    +0.000 A 
ATOM      4  C   UNL     1      47.990   5.681  15.258  0.00  0.00    +0.000 A 
ATOM      5  C   UNL     1      47.448   4.399  15.410  0.00  0.00    +0.000 A 
ATOM      6  C   UNL     1      46.938   3.758  14.272  0.00  0.00    +0.000 A 
ATOM      7  C   UNL     1      46.770   4.471  13.076  0.00  0.00    +0.000 A 
BRANCH   2   8
ATOM      8  C   UNL     1      46.624   6.692  11.851  0.00  0.00    +0.000 C 
BRANCH   8   9
ATOM      9  N   UNL     1      45.305   7.291  12.066  0.00  0.00    +0.000 NA
ATOM     10  H   UNL     1      44.922   6.954  12.948  0.00  0.00    +0.000 HD
BRANCH   9  11
ATOM     11  C   UNL     1      44.376   6.894  10.983  0.00  0.00    +0.000 C 
BRANCH  11  18
ATOM     12  C   UNL     1      42.918   5.122  12.990  0.00  0.00    +0.000 C 
ATOM     13  C   UNL     1      43.551   4.572  11.740  0.00  0.00    +0.000 A 
ATOM     14  C   UNL     1      43.475   3.180  11.526  0.00  0.00    +0.000 A 
ATOM     15  C   UNL     1      44.084   2.587  10.422  0.00  0.00    +0.000 A 
ATOM     16  C   UNL     1      44.799   3.374   9.530  0.00  0.00    +0.000 A 
ATOM     17  C   UNL     1      44.874   4.755   9.718  0.00  0.00    +0.000 A 
ATOM     18  C   UNL     1      44.233   5.388  10.802  0.00  0.00    +0.000 A 
ENDBRANCH  11  18
ENDBRANCH   9  11
ENDBRANCH   8   9
ENDBRANCH   2   8
ENDBRANCH   1   5
BRANCH   1  19
ATOM     19  N   UNL     1      48.424   4.186  17.689  0.00  0.00    +0.000 N 
ATOM     20  C   UNL     1      48.129   5.090  18.732  0.00  0.00    +0.000 C 
ATOM     21  O   UNL     1      46.977   5.466  18.940  0.00  0.00    +0.000 OA
BRANCH  20  22
ATOM     22  C   UNL     1      49.216   5.628  19.573  0.00  0.00    +0.000 A 
ATOM     23  C   UNL     1      49.875   4.959  20.602  0.00  0.00    +0.000 A 
ATOM     24  N   UNL     1      50.883   5.752  21.079  0.00  0.00    +0.000 N 
ATOM     25  C   UNL     1      50.961   6.887  20.330  0.00  0.00    +0.000 A 
ATOM     26  N   UNL     1      51.905   7.825  20.495  0.00  0.00    +0.000 NA
ATOM     27  C   UNL     1      51.755   8.844  19.631  0.00  0.00    +0.000 A 
ATOM     28  N   UNL     1      50.783   9.013  18.727  0.00  0.00    +0.000 NA
ATOM     29  C   UNL     1      49.869   8.028  18.624  0.00  0.00    +0.000 A 
ATOM     30 CL   UNL     1      48.574   8.300  17.564  0.00  0.00    +0.000 Cl
ATOM     31  C   UNL     1      49.921   6.880  19.408  0.00  0.00    +0.000 A 
ATOM     32  H   UNL     1      51.519   5.531  21.833  0.00  0.00    +0.000 HD
ENDBRANCH  20  22
BRANCH  19  33
ATOM     33  C   UNL     1      49.791   3.717  17.428  0.00  0.00    +0.000 C 
BRANCH  33  34
ATOM     34  C   UNL     1      50.092   2.224  17.342  0.00  0.00    +0.000 C 
BRANCH  34  35
ATOM     35  O   UNL     1      49.875   1.795  15.997  0.00  0.00    +0.000 OA
ATOM     36  H   UNL     1      50.384   2.388  15.420  0.00  0.00    +0.000 HD
ENDBRANCH  34  35
ENDBRANCH  33  34
ENDBRANCH  19  33
ENDBRANCH   1  19
TORSDOF 10
ENDMDL
MODEL 9
REMARK VINA RESULT:    -6.405      3.191      9.054
REMARK INTER + INTRA:         -11.220
REMARK INTER:                  -9.959
REMARK INTRA:                  -1.261
REMARK UNBOUND:                -1.257
REMARK  Name = 
REMARK  11 active torsions:
REMARK  status: ('A' for Active; 'I' for Inactive)
REMARK    1  A    between atoms: C_1  and  C_2
REMARK    2  A    between atoms: C_7  and  C_8
REMARK    3  A    between atoms: C_8  and  N_9
REMARK    4  A    between atoms: N_9  and  C_10
REMARK    5  A    between atoms: C_10  and  C_11
REMARK    6  A    between atoms: C_14  and  C_15
REMARK    7  A    between atoms: C_15  and  N_16
REMARK    8  A    between atoms: N_16  and  C_17
REMARK    9  A    between atoms: C_17  and  C_18
REMARK   10  A    between atoms: C_18  and  O_19
REMARK   11  A    between atoms: C_20  and  C_22
REMARK                            x       y       z     vdW  Elec       q    Type
REMARK                         _______ _______ _______ _____ _____    ______ ____
ROOT
ATOM      1  C   UNL     1      45.453   7.876  12.715  0.00  0.00    +0.000 C 
ENDROOT
BRANCH   1   5
ATOM      2  C   UNL     1      49.584   8.893  13.472  0.00  0.00    +0.000 A 
ATOM      3  C   UNL     1      49.148   8.611  12.171  0.00  0.00    +0.000 A 
ATOM      4  C   UNL     1      47.793   8.390  11.907  0.00  0.00    +0.000 A 
ATOM      5  C   UNL     1      46.843   8.444  12.935  0.00  0.00    +0.000 A 
ATOM      6  C   UNL     1      47.249   8.930  14.185  0.00  0.00    +0.000 A 
ATOM      7  C   UNL     1      48.611   9.133  14.455  0.00  0.00    +0.000 A 
BRANCH   2   8
ATOM      8  C   UNL     1      51.047   8.737  13.854  0.00  0.00    +0.000 C 
BRANCH   8   9
ATOM      9  N   UNL     1      51.409   7.454  14.459  0.00  0.00    +0.000 NA
ATOM     10  H   UNL     1      50.741   6.743  14.167  0.00  0.00    +0.000 HD
BRANCH   9  11
ATOM     11  C   UNL     1      51.360   7.549  15.936  0.00  0.00    +0.000 C 
BRANCH  11  18
ATOM     12  C   UNL     1      52.906   5.285  17.269  0.00  0.00    +0.000 C 
ATOM     13  C   UNL     1      51.401   5.323  17.236  0.00  0.00    +0.000 A 
ATOM     14  C   UNL     1      50.705   4.248  17.826  0.00  0.00    +0.000 A 
ATOM     15  C   UNL     1      49.315   4.182  17.787  0.00  0.00    +0.000 A 
ATOM     16  C   UNL     1      48.600   5.177  17.135  0.00  0.00    +0.000 A 
ATOM     17  C   UNL     1      49.270   6.255  16.556  0.00  0.00    +0.000 A 
ATOM     18  C   UNL     1      50.674   6.371  16.615  0.00  0.00    +0.000 A 
ENDBRANCH  11  18
ENDBRANCH   9  11
ENDBRANCH   8   9
ENDBRANCH   2   8
ENDBRANCH   1   5
BRANCH   1  19
ATOM     19  N   UNL     1      45.489   6.473  12.245  0.00  0.00    +0.000 N 
ATOM     20  C   UNL     1      44.336   5.969  11.606  0.00  0.00    +0.000 C 
ATOM     21  O   UNL     1      43.370   6.693  11.375  0.00  0.00    +0.000 OA
BRANCH  20  22
ATOM     22  C   UNL     1      44.261   4.542  11.237  0.00  0.00    +0.000 A 
ATOM     23  C   UNL     1      43.507   3.560  11.876  0.00  0.00    +0.000 A 
ATOM     24  N   UNL     1      43.624   2.384  11.184  0.00  0.00    +0.000 N 
ATOM     25  C   UNL     1      44.362   2.591  10.058  0.00  0.00    +0.000 A 
ATOM     26  N   UNL     1      44.581   1.651   9.128  0.00  0.00    +0.000 NA
ATOM     27  C   UNL     1      45.342   2.112   8.120  0.00  0.00    +0.000 A 
ATOM     28  N   UNL     1      45.901   3.322   8.005  0.00  0.00    +0.000 NA
ATOM     29  C   UNL     1      45.637   4.211   8.982  0.00  0.00    +0.000 A 
ATOM     30 CL   UNL     1      46.442   5.700   8.894  0.00  0.00    +0.000 Cl
ATOM     31  C   UNL     1      44.818   3.905  10.064  0.00  0.00    +0.000 A 
ATOM     32  H   UNL     1      43.196   1.501  11.421  0.00  0.00    +0.000 HD
ENDBRANCH  20  22
BRANCH  19  33
ATOM     33  C   UNL     1      46.659   5.629  12.522  0.00  0.00    +0.000 C 
BRANCH  33  34
ATOM     34  C   UNL     1      46.914   5.100  13.930  0.00  0.00    +0.000 C 
BRANCH  34  35
ATOM     35  O   UNL     1      45.845   4.221  14.284  0.00  0.00    +0.000 OA
ATOM     36  H   UNL     1      45.462   4.554  15.113  0.00  0.00    +0.000 HD
ENDBRANCH  34  35
ENDBRANCH  33  34
ENDBRANCH  19  33
ENDBRANCH   1  19
TORSDOF 10
ENDMDL
