MODEL 1
REMARK VINA RESULT:    -8.883      0.000      0.000
REMARK INTER + INTRA:         -12.219
REMARK INTER:                 -11.479
REMARK INTRA:                  -0.740
REMARK UNBOUND:                -0.740
REMARK  Name = 
REMARK  5 active torsions:
REMARK  status: ('A' for Active; 'I' for Inactive)
REMARK    1  A    between atoms: C_2  and  C_4
REMARK    2  A    between atoms: C_8  and  C_9
REMARK    3  A    between atoms: C_9  and  C_10
REMARK    4  A    between atoms: C_10  and  C_11
REMARK    5  A    between atoms: C_15  and  C_16
REMARK                            x       y       z     vdW  Elec       q    Type
REMARK                         _______ _______ _______ _____ _____    ______ ____
ROOT
ATOM      1  C   UNL     1      45.173   7.156  11.153  0.00  0.00    +0.000 C 
ENDROOT
BRANCH   1   6
ATOM      2  C   UNL     1      47.180   5.580  13.970  0.00  0.00    +0.000 A 
ATOM      3  C   UNL     1      48.264   6.459  14.074  0.00  0.00    +0.000 A 
ATOM      4  C   UNL     1      48.335   7.576  13.242  0.00  0.00    +0.000 A 
ATOM      5  C   UNL     1      47.331   7.812  12.301  0.00  0.00    +0.000 A 
ATOM      6  C   UNL     1      46.243   6.937  12.189  0.00  0.00    +0.000 A 
ATOM      7  C   UNL     1      46.171   5.825  13.035  0.00  0.00    +0.000 A 
BRANCH   2   9
ATOM      8  N   UNL     1      47.404   3.210  14.288  0.00  0.00    +0.000 NA
ATOM      9  C   UNL     1      47.108   4.355  14.813  0.00  0.00    +0.000 C 
ATOM     10  N   UNL     1      46.726   4.436  16.119  0.00  0.00    +0.000 N 
ATOM     11  H   UNL     1      47.353   2.479  14.998  0.00  0.00    +0.000 HD
ATOM     12  H   UNL     1      46.385   3.573  16.525  0.00  0.00    +0.000 HD
ATOM     13  H   UNL     1      46.122   5.218  16.348  0.00  0.00    +0.000 HD
ENDBRANCH   2   9
ENDBRANCH   1   6
BRANCH   1  14
ATOM     14  C   UNL     1      43.902   6.338  11.447  0.00  0.00    +0.000 C 
BRANCH  14  15
ATOM     15  C   UNL     1      43.949   4.912  10.958  0.00  0.00    +0.000 A 
ATOM     16  C   UNL     1      43.219   3.918  11.596  0.00  0.00    +0.000 A 
ATOM     17  N   UNL     1      43.237   2.614  11.240  0.00  0.00    +0.000 NA
ATOM     18  C   UNL     1      44.036   2.278  10.198  0.00  0.00    +0.000 A 
ATOM     19  C   UNL     1      44.828   3.169   9.474  0.00  0.00    +0.000 A 
ATOM     20  C   UNL     1      44.764   4.505   9.896  0.00  0.00    +0.000 A 
BRANCH  19  21
ATOM     21  C   UNL     1      45.672   2.762   8.333  0.00  0.00    +0.000 A 
ATOM     22  C   UNL     1      45.991   3.658   7.297  0.00  0.00    +0.000 A 
ATOM     23  C   UNL     1      46.823   3.277   6.238  0.00  0.00    +0.000 A 
ATOM     24  C   UNL     1      47.365   1.999   6.197  0.00  0.00    +0.000 A 
ATOM     25  C   UNL     1      47.063   1.090   7.204  0.00  0.00    +0.000 A 
ATOM     26  C   UNL     1      46.221   1.466   8.254  0.00  0.00    +0.000 A 
ENDBRANCH  19  21
ENDBRANCH  14  15
ENDBRANCH   1  14
TORSDOF 5
ENDMDL
MODEL 2
REMARK VINA RESULT:    -8.222      1.820      2.368
REMARK INTER + INTRA:         -11.366
REMARK INTER:                 -10.533
REMARK INTRA:                  -0.833
REMARK UNBOUND:                -0.740
REMARK  Name = 
REMARK  5 active torsions:
REMARK  status: ('A' for Active; 'I' for Inactive)
REMARK    1  A    between atoms: C_2  and  C_4
REMARK    2  A    between atoms: C_8  and  C_9
REMARK    3  A    between atoms: C_9  and  C_10
REMARK    4  A    between atoms: C_10  and  C_11
REMARK    5  A    between atoms: C_15  and  C_16
REMARK                            x       y       z     vdW  Elec       q    Type
REMARK                         _______ _______ _______ _____ _____    ______ ____
ROOT
ATOM      1  C   UNL     1      44.891   6.602  12.845  0.00  0.00    +0.000 C 
ENDROOT
BRANCH   1   6
ATOM      2  C   UNL     1      48.407   8.031  12.630  0.00  0.00    +0.000 A 
ATOM      3  C   UNL     1      48.161   9.326  12.161  0.00  0.00    +0.000 A 
ATOM      4  C   UNL     1      46.850   9.744  11.933  0.00  0.00    +0.000 A 
ATOM      5  C   UNL     1      45.786   8.868  12.162  0.00  0.00    +0.000 A 
ATOM      6  C   UNL     1      46.024   7.570  12.631  0.00  0.00    +0.000 A 
ATOM      7  C   UNL     1      47.341   7.161  12.869  0.00  0.00    +0.000 A 
BRANCH   2   9
ATOM      8  N   UNL     1      50.154   7.119  14.002  0.00  0.00    +0.000 NA
ATOM      9  C   UNL     1      49.801   7.546  12.834  0.00  0.00    +0.000 C 
ATOM     10  N   UNL     1      50.696   7.562  11.806  0.00  0.00    +0.000 N 
ATOM     11  H   UNL     1      51.115   6.779  13.972  0.00  0.00    +0.000 HD
ATOM     12  H   UNL     1      51.670   7.541  12.080  0.00  0.00    +0.000 HD
ATOM     13  H   UNL     1      50.525   8.263  11.092  0.00  0.00    +0.000 HD
ENDBRANCH   2   9
ENDBRANCH   1   6
BRANCH   1  14
ATOM     14  C   UNL     1      44.054   6.395  11.570  0.00  0.00    +0.000 C 
BRANCH  14  15
ATOM     15  C   UNL     1      44.038   4.978  11.053  0.00  0.00    +0.000 A 
ATOM     16  C   UNL     1      43.259   4.007  11.666  0.00  0.00    +0.000 A 
ATOM     17  N   UNL     1      43.219   2.710  11.285  0.00  0.00    +0.000 NA
ATOM     18  C   UNL     1      44.010   2.359  10.241  0.00  0.00    +0.000 A 
ATOM     19  C   UNL     1      44.847   3.226   9.540  0.00  0.00    +0.000 A 
ATOM     20  C   UNL     1      44.842   4.555   9.988  0.00  0.00    +0.000 A 
BRANCH  19  21
ATOM     21  C   UNL     1      45.681   2.803   8.396  0.00  0.00    +0.000 A 
ATOM     22  C   UNL     1      46.034   3.699   7.372  0.00  0.00    +0.000 A 
ATOM     23  C   UNL     1      46.855   3.302   6.311  0.00  0.00    +0.000 A 
ATOM     24  C   UNL     1      47.352   2.006   6.256  0.00  0.00    +0.000 A 
ATOM     25  C   UNL     1      47.015   1.097   7.252  0.00  0.00    +0.000 A 
ATOM     26  C   UNL     1      46.183   1.490   8.304  0.00  0.00    +0.000 A 
ENDBRANCH  19  21
ENDBRANCH  14  15
ENDBRANCH   1  14
TORSDOF 5
ENDMDL
MODEL 3
REMARK VINA RESULT:    -8.113      2.701      3.466
REMARK INTER + INTRA:         -11.225
REMARK INTER:                 -10.363
REMARK INTRA:                  -0.862
REMARK UNBOUND:                -0.740
REMARK  Name = 
REMARK  5 active torsions:
REMARK  status: ('A' for Active; 'I' for Inactive)
REMARK    1  A    between atoms: C_2  and  C_4
REMARK    2  A    between atoms: C_8  and  C_9
REMARK    3  A    between atoms: C_9  and  C_10
REMARK    4  A    between atoms: C_10  and  C_11
REMARK    5  A    between atoms: C_15  and  C_16
REMARK                            x       y       z     vdW  Elec       q    Type
REMARK                         _______ _______ _______ _____ _____    ______ ____
ROOT
ATOM      1  C   UNL     1      45.014   6.686  12.728  0.00  0.00    +0.000 C 
ENDROOT
BRANCH   1   6
ATOM      2  C   UNL     1      47.319   9.636  12.066  0.00  0.00    +0.000 A 
ATOM      3  C   UNL     1      48.523   8.995  11.759  0.00  0.00    +0.000 A 
ATOM      4  C   UNL     1      48.584   7.601  11.746  0.00  0.00    +0.000 A 
ATOM      5  C   UNL     1      47.447   6.848  12.050  0.00  0.00    +0.000 A 
ATOM      6  C   UNL     1      46.238   7.483  12.360  0.00  0.00    +0.000 A 
ATOM      7  C   UNL     1      46.180   8.881  12.359  0.00  0.00    +0.000 A 
BRANCH   2   9
ATOM      8  N   UNL     1      46.081  11.693  12.147  0.00  0.00    +0.000 NA
ATOM      9  C   UNL     1      47.242  11.123  12.134  0.00  0.00    +0.000 C 
ATOM     10  N   UNL     1      48.379  11.872  12.171  0.00  0.00    +0.000 N 
ATOM     11  H   UNL     1      46.192  12.703  12.242  0.00  0.00    +0.000 HD
ATOM     12  H   UNL     1      48.271  12.838  11.886  0.00  0.00    +0.000 HD
ATOM     13  H   UNL     1      49.194  11.447  11.741  0.00  0.00    +0.000 HD
ENDBRANCH   2   9
ENDBRANCH   1   6
BRANCH   1  14
ATOM     14  C   UNL     1      44.084   6.459  11.522  0.00  0.00    +0.000 C 
BRANCH  14  15
ATOM     15  C   UNL     1      44.056   5.039  11.013  0.00  0.00    +0.000 A 
ATOM     16  C   UNL     1      43.249   4.084  11.616  0.00  0.00    +0.000 A 
ATOM     17  N   UNL     1      43.196   2.786  11.240  0.00  0.00    +0.000 NA
ATOM     18  C   UNL     1      44.000   2.416  10.214  0.00  0.00    +0.000 A 
ATOM     19  C   UNL     1      44.865   3.265   9.525  0.00  0.00    +0.000 A 
ATOM     20  C   UNL     1      44.872   4.597   9.966  0.00  0.00    +0.000 A 
BRANCH  19  21
ATOM     21  C   UNL     1      45.713   2.823   8.400  0.00  0.00    +0.000 A 
ATOM     22  C   UNL     1      46.216   1.512   8.328  0.00  0.00    +0.000 A 
ATOM     23  C   UNL     1      46.987   1.088   7.240  0.00  0.00    +0.000 A 
ATOM     24  C   UNL     1      47.263   1.960   6.194  0.00  0.00    +0.000 A 
ATOM     25  C   UNL     1      46.783   3.264   6.240  0.00  0.00    +0.000 A 
ATOM     26  C   UNL     1      46.025   3.691   7.334  0.00  0.00    +0.000 A 
ENDBRANCH  19  21
ENDBRANCH  14  15
ENDBRANCH   1  14
TORSDOF 5
ENDMDL
MODEL 4
REMARK VINA RESULT:    -8.033      2.533      6.762
REMARK INTER + INTRA:         -11.122
REMARK INTER:                 -10.128
REMARK INTRA:                  -0.994
REMARK UNBOUND:                -0.740
REMARK  Name = 
REMARK  5 active torsions:
REMARK  status: ('A' for Active; 'I' for Inactive)
REMARK    1  A    between atoms: C_2  and  C_4
REMARK    2  A    between atoms: C_8  and  C_9
REMARK    3  A    between atoms: C_9  and  C_10
REMARK    4  A    between atoms: C_10  and  C_11
REMARK    5  A    between atoms: C_15  and  C_16
REMARK                            x       y       z     vdW  Elec       q    Type
REMARK                         _______ _______ _______ _____ _____    ______ ____
ROOT
ATOM      1  C   UNL     1      44.065   4.627   9.195  0.00  0.00    +0.000 C 
ENDROOT
BRANCH   1   6
ATOM      2  C   UNL     1      46.555   2.536   7.225  0.00  0.00    +0.000 A 
ATOM      3  C   UNL     1      46.355   1.264   7.771  0.00  0.00    +0.000 A 
ATOM      4  C   UNL     1      45.396   1.079   8.767  0.00  0.00    +0.000 A 
ATOM      5  C   UNL     1      44.645   2.163   9.226  0.00  0.00    +0.000 A 
ATOM      6  C   UNL     1      44.840   3.441   8.684  0.00  0.00    +0.000 A 
ATOM      7  C   UNL     1      45.794   3.618   7.677  0.00  0.00    +0.000 A 
BRANCH   2   9
ATOM      8  N   UNL     1      47.264   3.232   5.038  0.00  0.00    +0.000 NA
ATOM      9  C   UNL     1      47.607   2.768   6.195  0.00  0.00    +0.000 C 
ATOM     10  N   UNL     1      48.912   2.484   6.466  0.00  0.00    +0.000 N 
ATOM     11  H   UNL     1      48.093   3.380   4.464  0.00  0.00    +0.000 HD
ATOM     12  H   UNL     1      49.502   2.348   5.654  0.00  0.00    +0.000 HD
ATOM     13  H   UNL     1      49.066   1.763   7.163  0.00  0.00    +0.000 HD
ENDBRANCH   2   9
ENDBRANCH   1   6
BRANCH   1  14
ATOM     14  C   UNL     1      43.727   4.499  10.691  0.00  0.00    +0.000 C 
BRANCH  14  15
ATOM     15  C   UNL     1      44.890   4.743  11.620  0.00  0.00    +0.000 A 
ATOM     16  C   UNL     1      45.121   3.908  12.704  0.00  0.00    +0.000 A 
ATOM     17  N   UNL     1      46.119   4.082  13.600  0.00  0.00    +0.000 NA
ATOM     18  C   UNL     1      46.925   5.155  13.411  0.00  0.00    +0.000 A 
ATOM     19  C   UNL     1      46.804   6.078  12.374  0.00  0.00    +0.000 A 
ATOM     20  C   UNL     1      45.748   5.841  11.482  0.00  0.00    +0.000 A 
BRANCH  19  21
ATOM     21  C   UNL     1      47.717   7.226  12.197  0.00  0.00    +0.000 A 
ATOM     22  C   UNL     1      47.234   8.544  12.112  0.00  0.00    +0.000 A 
ATOM     23  C   UNL     1      48.107   9.630  11.982  0.00  0.00    +0.000 A 
ATOM     24  C   UNL     1      49.480   9.426  11.947  0.00  0.00    +0.000 A 
ATOM     25  C   UNL     1      49.986   8.133  12.023  0.00  0.00    +0.000 A 
ATOM     26  C   UNL     1      49.113   7.048  12.138  0.00  0.00    +0.000 A 
ENDBRANCH  19  21
ENDBRANCH  14  15
ENDBRANCH   1  14
TORSDOF 5
ENDMDL
MODEL 5
REMARK VINA RESULT:    -7.812      3.121      4.574
REMARK INTER + INTRA:         -10.836
REMARK INTER:                 -10.032
REMARK INTRA:                  -0.804
REMARK UNBOUND:                -0.740
REMARK  Name = 
REMARK  5 active torsions:
REMARK  status: ('A' for Active; 'I' for Inactive)
REMARK    1  A    between atoms: C_2  and  C_4
REMARK    2  A    between atoms: C_8  and  C_9
REMARK    3  A    between atoms: C_9  and  C_10
REMARK    4  A    between atoms: C_10  and  C_11
REMARK    5  A    between atoms: C_15  and  C_16
REMARK                            x       y       z     vdW  Elec       q    Type
REMARK                         _______ _______ _______ _____ _____    ______ ____
ROOT
ATOM      1  C   UNL     1      45.421   7.309  11.407  0.00  0.00    +0.000 C 
ENDROOT
BRANCH   1   6
ATOM      2  C   UNL     1      42.897  10.124  11.014  0.00  0.00    +0.000 A 
ATOM      3  C   UNL     1      43.668  11.246  11.336  0.00  0.00    +0.000 A 
ATOM      4  C   UNL     1      45.015  11.092  11.662  0.00  0.00    +0.000 A 
ATOM      5  C   UNL     1      45.591   9.819  11.678  0.00  0.00    +0.000 A 
ATOM      6  C   UNL     1      44.825   8.690  11.357  0.00  0.00    +0.000 A 
ATOM      7  C   UNL     1      43.477   8.853  11.019  0.00  0.00    +0.000 A 
BRANCH   2   9
ATOM      8  N   UNL     1      40.600   9.494  11.323  0.00  0.00    +0.000 NA
ATOM      9  C   UNL     1      41.445  10.258  10.710  0.00  0.00    +0.000 C 
ATOM     10  N   UNL     1      41.012  11.166   9.791  0.00  0.00    +0.000 N 
ATOM     11  H   UNL     1      39.648   9.736  11.046  0.00  0.00    +0.000 HD
ATOM     12  H   UNL     1      40.096  10.984   9.400  0.00  0.00    +0.000 HD
ATOM     13  H   UNL     1      41.683  11.408   9.070  0.00  0.00    +0.000 HD
ENDBRANCH   2   9
ENDBRANCH   1   6
BRANCH   1  14
ATOM     14  C   UNL     1      44.534   6.321  12.188  0.00  0.00    +0.000 C 
BRANCH  14  15
ATOM     15  C   UNL     1      44.318   4.995  11.502  0.00  0.00    +0.000 A 
ATOM     16  C   UNL     1      43.385   4.089  11.985  0.00  0.00    +0.000 A 
ATOM     17  N   UNL     1      43.160   2.869  11.447  0.00  0.00    +0.000 NA
ATOM     18  C   UNL     1      43.915   2.528  10.375  0.00  0.00    +0.000 A 
ATOM     19  C   UNL     1      44.892   3.334   9.792  0.00  0.00    +0.000 A 
ATOM     20  C   UNL     1      45.076   4.585  10.399  0.00  0.00    +0.000 A 
BRANCH  19  21
ATOM     21  C   UNL     1      45.682   2.929   8.612  0.00  0.00    +0.000 A 
ATOM     22  C   UNL     1      46.103   1.599   8.428  0.00  0.00    +0.000 A 
ATOM     23  C   UNL     1      46.818   1.214   7.289  0.00  0.00    +0.000 A 
ATOM     24  C   UNL     1      47.119   2.145   6.302  0.00  0.00    +0.000 A 
ATOM     25  C   UNL     1      46.721   3.467   6.459  0.00  0.00    +0.000 A 
ATOM     26  C   UNL     1      46.019   3.854   7.604  0.00  0.00    +0.000 A 
ENDBRANCH  19  21
ENDBRANCH  14  15
ENDBRANCH   1  14
TORSDOF 5
ENDMDL
MODEL 6
REMARK VINA RESULT:    -7.475      2.726      7.547
REMARK INTER + INTRA:         -10.400
REMARK INTER:                  -9.592
REMARK INTRA:                  -0.808
REMARK UNBOUND:                -0.740
REMARK  Name = 
REMARK  5 active torsions:
REMARK  status: ('A' for Active; 'I' for Inactive)
REMARK    1  A    between atoms: C_2  and  C_4
REMARK    2  A    between atoms: C_8  and  C_9
REMARK    3  A    between atoms: C_9  and  C_10
REMARK    4  A    between atoms: C_10  and  C_11
REMARK    5  A    between atoms: C_15  and  C_16
REMARK                            x       y       z     vdW  Elec       q    Type
REMARK                         _______ _______ _______ _____ _____    ______ ____
ROOT
ATOM      1  C   UNL     1      44.778   5.332  10.145  0.00  0.00    +0.000 C 
ENDROOT
BRANCH   1   6
ATOM      2  C   UNL     1      46.343   2.994   7.589  0.00  0.00    +0.000 A 
ATOM      3  C   UNL     1      45.889   1.746   8.028  0.00  0.00    +0.000 A 
ATOM      4  C   UNL     1      45.056   1.663   9.144  0.00  0.00    +0.000 A 
ATOM      5  C   UNL     1      44.685   2.823   9.828  0.00  0.00    +0.000 A 
ATOM      6  C   UNL     1      45.137   4.077   9.395  0.00  0.00    +0.000 A 
ATOM      7  C   UNL     1      45.962   4.154   8.268  0.00  0.00    +0.000 A 
BRANCH   2   9
ATOM      8  N   UNL     1      46.925   3.816   5.408  0.00  0.00    +0.000 NA
ATOM      9  C   UNL     1      47.273   3.103   6.430  0.00  0.00    +0.000 C 
ATOM     10  N   UNL     1      48.470   2.452   6.440  0.00  0.00    +0.000 N 
ATOM     11  H   UNL     1      47.679   3.832   4.723  0.00  0.00    +0.000 HD
ATOM     12  H   UNL     1      48.886   2.296   5.530  0.00  0.00    +0.000 HD
ATOM     13  H   UNL     1      48.505   1.616   7.013  0.00  0.00    +0.000 HD
ENDBRANCH   2   9
ENDBRANCH   1   6
BRANCH   1  14
ATOM     14  C   UNL     1      44.671   5.093  11.662  0.00  0.00    +0.000 C 
BRANCH  14  15
ATOM     15  C   UNL     1      45.875   5.541  12.453  0.00  0.00    +0.000 A 
ATOM     16  C   UNL     1      46.719   6.529  11.965  0.00  0.00    +0.000 A 
ATOM     17  N   UNL     1      47.835   6.957  12.597  0.00  0.00    +0.000 NA
ATOM     18  C   UNL     1      48.133   6.359  13.776  0.00  0.00    +0.000 A 
ATOM     19  C   UNL     1      47.382   5.351  14.379  0.00  0.00    +0.000 A 
ATOM     20  C   UNL     1      46.239   4.953  13.670  0.00  0.00    +0.000 A 
BRANCH  19  21
ATOM     21  C   UNL     1      47.735   4.739  15.675  0.00  0.00    +0.000 A 
ATOM     22  C   UNL     1      47.584   3.359  15.904  0.00  0.00    +0.000 A 
ATOM     23  C   UNL     1      47.956   2.780  17.121  0.00  0.00    +0.000 A 
ATOM     24  C   UNL     1      48.498   3.562  18.134  0.00  0.00    +0.000 A 
ATOM     25  C   UNL     1      48.654   4.929  17.938  0.00  0.00    +0.000 A 
ATOM     26  C   UNL     1      48.269   5.510  16.727  0.00  0.00    +0.000 A 
ENDBRANCH  19  21
ENDBRANCH  14  15
ENDBRANCH   1  14
TORSDOF 5
ENDMDL
MODEL 7
REMARK VINA RESULT:    -7.398      2.929      3.845
REMARK INTER + INTRA:         -10.301
REMARK INTER:                  -9.483
REMARK INTRA:                  -0.818
REMARK UNBOUND:                -0.740
REMARK  Name = 
REMARK  5 active torsions:
REMARK  status: ('A' for Active; 'I' for Inactive)
REMARK    1  A    between atoms: C_2  and  C_4
REMARK    2  A    between atoms: C_8  and  C_9
REMARK    3  A    between atoms: C_9  and  C_10
REMARK    4  A    between atoms: C_10  and  C_11
REMARK    5  A    between atoms: C_15  and  C_16
REMARK                            x       y       z     vdW  Elec       q    Type
REMARK                         _______ _______ _______ _____ _____    ______ ____
ROOT
ATOM      1  C   UNL     1      47.279   6.940  12.398  0.00  0.00    +0.000 C 
ENDROOT
BRANCH   1   6
ATOM      2  C   UNL     1      50.515   8.632  11.345  0.00  0.00    +0.000 A 
ATOM      3  C   UNL     1      50.122   9.972  11.257  0.00  0.00    +0.000 A 
ATOM      4  C   UNL     1      48.808  10.331  11.560  0.00  0.00    +0.000 A 
ATOM      5  C   UNL     1      47.885   9.353  11.939  0.00  0.00    +0.000 A 
ATOM      6  C   UNL     1      48.271   8.009  12.028  0.00  0.00    +0.000 A 
ATOM      7  C   UNL     1      49.593   7.658  11.735  0.00  0.00    +0.000 A 
BRANCH   2   9
ATOM      8  N   UNL     1      52.835   9.109  10.947  0.00  0.00    +0.000 NA
ATOM      9  C   UNL     1      51.899   8.218  10.979  0.00  0.00    +0.000 C 
ATOM     10  N   UNL     1      52.173   6.919  10.672  0.00  0.00    +0.000 N 
ATOM     11  H   UNL     1      53.728   8.667  10.729  0.00  0.00    +0.000 HD
ATOM     12  H   UNL     1      53.015   6.770  10.129  0.00  0.00    +0.000 HD
ATOM     13  H   UNL     1      51.393   6.385  10.303  0.00  0.00    +0.000 HD
ENDBRANCH   2   9
ENDBRANCH   1   6
BRANCH   1  14
ATOM     14  C   UNL     1      45.835   7.336  12.037  0.00  0.00    +0.000 C 
BRANCH  14  15
ATOM     15  C   UNL     1      45.076   6.292  11.255  0.00  0.00    +0.000 A 
ATOM     16  C   UNL     1      43.710   6.123  11.437  0.00  0.00    +0.000 A 
ATOM     17  N   UNL     1      42.969   5.187  10.802  0.00  0.00    +0.000 NA
ATOM     18  C   UNL     1      43.626   4.367   9.947  0.00  0.00    +0.000 A 
ATOM     19  C   UNL     1      44.993   4.418   9.676  0.00  0.00    +0.000 A 
ATOM     20  C   UNL     1      45.703   5.409  10.369  0.00  0.00    +0.000 A 
BRANCH  19  21
ATOM     21  C   UNL     1      45.667   3.514   8.723  0.00  0.00    +0.000 A 
ATOM     22  C   UNL     1      45.652   2.118   8.896  0.00  0.00    +0.000 A 
ATOM     23  C   UNL     1      46.260   1.265   7.968  0.00  0.00    +0.000 A 
ATOM     24  C   UNL     1      46.885   1.784   6.841  0.00  0.00    +0.000 A 
ATOM     25  C   UNL     1      46.919   3.160   6.647  0.00  0.00    +0.000 A 
ATOM     26  C   UNL     1      46.325   4.013   7.581  0.00  0.00    +0.000 A 
ENDBRANCH  19  21
ENDBRANCH  14  15
ENDBRANCH   1  14
TORSDOF 5
ENDMDL
MODEL 8
REMARK VINA RESULT:    -7.120      1.884      2.949
REMARK INTER + INTRA:          -9.941
REMARK INTER:                  -9.114
REMARK INTRA:                  -0.827
REMARK UNBOUND:                -0.740
REMARK  Name = 
REMARK  5 active torsions:
REMARK  status: ('A' for Active; 'I' for Inactive)
REMARK    1  A    between atoms: C_2  and  C_4
REMARK    2  A    between atoms: C_8  and  C_9
REMARK    3  A    between atoms: C_9  and  C_10
REMARK    4  A    between atoms: C_10  and  C_11
REMARK    5  A    between atoms: C_15  and  C_16
REMARK                            x       y       z     vdW  Elec       q    Type
REMARK                         _______ _______ _______ _____ _____    ______ ____
ROOT
ATOM      1  C   UNL     1      47.421   6.470  12.618  0.00  0.00    +0.000 C 
ENDROOT
BRANCH   1   6
ATOM      2  C   UNL     1      48.703   6.104  16.178  0.00  0.00    +0.000 A 
ATOM      3  C   UNL     1      48.079   4.920  16.587  0.00  0.00    +0.000 A 
ATOM      4  C   UNL     1      47.256   4.228  15.699  0.00  0.00    +0.000 A 
ATOM      5  C   UNL     1      47.047   4.720  14.408  0.00  0.00    +0.000 A 
ATOM      6  C   UNL     1      47.667   5.906  13.992  0.00  0.00    +0.000 A 
ATOM      7  C   UNL     1      48.502   6.589  14.883  0.00  0.00    +0.000 A 
BRANCH   2   9
ATOM      8  N   UNL     1      49.595   8.174  17.008  0.00  0.00    +0.000 NA
ATOM      9  C   UNL     1      49.547   6.887  17.124  0.00  0.00    +0.000 C 
ATOM     10  N   UNL     1      50.268   6.254  18.093  0.00  0.00    +0.000 N 
ATOM     11  H   UNL     1      50.172   8.568  17.751  0.00  0.00    +0.000 HD
ATOM     12  H   UNL     1      51.047   6.782  18.467  0.00  0.00    +0.000 HD
ATOM     13  H   UNL     1      50.533   5.298  17.883  0.00  0.00    +0.000 HD
ENDBRANCH   2   9
ENDBRANCH   1   6
BRANCH   1  14
ATOM     14  C   UNL     1      45.956   6.900  12.421  0.00  0.00    +0.000 C 
BRANCH  14  15
ATOM     15  C   UNL     1      45.171   6.031  11.470  0.00  0.00    +0.000 A 
ATOM     16  C   UNL     1      43.784   5.998  11.517  0.00  0.00    +0.000 A 
ATOM     17  N   UNL     1      43.014   5.220  10.724  0.00  0.00    +0.000 NA
ATOM     18  C   UNL     1      43.662   4.420   9.842  0.00  0.00    +0.000 A 
ATOM     19  C   UNL     1      45.046   4.344   9.694  0.00  0.00    +0.000 A 
ATOM     20  C   UNL     1      45.785   5.176  10.548  0.00  0.00    +0.000 A 
BRANCH  19  21
ATOM     21  C   UNL     1      45.711   3.468   8.708  0.00  0.00    +0.000 A 
ATOM     22  C   UNL     1      45.744   2.072   8.867  0.00  0.00    +0.000 A 
ATOM     23  C   UNL     1      46.342   1.245   7.909  0.00  0.00    +0.000 A 
ATOM     24  C   UNL     1      46.910   1.794   6.766  0.00  0.00    +0.000 A 
ATOM     25  C   UNL     1      46.896   3.172   6.584  0.00  0.00    +0.000 A 
ATOM     26  C   UNL     1      46.311   3.998   7.548  0.00  0.00    +0.000 A 
ENDBRANCH  19  21
ENDBRANCH  14  15
ENDBRANCH   1  14
TORSDOF 5
ENDMDL
MODEL 9
REMARK VINA RESULT:    -7.029      2.475      7.499
REMARK INTER + INTRA:          -9.824
REMARK INTER:                  -8.834
REMARK INTRA:                  -0.990
REMARK UNBOUND:                -0.740
REMARK  Name = 
REMARK  5 active torsions:
REMARK  status: ('A' for Active; 'I' for Inactive)
REMARK    1  A    between atoms: C_2  and  C_4
REMARK    2  A    between atoms: C_8  and  C_9
REMARK    3  A    between atoms: C_9  and  C_10
REMARK    4  A    between atoms: C_10  and  C_11
REMARK    5  A    between atoms: C_15  and  C_16
REMARK                            x       y       z     vdW  Elec       q    Type
REMARK                         _______ _______ _______ _____ _____    ______ ____
ROOT
ATOM      1  C   UNL     1      45.585   7.039  11.945  0.00  0.00    +0.000 C 
ENDROOT
BRANCH   1   6
ATOM      2  C   UNL     1      44.311   3.737  10.559  0.00  0.00    +0.000 A 
ATOM      3  C   UNL     1      43.606   3.221  11.652  0.00  0.00    +0.000 A 
ATOM      4  C   UNL     1      43.527   3.955  12.836  0.00  0.00    +0.000 A 
ATOM      5  C   UNL     1      44.159   5.197  12.933  0.00  0.00    +0.000 A 
ATOM      6  C   UNL     1      44.867   5.720  11.843  0.00  0.00    +0.000 A 
ATOM      7  C   UNL     1      44.932   4.985  10.654  0.00  0.00    +0.000 A 
BRANCH   2   9
ATOM      8  N   UNL     1      44.658   1.676   9.376  0.00  0.00    +0.000 NA
ATOM      9  C   UNL     1      44.450   2.950   9.302  0.00  0.00    +0.000 C 
ATOM     10  N   UNL     1      44.370   3.566   8.089  0.00  0.00    +0.000 N 
ATOM     11  H   UNL     1      44.683   1.273   8.439  0.00  0.00    +0.000 HD
ATOM     12  H   UNL     1      44.791   3.061   7.318  0.00  0.00    +0.000 HD
ATOM     13  H   UNL     1      44.634   4.546   8.080  0.00  0.00    +0.000 HD
ENDBRANCH   2   9
ENDBRANCH   1   6
BRANCH   1  14
ATOM     14  C   UNL     1      47.110   6.884  11.799  0.00  0.00    +0.000 C 
BRANCH  14  15
ATOM     15  C   UNL     1      47.879   7.014  13.091  0.00  0.00    +0.000 A 
ATOM     16  C   UNL     1      48.763   8.066  13.288  0.00  0.00    +0.000 A 
ATOM     17  N   UNL     1      49.513   8.230  14.401  0.00  0.00    +0.000 NA
ATOM     18  C   UNL     1      49.384   7.288  15.367  0.00  0.00    +0.000 A 
ATOM     19  C   UNL     1      48.543   6.178  15.298  0.00  0.00    +0.000 A 
ATOM     20  C   UNL     1      47.795   6.066  14.117  0.00  0.00    +0.000 A 
BRANCH  19  21
ATOM     21  C   UNL     1      48.421   5.183  16.383  0.00  0.00    +0.000 A 
ATOM     22  C   UNL     1      47.425   4.190  16.363  0.00  0.00    +0.000 A 
ATOM     23  C   UNL     1      47.339   3.227  17.374  0.00  0.00    +0.000 A 
ATOM     24  C   UNL     1      48.251   3.227  18.422  0.00  0.00    +0.000 A 
ATOM     25  C   UNL     1      49.243   4.200  18.471  0.00  0.00    +0.000 A 
ATOM     26  C   UNL     1      49.320   5.170  17.468  0.00  0.00    +0.000 A 
ENDBRANCH  19  21
ENDBRANCH  14  15
ENDBRANCH   1  14
TORSDOF 5
ENDMDL
