MODEL 1
REMARK VINA RESULT:    -7.355      0.000      0.000
REMARK INTER + INTRA:         -12.189
REMARK INTER:                 -10.794
REMARK INTRA:                  -1.394
REMARK UNBOUND:                -1.394
REMARK  Name = 
REMARK  10 active torsions:
REMARK  status: ('A' for Active; 'I' for Inactive)
REMARK    1  A    between atoms: C_1  and  C_2
REMARK    2  A    between atoms: C_2  and  C_3
REMARK    3  A    between atoms: C_2  and  C_4
REMARK    4  A    between atoms: C_4  and  N_5
REMARK    5  A    between atoms: N_5  and  C_6
REMARK    6  A    between atoms: C_6  and  C_7
REMARK    7  A    between atoms: C_7  and  C_8
REMARK    8  A    between atoms: C_12  and  O_13
REMARK    9  A    between atoms: O_13  and  C_14
REMARK   10  A    between atoms: C_23  and  C_24
REMARK                            x       y       z     vdW  Elec       q    Type
REMARK                         _______ _______ _______ _____ _____    ______ ____
ROOT
ATOM      1  N   UNL     1      47.102   5.083  14.288  0.00  0.00    +0.000 N 
ATOM      2  C   UNL     1      47.645   4.979  15.598  0.00  0.00    +0.000 A 
ATOM      3  C   UNL     1      47.107   4.060  16.503  0.00  0.00    +0.000 A 
ATOM      4  C   UNL     1      47.660   3.901  17.773  0.00  0.00    +0.000 A 
ATOM      5  C   UNL     1      48.751   4.673  18.150  0.00  0.00    +0.000 A 
ATOM      6  C   UNL     1      49.219   5.581  17.215  0.00  0.00    +0.000 A 
ATOM      7  N   UNL     1      48.691   5.750  15.974  0.00  0.00    +0.000 NA
ENDROOT
BRANCH   5   8
ATOM      8  C   UNL     1      49.321   4.474  19.507  0.00  0.00    +0.000 C 
ATOM      9  N   UNL     1      48.560   3.854  20.460  0.00  0.00    +0.000 N 
ATOM     10  O   UNL     1      50.448   4.852  19.781  0.00  0.00    +0.000 OA
ATOM     11  H   UNL     1      47.624   3.506  20.343  0.00  0.00    +0.000 HD
ATOM     12  H   UNL     1      48.995   3.740  21.368  0.00  0.00    +0.000 HD
ENDBRANCH   5   8
BRANCH   1  13
ATOM     13  C   UNL     1      47.331   6.425  13.700  0.00  0.00    +0.000 C 
BRANCH  13  15
ATOM     14  C   UNL     1      46.022   8.549  12.978  0.00  0.00    +0.000 C 
ATOM     15  C   UNL     1      46.226   7.046  12.816  0.00  0.00    +0.000 C 
ATOM     16  C   UNL     1      46.557   6.790  11.332  0.00  0.00    +0.000 C 
ENDBRANCH  13  15
ENDBRANCH   1  13
BRANCH   1  17
ATOM     17  C   UNL     1      47.301   3.834  13.506  0.00  0.00    +0.000 C 
BRANCH  17  18
ATOM     18  C   UNL     1      45.929   3.173  13.274  0.00  0.00    +0.000 C 
BRANCH  18  19
ATOM     19  C   UNL     1      45.006   3.570  12.151  0.00  0.00    +0.000 A 
ATOM     20  C   UNL     1      43.929   4.400  12.516  0.00  0.00    +0.000 A 
ATOM     21  C   UNL     1      43.113   4.987  11.557  0.00  0.00    +0.000 A 
ATOM     22  C   UNL     1      43.351   4.743  10.209  0.00  0.00    +0.000 A 
ATOM     23  C   UNL     1      44.382   3.886   9.821  0.00  0.00    +0.000 A 
ATOM     24  C   UNL     1      45.205   3.294  10.795  0.00  0.00    +0.000 A 
BRANCH  23  25
ATOM     25  O   UNL     1      44.717   3.603   8.522  0.00  0.00    +0.000 OA
BRANCH  25  26
ATOM     26  C   UNL     1      46.030   3.104   8.258  0.00  0.00    +0.000 C 
ATOM     27  C   UNL     1      46.485   3.445   6.840  0.00  0.00    +0.000 C 
ATOM     28  C   UNL     1      47.271   2.247   6.329  0.00  0.00    +0.000 C 
ATOM     29  C   UNL     1      47.074   1.120   7.333  0.00  0.00    +0.000 C 
ATOM     30  C   UNL     1      45.982   1.578   8.285  0.00  0.00    +0.000 C 
ENDBRANCH  25  26
ENDBRANCH  23  25
ENDBRANCH  18  19
ENDBRANCH  17  18
ENDBRANCH   1  17
TORSDOF 8
ENDMDL
MODEL 2
REMARK VINA RESULT:    -6.945      1.959      2.595
REMARK INTER + INTRA:         -11.588
REMARK INTER:                 -10.168
REMARK INTRA:                  -1.420
REMARK UNBOUND:                -1.394
REMARK  Name = 
REMARK  10 active torsions:
REMARK  status: ('A' for Active; 'I' for Inactive)
REMARK    1  A    between atoms: C_1  and  C_2
REMARK    2  A    between atoms: C_2  and  C_3
REMARK    3  A    between atoms: C_2  and  C_4
REMARK    4  A    between atoms: C_4  and  N_5
REMARK    5  A    between atoms: N_5  and  C_6
REMARK    6  A    between atoms: C_6  and  C_7
REMARK    7  A    between atoms: C_7  and  C_8
REMARK    8  A    between atoms: C_12  and  O_13
REMARK    9  A    between atoms: O_13  and  C_14
REMARK   10  A    between atoms: C_23  and  C_24
REMARK                            x       y       z     vdW  Elec       q    Type
REMARK                         _______ _______ _______ _____ _____    ______ ____
ROOT
ATOM      1  N   UNL     1      47.678   7.379  13.504  0.00  0.00    +0.000 N 
ATOM      2  C   UNL     1      47.746   6.291  14.417  0.00  0.00    +0.000 A 
ATOM      3  C   UNL     1      46.860   5.218  14.289  0.00  0.00    +0.000 A 
ATOM      4  C   UNL     1      46.946   4.116  15.138  0.00  0.00    +0.000 A 
ATOM      5  C   UNL     1      47.915   4.087  16.133  0.00  0.00    +0.000 A 
ATOM      6  C   UNL     1      48.745   5.192  16.220  0.00  0.00    +0.000 A 
ATOM      7  N   UNL     1      48.674   6.276  15.402  0.00  0.00    +0.000 NA
ENDROOT
BRANCH   5   8
ATOM      8  C   UNL     1      47.985   2.895  17.015  0.00  0.00    +0.000 C 
ATOM      9  N   UNL     1      46.920   2.607  17.824  0.00  0.00    +0.000 N 
ATOM     10  O   UNL     1      48.969   2.175  17.029  0.00  0.00    +0.000 OA
ATOM     11  H   UNL     1      46.064   3.131  17.893  0.00  0.00    +0.000 HD
ATOM     12  H   UNL     1      47.015   1.783  18.405  0.00  0.00    +0.000 HD
ENDBRANCH   5   8
BRANCH   1  13
ATOM     13  C   UNL     1      48.206   8.632  14.095  0.00  0.00    +0.000 C 
BRANCH  13  15
ATOM     14  C   UNL     1      48.814  10.615  12.530  0.00  0.00    +0.000 C 
ATOM     15  C   UNL     1      49.301   9.410  13.330  0.00  0.00    +0.000 C 
ATOM     16  C   UNL     1      50.353   9.925  14.332  0.00  0.00    +0.000 C 
ENDBRANCH  13  15
ENDBRANCH   1  13
BRANCH   1  17
ATOM     17  C   UNL     1      48.013   6.959  12.117  0.00  0.00    +0.000 C 
BRANCH  17  18
ATOM     18  C   UNL     1      46.793   7.220  11.214  0.00  0.00    +0.000 C 
BRANCH  18  19
ATOM     19  C   UNL     1      45.761   6.167  10.903  0.00  0.00    +0.000 A 
ATOM     20  C   UNL     1      44.594   6.210  11.691  0.00  0.00    +0.000 A 
ATOM     21  C   UNL     1      43.491   5.420  11.390  0.00  0.00    +0.000 A 
ATOM     22  C   UNL     1      43.539   4.559  10.301  0.00  0.00    +0.000 A 
ATOM     23  C   UNL     1      44.700   4.460   9.533  0.00  0.00    +0.000 A 
ATOM     24  C   UNL     1      45.814   5.262   9.840  0.00  0.00    +0.000 A 
BRANCH  23  25
ATOM     25  O   UNL     1      44.840   3.665   8.425  0.00  0.00    +0.000 OA
BRANCH  25  26
ATOM     26  C   UNL     1      46.147   3.188   8.098  0.00  0.00    +0.000 C 
ATOM     27  C   UNL     1      46.487   3.442   6.630  0.00  0.00    +0.000 C 
ATOM     28  C   UNL     1      47.275   2.236   6.145  0.00  0.00    +0.000 C 
ATOM     29  C   UNL     1      47.191   1.176   7.234  0.00  0.00    +0.000 C 
ATOM     30  C   UNL     1      46.154   1.667   8.232  0.00  0.00    +0.000 C 
ENDBRANCH  25  26
ENDBRANCH  23  25
ENDBRANCH  18  19
ENDBRANCH  17  18
ENDBRANCH   1  17
TORSDOF 8
ENDMDL
MODEL 3
REMARK VINA RESULT:    -6.822      3.183      8.707
REMARK INTER + INTRA:         -11.407
REMARK INTER:                 -10.816
REMARK INTRA:                  -0.590
REMARK UNBOUND:                -1.394
REMARK  Name = 
REMARK  10 active torsions:
REMARK  status: ('A' for Active; 'I' for Inactive)
REMARK    1  A    between atoms: C_1  and  C_2
REMARK    2  A    between atoms: C_2  and  C_3
REMARK    3  A    between atoms: C_2  and  C_4
REMARK    4  A    between atoms: C_4  and  N_5
REMARK    5  A    between atoms: N_5  and  C_6
REMARK    6  A    between atoms: C_6  and  C_7
REMARK    7  A    between atoms: C_7  and  C_8
REMARK    8  A    between atoms: C_12  and  O_13
REMARK    9  A    between atoms: O_13  and  C_14
REMARK   10  A    between atoms: C_23  and  C_24
REMARK                            x       y       z     vdW  Elec       q    Type
REMARK                         _______ _______ _______ _____ _____    ______ ____
ROOT
ATOM      1  N   UNL     1      44.412   4.977  10.115  0.00  0.00    +0.000 N 
ATOM      2  C   UNL     1      45.092   4.062   9.265  0.00  0.00    +0.000 A 
ATOM      3  C   UNL     1      45.688   4.519   8.086  0.00  0.00    +0.000 A 
ATOM      4  C   UNL     1      46.408   3.652   7.267  0.00  0.00    +0.000 A 
ATOM      5  C   UNL     1      46.526   2.313   7.617  0.00  0.00    +0.000 A 
ATOM      6  C   UNL     1      45.891   1.921   8.783  0.00  0.00    +0.000 A 
ATOM      7  N   UNL     1      45.183   2.753   9.593  0.00  0.00    +0.000 NA
ENDROOT
BRANCH   5   8
ATOM      8  C   UNL     1      47.305   1.416   6.726  0.00  0.00    +0.000 C 
ATOM      9  N   UNL     1      48.345   1.938   6.007  0.00  0.00    +0.000 N 
ATOM     10  O   UNL     1      47.034   0.231   6.628  0.00  0.00    +0.000 OA
ATOM     11  H   UNL     1      48.652   2.897   6.011  0.00  0.00    +0.000 HD
ATOM     12  H   UNL     1      48.847   1.286   5.417  0.00  0.00    +0.000 HD
ENDBRANCH   5   8
BRANCH   1  13
ATOM     13  C   UNL     1      43.372   4.305  10.931  0.00  0.00    +0.000 C 
BRANCH  13  15
ATOM     14  C   UNL     1      42.931   5.119  13.358  0.00  0.00    +0.000 C 
ATOM     15  C   UNL     1      42.514   5.160  11.891  0.00  0.00    +0.000 C 
ATOM     16  C   UNL     1      42.569   6.634  11.444  0.00  0.00    +0.000 C 
ENDBRANCH  13  15
ENDBRANCH   1  13
BRANCH   1  17
ATOM     17  C   UNL     1      45.337   5.987  10.694  0.00  0.00    +0.000 C 
BRANCH  17  18
ATOM     18  C   UNL     1      46.051   5.364  11.909  0.00  0.00    +0.000 C 
BRANCH  18  19
ATOM     19  C   UNL     1      46.961   6.150  12.818  0.00  0.00    +0.000 A 
ATOM     20  C   UNL     1      46.924   7.548  12.652  0.00  0.00    +0.000 A 
ATOM     21  C   UNL     1      47.569   8.397  13.543  0.00  0.00    +0.000 A 
ATOM     22  C   UNL     1      48.277   7.862  14.612  0.00  0.00    +0.000 A 
ATOM     23  C   UNL     1      48.370   6.479  14.773  0.00  0.00    +0.000 A 
ATOM     24  C   UNL     1      47.716   5.623  13.869  0.00  0.00    +0.000 A 
BRANCH  23  25
ATOM     25  O   UNL     1      49.018   5.853  15.806  0.00  0.00    +0.000 OA
BRANCH  25  26
ATOM     26  C   UNL     1      48.226   5.196  16.799  0.00  0.00    +0.000 C 
ATOM     27  C   UNL     1      48.212   5.976  18.112  0.00  0.00    +0.000 C 
ATOM     28  C   UNL     1      48.241   4.950  19.235  0.00  0.00    +0.000 C 
ATOM     29  C   UNL     1      48.518   3.596  18.598  0.00  0.00    +0.000 C 
ATOM     30  C   UNL     1      48.896   3.870  17.152  0.00  0.00    +0.000 C 
ENDBRANCH  25  26
ENDBRANCH  23  25
ENDBRANCH  18  19
ENDBRANCH  17  18
ENDBRANCH   1  17
TORSDOF 8
ENDMDL
MODEL 4
REMARK VINA RESULT:    -6.607      4.093      4.859
REMARK INTER + INTRA:         -11.091
REMARK INTER:                  -9.910
REMARK INTRA:                  -1.181
REMARK UNBOUND:                -1.394
REMARK  Name = 
REMARK  10 active torsions:
REMARK  status: ('A' for Active; 'I' for Inactive)
REMARK    1  A    between atoms: C_1  and  C_2
REMARK    2  A    between atoms: C_2  and  C_3
REMARK    3  A    between atoms: C_2  and  C_4
REMARK    4  A    between atoms: C_4  and  N_5
REMARK    5  A    between atoms: N_5  and  C_6
REMARK    6  A    between atoms: C_6  and  C_7
REMARK    7  A    between atoms: C_7  and  C_8
REMARK    8  A    between atoms: C_12  and  O_13
REMARK    9  A    between atoms: O_13  and  C_14
REMARK   10  A    between atoms: C_23  and  C_24
REMARK                            x       y       z     vdW  Elec       q    Type
REMARK                         _______ _______ _______ _____ _____    ______ ____
ROOT
ATOM      1  N   UNL     1      45.808   8.648  12.138  0.00  0.00    +0.000 N 
ATOM      2  C   UNL     1      47.225   8.554  12.072  0.00  0.00    +0.000 A 
ATOM      3  C   UNL     1      47.863   7.371  12.456  0.00  0.00    +0.000 A 
ATOM      4  C   UNL     1      49.246   7.237  12.346  0.00  0.00    +0.000 A 
ATOM      5  C   UNL     1      50.004   8.296  11.861  0.00  0.00    +0.000 A 
ATOM      6  C   UNL     1      49.312   9.446  11.522  0.00  0.00    +0.000 A 
ATOM      7  N   UNL     1      47.964   9.594  11.625  0.00  0.00    +0.000 NA
ENDROOT
BRANCH   5   8
ATOM      8  C   UNL     1      51.473   8.118  11.750  0.00  0.00    +0.000 C 
ATOM      9  N   UNL     1      51.966   7.233  10.830  0.00  0.00    +0.000 N 
ATOM     10  O   UNL     1      52.241   8.745  12.460  0.00  0.00    +0.000 OA
ATOM     11  H   UNL     1      51.425   6.667  10.198  0.00  0.00    +0.000 HD
ATOM     12  H   UNL     1      52.974   7.151  10.791  0.00  0.00    +0.000 HD
ENDBRANCH   5   8
BRANCH   1  13
ATOM     13  C   UNL     1      45.353  10.050  12.296  0.00  0.00    +0.000 C 
BRANCH  13  15
ATOM     14  C   UNL     1      43.043  10.838  11.406  0.00  0.00    +0.000 C 
ATOM     15  C   UNL     1      44.542  10.701  11.153  0.00  0.00    +0.000 C 
ATOM     16  C   UNL     1      45.088  12.116  10.884  0.00  0.00    +0.000 C 
ENDBRANCH  13  15
ENDBRANCH   1  13
BRANCH   1  17
ATOM     17  C   UNL     1      45.147   7.705  11.197  0.00  0.00    +0.000 C 
BRANCH  17  18
ATOM     18  C   UNL     1      44.388   6.642  12.014  0.00  0.00    +0.000 C 
BRANCH  18  19
ATOM     19  C   UNL     1      44.316   5.192  11.609  0.00  0.00    +0.000 A 
ATOM     20  C   UNL     1      43.799   4.315  12.582  0.00  0.00    +0.000 A 
ATOM     21  C   UNL     1      43.506   2.992  12.278  0.00  0.00    +0.000 A 
ATOM     22  C   UNL     1      43.740   2.514  10.994  0.00  0.00    +0.000 A 
ATOM     23  C   UNL     1      44.297   3.348  10.023  0.00  0.00    +0.000 A 
ATOM     24  C   UNL     1      44.591   4.687  10.335  0.00  0.00    +0.000 A 
BRANCH  23  25
ATOM     25  O   UNL     1      44.539   2.983   8.724  0.00  0.00    +0.000 OA
BRANCH  25  26
ATOM     26  C   UNL     1      45.899   2.888   8.293  0.00  0.00    +0.000 C 
ATOM     27  C   UNL     1      46.086   3.465   6.891  0.00  0.00    +0.000 C 
ATOM     28  C   UNL     1      47.096   2.578   6.180  0.00  0.00    +0.000 C 
ATOM     29  C   UNL     1      47.318   1.356   7.059  0.00  0.00    +0.000 C 
ATOM     30  C   UNL     1      46.258   1.411   8.148  0.00  0.00    +0.000 C 
ENDBRANCH  25  26
ENDBRANCH  23  25
ENDBRANCH  18  19
ENDBRANCH  17  18
ENDBRANCH   1  17
TORSDOF 8
ENDMDL
MODEL 5
REMARK VINA RESULT:    -6.593      2.270      3.450
REMARK INTER + INTRA:         -11.071
REMARK INTER:                  -9.368
REMARK INTRA:                  -1.703
REMARK UNBOUND:                -1.394
REMARK  Name = 
REMARK  10 active torsions:
REMARK  status: ('A' for Active; 'I' for Inactive)
REMARK    1  A    between atoms: C_1  and  C_2
REMARK    2  A    between atoms: C_2  and  C_3
REMARK    3  A    between atoms: C_2  and  C_4
REMARK    4  A    between atoms: C_4  and  N_5
REMARK    5  A    between atoms: N_5  and  C_6
REMARK    6  A    between atoms: C_6  and  C_7
REMARK    7  A    between atoms: C_7  and  C_8
REMARK    8  A    between atoms: C_12  and  O_13
REMARK    9  A    between atoms: O_13  and  C_14
REMARK   10  A    between atoms: C_23  and  C_24
REMARK                            x       y       z     vdW  Elec       q    Type
REMARK                         _______ _______ _______ _____ _____    ______ ____
ROOT
ATOM      1  N   UNL     1      49.262   7.512  14.204  0.00  0.00    +0.000 N 
ATOM      2  C   UNL     1      48.846   6.507  15.119  0.00  0.00    +0.000 A 
ATOM      3  C   UNL     1      47.669   5.792  14.879  0.00  0.00    +0.000 A 
ATOM      4  C   UNL     1      47.271   4.764  15.733  0.00  0.00    +0.000 A 
ATOM      5  C   UNL     1      48.046   4.452  16.843  0.00  0.00    +0.000 A 
ATOM      6  C   UNL     1      49.185   5.215  17.035  0.00  0.00    +0.000 A 
ATOM      7  N   UNL     1      49.587   6.222  16.214  0.00  0.00    +0.000 NA
ENDROOT
BRANCH   5   8
ATOM      8  C   UNL     1      47.598   3.347  17.728  0.00  0.00    +0.000 C 
ATOM      9  N   UNL     1      48.345   3.039  18.832  0.00  0.00    +0.000 N 
ATOM     10  O   UNL     1      46.583   2.716  17.487  0.00  0.00    +0.000 OA
ATOM     11  H   UNL     1      49.195   3.492  19.123  0.00  0.00    +0.000 HD
ATOM     12  H   UNL     1      47.996   2.280  19.405  0.00  0.00    +0.000 HD
ENDBRANCH   5   8
BRANCH   1  13
ATOM     13  C   UNL     1      50.111   8.537  14.857  0.00  0.00    +0.000 C 
BRANCH  13  15
ATOM     14  C   UNL     1      48.967  10.715  14.020  0.00  0.00    +0.000 C 
ATOM     15  C   UNL     1      49.485   9.907  15.206  0.00  0.00    +0.000 C 
ATOM     16  C   UNL     1      48.295   9.692  16.163  0.00  0.00    +0.000 C 
ENDBRANCH  13  15
ENDBRANCH   1  13
BRANCH   1  17
ATOM     17  C   UNL     1      49.598   6.942  12.872  0.00  0.00    +0.000 C 
BRANCH  17  18
ATOM     18  C   UNL     1      48.700   7.607  11.811  0.00  0.00    +0.000 C 
BRANCH  18  19
ATOM     19  C   UNL     1      47.198   7.479  11.809  0.00  0.00    +0.000 A 
ATOM     20  C   UNL     1      46.489   8.658  12.114  0.00  0.00    +0.000 A 
ATOM     21  C   UNL     1      45.109   8.727  11.969  0.00  0.00    +0.000 A 
ATOM     22  C   UNL     1      44.408   7.612  11.527  0.00  0.00    +0.000 A 
ATOM     23  C   UNL     1      45.080   6.417  11.264  0.00  0.00    +0.000 A 
ATOM     24  C   UNL     1      46.476   6.351  11.412  0.00  0.00    +0.000 A 
BRANCH  23  25
ATOM     25  O   UNL     1      44.486   5.272  10.798  0.00  0.00    +0.000 OA
BRANCH  25  26
ATOM     26  C   UNL     1      45.314   4.293  10.167  0.00  0.00    +0.000 C 
ATOM     27  C   UNL     1      45.428   4.539   8.663  0.00  0.00    +0.000 C 
ATOM     28  C   UNL     1      45.434   3.175   7.992  0.00  0.00    +0.000 C 
ATOM     29  C   UNL     1      45.080   2.148   9.059  0.00  0.00    +0.000 C 
ATOM     30  C   UNL     1      44.627   2.934  10.278  0.00  0.00    +0.000 C 
ENDBRANCH  25  26
ENDBRANCH  23  25
ENDBRANCH  18  19
ENDBRANCH  17  18
ENDBRANCH   1  17
TORSDOF 8
ENDMDL
MODEL 6
REMARK VINA RESULT:    -6.378      3.165      7.921
REMARK INTER + INTRA:         -10.756
REMARK INTER:                  -9.258
REMARK INTRA:                  -1.498
REMARK UNBOUND:                -1.394
REMARK  Name = 
REMARK  10 active torsions:
REMARK  status: ('A' for Active; 'I' for Inactive)
REMARK    1  A    between atoms: C_1  and  C_2
REMARK    2  A    between atoms: C_2  and  C_3
REMARK    3  A    between atoms: C_2  and  C_4
REMARK    4  A    between atoms: C_4  and  N_5
REMARK    5  A    between atoms: N_5  and  C_6
REMARK    6  A    between atoms: C_6  and  C_7
REMARK    7  A    between atoms: C_7  and  C_8
REMARK    8  A    between atoms: C_12  and  O_13
REMARK    9  A    between atoms: O_13  and  C_14
REMARK   10  A    between atoms: C_23  and  C_24
REMARK                            x       y       z     vdW  Elec       q    Type
REMARK                         _______ _______ _______ _____ _____    ______ ____
ROOT
ATOM      1  N   UNL     1      47.898   7.563  12.705  0.00  0.00    +0.000 N 
ATOM      2  C   UNL     1      46.928   6.553  12.455  0.00  0.00    +0.000 A 
ATOM      3  C   UNL     1      46.446   5.774  13.510  0.00  0.00    +0.000 A 
ATOM      4  C   UNL     1      45.455   4.818  13.297  0.00  0.00    +0.000 A 
ATOM      5  C   UNL     1      44.947   4.626  12.019  0.00  0.00    +0.000 A 
ATOM      6  C   UNL     1      45.485   5.414  11.015  0.00  0.00    +0.000 A 
ATOM      7  N   UNL     1      46.453   6.349  11.205  0.00  0.00    +0.000 NA
ENDROOT
BRANCH   5   8
ATOM      8  C   UNL     1      43.886   3.605  11.827  0.00  0.00    +0.000 C 
ATOM      9  N   UNL     1      44.005   2.399  12.462  0.00  0.00    +0.000 N 
ATOM     10  O   UNL     1      42.918   3.824  11.118  0.00  0.00    +0.000 OA
ATOM     11  H   UNL     1      44.758   2.114  13.066  0.00  0.00    +0.000 HD
ATOM     12  H   UNL     1      43.255   1.738  12.302  0.00  0.00    +0.000 HD
ENDBRANCH   5   8
BRANCH   1  13
ATOM     13  C   UNL     1      48.717   7.853  11.504  0.00  0.00    +0.000 C 
BRANCH  13  15
ATOM     14  C   UNL     1      51.203   7.528  10.820  0.00  0.00    +0.000 C 
ATOM     15  C   UNL     1      50.194   8.267  11.695  0.00  0.00    +0.000 C 
ATOM     16  C   UNL     1      50.344   9.770  11.389  0.00  0.00    +0.000 C 
ENDBRANCH  13  15
ENDBRANCH   1  13
BRANCH   1  17
ATOM     17  C   UNL     1      47.359   8.644  13.572  0.00  0.00    +0.000 C 
BRANCH  17  18
ATOM     18  C   UNL     1      48.468   9.097  14.541  0.00  0.00    +0.000 C 
BRANCH  18  19
ATOM     19  C   UNL     1      48.490   8.715  15.999  0.00  0.00    +0.000 A 
ATOM     20  C   UNL     1      48.005   9.691  16.890  0.00  0.00    +0.000 A 
ATOM     21  C   UNL     1      47.798   9.404  18.233  0.00  0.00    +0.000 A 
ATOM     22  C   UNL     1      48.087   8.133  18.716  0.00  0.00    +0.000 A 
ATOM     23  C   UNL     1      48.615   7.160  17.865  0.00  0.00    +0.000 A 
ATOM     24  C   UNL     1      48.822   7.456  16.506  0.00  0.00    +0.000 A 
BRANCH  23  25
ATOM     25  O   UNL     1      48.906   5.872  18.235  0.00  0.00    +0.000 OA
BRANCH  25  26
ATOM     26  C   UNL     1      48.834   4.852  17.236  0.00  0.00    +0.000 C 
ATOM     27  C   UNL     1      47.500   4.109  17.287  0.00  0.00    +0.000 C 
ATOM     28  C   UNL     1      47.798   2.647  16.991  0.00  0.00    +0.000 C 
ATOM     29  C   UNL     1      49.311   2.485  17.010  0.00  0.00    +0.000 C 
ATOM     30  C   UNL     1      49.876   3.784  17.559  0.00  0.00    +0.000 C 
ENDBRANCH  25  26
ENDBRANCH  23  25
ENDBRANCH  18  19
ENDBRANCH  17  18
ENDBRANCH   1  17
TORSDOF 8
ENDMDL
MODEL 7
REMARK VINA RESULT:    -6.246      3.484      7.954
REMARK INTER + INTRA:         -10.562
REMARK INTER:                  -9.256
REMARK INTRA:                  -1.306
REMARK UNBOUND:                -1.394
REMARK  Name = 
REMARK  10 active torsions:
REMARK  status: ('A' for Active; 'I' for Inactive)
REMARK    1  A    between atoms: C_1  and  C_2
REMARK    2  A    between atoms: C_2  and  C_3
REMARK    3  A    between atoms: C_2  and  C_4
REMARK    4  A    between atoms: C_4  and  N_5
REMARK    5  A    between atoms: N_5  and  C_6
REMARK    6  A    between atoms: C_6  and  C_7
REMARK    7  A    between atoms: C_7  and  C_8
REMARK    8  A    between atoms: C_12  and  O_13
REMARK    9  A    between atoms: O_13  and  C_14
REMARK   10  A    between atoms: C_23  and  C_24
REMARK                            x       y       z     vdW  Elec       q    Type
REMARK                         _______ _______ _______ _____ _____    ______ ____
ROOT
ATOM      1  N   UNL     1      45.008   8.672  11.561  0.00  0.00    +0.000 N 
ATOM      2  C   UNL     1      44.701   7.287  11.473  0.00  0.00    +0.000 A 
ATOM      3  C   UNL     1      45.717   6.338  11.617  0.00  0.00    +0.000 A 
ATOM      4  C   UNL     1      45.431   4.975  11.591  0.00  0.00    +0.000 A 
ATOM      5  C   UNL     1      44.121   4.550  11.406  0.00  0.00    +0.000 A 
ATOM      6  C   UNL     1      43.167   5.541  11.245  0.00  0.00    +0.000 A 
ATOM      7  N   UNL     1      43.430   6.875  11.266  0.00  0.00    +0.000 NA
ENDROOT
BRANCH   5   8
ATOM      8  C   UNL     1      43.848   3.091  11.390  0.00  0.00    +0.000 C 
ATOM      9  N   UNL     1      43.771   2.418  12.579  0.00  0.00    +0.000 N 
ATOM     10  O   UNL     1      43.694   2.488  10.341  0.00  0.00    +0.000 OA
ATOM     11  H   UNL     1      43.883   2.814  13.497  0.00  0.00    +0.000 HD
ATOM     12  H   UNL     1      43.580   1.426  12.514  0.00  0.00    +0.000 HD
ENDBRANCH   5   8
BRANCH   1  13
ATOM     13  C   UNL     1      44.031   9.504  10.817  0.00  0.00    +0.000 C 
BRANCH  13  15
ATOM     14  C   UNL     1      44.012  12.077  11.176  0.00  0.00    +0.000 C 
ATOM     15  C   UNL     1      43.401  10.723  11.527  0.00  0.00    +0.000 C 
ATOM     16  C   UNL     1      41.902  10.797  11.176  0.00  0.00    +0.000 C 
ENDBRANCH  13  15
ENDBRANCH   1  13
BRANCH   1  17
ATOM     17  C   UNL     1      45.491   9.047  12.917  0.00  0.00    +0.000 C 
BRANCH  17  18
ATOM     18  C   UNL     1      47.012   9.280  12.852  0.00  0.00    +0.000 C 
BRANCH  18  19
ATOM     19  C   UNL     1      47.974   8.713  13.864  0.00  0.00    +0.000 A 
ATOM     20  C   UNL     1      48.656   9.662  14.651  0.00  0.00    +0.000 A 
ATOM     21  C   UNL     1      49.427   9.276  15.739  0.00  0.00    +0.000 A 
ATOM     22  C   UNL     1      49.543   7.928  16.056  0.00  0.00    +0.000 A 
ATOM     23  C   UNL     1      48.917   6.963  15.265  0.00  0.00    +0.000 A 
ATOM     24  C   UNL     1      48.137   7.358  14.164  0.00  0.00    +0.000 A 
BRANCH  23  25
ATOM     25  O   UNL     1      48.946   5.614  15.508  0.00  0.00    +0.000 OA
BRANCH  25  26
ATOM     26  C   UNL     1      48.236   5.119  16.646  0.00  0.00    +0.000 C 
ATOM     27  C   UNL     1      49.188   4.562  17.703  0.00  0.00    +0.000 C 
ATOM     28  C   UNL     1      48.515   3.337  18.301  0.00  0.00    +0.000 C 
ATOM     29  C   UNL     1      47.297   3.029  17.442  0.00  0.00    +0.000 C 
ATOM     30  C   UNL     1      47.405   3.914  16.211  0.00  0.00    +0.000 C 
ENDBRANCH  25  26
ENDBRANCH  23  25
ENDBRANCH  18  19
ENDBRANCH  17  18
ENDBRANCH   1  17
TORSDOF 8
ENDMDL
MODEL 8
REMARK VINA RESULT:    -6.199      3.725      7.297
REMARK INTER + INTRA:         -10.492
REMARK INTER:                  -8.511
REMARK INTRA:                  -1.982
REMARK UNBOUND:                -1.394
REMARK  Name = 
REMARK  10 active torsions:
REMARK  status: ('A' for Active; 'I' for Inactive)
REMARK    1  A    between atoms: C_1  and  C_2
REMARK    2  A    between atoms: C_2  and  C_3
REMARK    3  A    between atoms: C_2  and  C_4
REMARK    4  A    between atoms: C_4  and  N_5
REMARK    5  A    between atoms: N_5  and  C_6
REMARK    6  A    between atoms: C_6  and  C_7
REMARK    7  A    between atoms: C_7  and  C_8
REMARK    8  A    between atoms: C_12  and  O_13
REMARK    9  A    between atoms: O_13  and  C_14
REMARK   10  A    between atoms: C_23  and  C_24
REMARK                            x       y       z     vdW  Elec       q    Type
REMARK                         _______ _______ _______ _____ _____    ______ ____
ROOT
ATOM      1  N   UNL     1      48.152   9.575  12.709  0.00  0.00    +0.000 N 
ATOM      2  C   UNL     1      46.848   9.664  12.148  0.00  0.00    +0.000 A 
ATOM      3  C   UNL     1      46.085   8.507  11.972  0.00  0.00    +0.000 A 
ATOM      4  C   UNL     1      44.784   8.577  11.476  0.00  0.00    +0.000 A 
ATOM      5  C   UNL     1      44.241   9.811  11.142  0.00  0.00    +0.000 A 
ATOM      6  C   UNL     1      45.058  10.915  11.318  0.00  0.00    +0.000 A 
ATOM      7  N   UNL     1      46.330  10.864  11.798  0.00  0.00    +0.000 NA
ENDROOT
BRANCH   5   8
ATOM      8  C   UNL     1      42.850   9.852  10.625  0.00  0.00    +0.000 C 
ATOM      9  N   UNL     1      41.967   8.885  11.021  0.00  0.00    +0.000 N 
ATOM     10  O   UNL     1      42.486  10.728   9.858  0.00  0.00    +0.000 OA
ATOM     11  H   UNL     1      42.160   8.120  11.645  0.00  0.00    +0.000 HD
ATOM     12  H   UNL     1      41.030   8.959  10.643  0.00  0.00    +0.000 HD
ENDBRANCH   5   8
BRANCH   1  13
ATOM     13  C   UNL     1      49.016  10.702  12.282  0.00  0.00    +0.000 C 
BRANCH  13  15
ATOM     14  C   UNL     1      50.041  11.747  10.136  0.00  0.00    +0.000 C 
ATOM     15  C   UNL     1      49.910  10.521  11.035  0.00  0.00    +0.000 C 
ATOM     16  C   UNL     1      51.333  10.132  11.481  0.00  0.00    +0.000 C 
ENDBRANCH  13  15
ENDBRANCH   1  13
BRANCH   1  17
ATOM     17  C   UNL     1      48.117   9.097  14.116  0.00  0.00    +0.000 C 
BRANCH  17  18
ATOM     18  C   UNL     1      48.921   7.786  14.212  0.00  0.00    +0.000 C 
BRANCH  18  19
ATOM     19  C   UNL     1      48.298   6.468  14.596  0.00  0.00    +0.000 A 
ATOM     20  C   UNL     1      48.653   5.977  15.867  0.00  0.00    +0.000 A 
ATOM     21  C   UNL     1      48.014   4.874  16.419  0.00  0.00    +0.000 A 
ATOM     22  C   UNL     1      47.013   4.230  15.701  0.00  0.00    +0.000 A 
ATOM     23  C   UNL     1      46.675   4.665  14.419  0.00  0.00    +0.000 A 
ATOM     24  C   UNL     1      47.324   5.783  13.865  0.00  0.00    +0.000 A 
BRANCH  23  25
ATOM     25  O   UNL     1      45.687   4.118  13.643  0.00  0.00    +0.000 OA
BRANCH  25  26
ATOM     26  C   UNL     1      45.044   4.958  12.680  0.00  0.00    +0.000 C 
ATOM     27  C   UNL     1      43.580   5.206  13.041  0.00  0.00    +0.000 C 
ATOM     28  C   UNL     1      42.800   5.214  11.736  0.00  0.00    +0.000 C 
ATOM     29  C   UNL     1      43.745   4.734  10.644  0.00  0.00    +0.000 C 
ATOM     30  C   UNL     1      44.986   4.211  11.349  0.00  0.00    +0.000 C 
ENDBRANCH  25  26
ENDBRANCH  23  25
ENDBRANCH  18  19
ENDBRANCH  17  18
ENDBRANCH   1  17
TORSDOF 8
ENDMDL
MODEL 9
REMARK VINA RESULT:    -6.161      2.439      3.749
REMARK INTER + INTRA:         -10.438
REMARK INTER:                 -10.032
REMARK INTRA:                  -0.406
REMARK UNBOUND:                -1.394
REMARK  Name = 
REMARK  10 active torsions:
REMARK  status: ('A' for Active; 'I' for Inactive)
REMARK    1  A    between atoms: C_1  and  C_2
REMARK    2  A    between atoms: C_2  and  C_3
REMARK    3  A    between atoms: C_2  and  C_4
REMARK    4  A    between atoms: C_4  and  N_5
REMARK    5  A    between atoms: N_5  and  C_6
REMARK    6  A    between atoms: C_6  and  C_7
REMARK    7  A    between atoms: C_7  and  C_8
REMARK    8  A    between atoms: C_12  and  O_13
REMARK    9  A    between atoms: O_13  and  C_14
REMARK   10  A    between atoms: C_23  and  C_24
REMARK                            x       y       z     vdW  Elec       q    Type
REMARK                         _______ _______ _______ _____ _____    ______ ____
ROOT
ATOM      1  N   UNL     1      48.051   4.887  16.663  0.00  0.00    +0.000 N 
ATOM      2  C   UNL     1      49.187   4.103  17.004  0.00  0.00    +0.000 A 
ATOM      3  C   UNL     1      49.036   2.741  17.280  0.00  0.00    +0.000 A 
ATOM      4  C   UNL     1      50.142   1.942  17.561  0.00  0.00    +0.000 A 
ATOM      5  C   UNL     1      51.412   2.506  17.581  0.00  0.00    +0.000 A 
ATOM      6  C   UNL     1      51.489   3.864  17.324  0.00  0.00    +0.000 A 
ATOM      7  N   UNL     1      50.420   4.659  17.050  0.00  0.00    +0.000 NA
ENDROOT
BRANCH   5   8
ATOM      8  C   UNL     1      52.570   1.625  17.876  0.00  0.00    +0.000 C 
ATOM      9  N   UNL     1      52.341   0.318  18.205  0.00  0.00    +0.000 N 
ATOM     10  O   UNL     1      53.713   2.048  17.831  0.00  0.00    +0.000 OA
ATOM     11  H   UNL     1      51.444  -0.133  18.273  0.00  0.00    +0.000 HD
ATOM     12  H   UNL     1      53.164  -0.242  18.394  0.00  0.00    +0.000 HD
ENDBRANCH   5   8
BRANCH   1  13
ATOM     13  C   UNL     1      48.248   6.319  16.995  0.00  0.00    +0.000 C 
BRANCH  13  15
ATOM     14  C   UNL     1      47.808   8.243  18.684  0.00  0.00    +0.000 C 
ATOM     15  C   UNL     1      48.117   6.764  18.469  0.00  0.00    +0.000 C 
ATOM     16  C   UNL     1      46.989   5.961  19.144  0.00  0.00    +0.000 C 
ENDBRANCH  13  15
ENDBRANCH   1  13
BRANCH   1  17
ATOM     17  C   UNL     1      47.444   4.451  15.378  0.00  0.00    +0.000 C 
BRANCH  17  18
ATOM     18  C   UNL     1      47.492   5.629  14.385  0.00  0.00    +0.000 C 
BRANCH  18  19
ATOM     19  C   UNL     1      46.397   5.906  13.387  0.00  0.00    +0.000 A 
ATOM     20  C   UNL     1      46.253   7.253  13.002  0.00  0.00    +0.000 A 
ATOM     21  C   UNL     1      45.413   7.620  11.959  0.00  0.00    +0.000 A 
ATOM     22  C   UNL     1      44.687   6.644  11.286  0.00  0.00    +0.000 A 
ATOM     23  C   UNL     1      44.773   5.307  11.678  0.00  0.00    +0.000 A 
ATOM     24  C   UNL     1      45.625   4.941  12.734  0.00  0.00    +0.000 A 
BRANCH  23  25
ATOM     25  O   UNL     1      44.122   4.268  11.064  0.00  0.00    +0.000 OA
BRANCH  25  26
ATOM     26  C   UNL     1      44.284   4.112   9.652  0.00  0.00    +0.000 C 
ATOM     27  C   UNL     1      44.541   2.654   9.274  0.00  0.00    +0.000 C 
ATOM     28  C   UNL     1      45.553   2.665   8.139  0.00  0.00    +0.000 C 
ATOM     29  C   UNL     1      46.071   4.090   8.013  0.00  0.00    +0.000 C 
ATOM     30  C   UNL     1      45.554   4.845   9.227  0.00  0.00    +0.000 C 
ENDBRANCH  25  26
ENDBRANCH  23  25
ENDBRANCH  18  19
ENDBRANCH  17  18
ENDBRANCH   1  17
TORSDOF 8
ENDMDL
