MODEL 1
REMARK VINA RESULT:    -8.166      0.000      0.000
REMARK INTER + INTRA:         -11.289
REMARK INTER:                 -11.031
REMARK INTRA:                  -0.259
REMARK UNBOUND:                -0.259
REMARK  Name = 
REMARK  8 active torsions:
REMARK  status: ('A' for Active; 'I' for Inactive)
REMARK    1  A    between atoms: C_1  and  C_2
REMARK    2  A    between atoms: C_2  and  N_3
REMARK    3  A    between atoms: C_2  and  C_16
REMARK    4  A    between atoms: C_4  and  C_6
REMARK    5  A    between atoms: C_19  and  C_20
REMARK    6  A    between atoms: C_20  and  N_21
REMARK    7  A    between atoms: N_21  and  C_22
REMARK    8  A    between atoms: C_23  and  C_25
REMARK                            x       y       z     vdW  Elec       q    Type
REMARK                         _______ _______ _______ _____ _____    ______ ____
ROOT
ATOM      1  C   UNL     1      48.371   8.624  13.893  0.00  0.00    +0.000 C 
ATOM      2  C   UNL     1      48.216   7.108  14.091  0.00  0.00    +0.000 C 
ENDROOT
BRANCH   2   3
ATOM      3  C   UNL     1      46.992   6.652  13.307  0.00  0.00    +0.000 A 
ATOM      4  C   UNL     1      46.214   7.528  12.539  0.00  0.00    +0.000 A 
ATOM      5  C   UNL     1      45.184   7.041  11.733  0.00  0.00    +0.000 A 
ATOM      6  C   UNL     1      44.957   5.671  11.682  0.00  0.00    +0.000 A 
ATOM      7  N   UNL     1      45.679   4.796  12.435  0.00  0.00    +0.000 NA
ATOM      8  C   UNL     1      46.660   5.303  13.227  0.00  0.00    +0.000 A 
BRANCH   6   9
ATOM      9  C   UNL     1      43.935   5.100  10.708  0.00  0.00    +0.000 C 
BRANCH   9  10
ATOM     10  N   UNL     1      44.442   3.973   9.898  0.00  0.00    +0.000 N 
ATOM     11  C   UNL     1      44.061   2.650  10.390  0.00  0.00    +0.000 C 
ATOM     12  C   UNL     1      45.385   4.245   8.898  0.00  0.00    +0.000 C 
ATOM     13  O   UNL     1      45.816   5.382   8.696  0.00  0.00    +0.000 OA
BRANCH  12  14
ATOM     14  C   UNL     1      45.943   3.155   8.052  0.00  0.00    +0.000 A 
ATOM     15  C   UNL     1      46.018   1.819   8.444  0.00  0.00    +0.000 A 
ATOM     16  C   UNL     1      46.705   0.901   7.649  0.00  0.00    +0.000 A 
ATOM     17  C   UNL     1      47.206   1.330   6.432  0.00  0.00    +0.000 A 
ATOM     18  N   UNL     1      47.037   2.583   5.959  0.00  0.00    +0.000 NA
ATOM     19  C   UNL     1      46.402   3.466   6.777  0.00  0.00    +0.000 A 
ENDBRANCH  12  14
ENDBRANCH   9  10
ENDBRANCH   6   9
ENDBRANCH   2   3
BRANCH   2  20
ATOM     20  N   UNL     1      48.113   6.736  15.499  0.00  0.00    +0.000 N 
ATOM     21  C   UNL     1      49.190   6.386  16.276  0.00  0.00    +0.000 C 
ATOM     22  O   UNL     1      50.340   6.379  15.852  0.00  0.00    +0.000 OA
ATOM     23  H   UNL     1      47.204   6.403  15.804  0.00  0.00    +0.000 HD
BRANCH  21  24
ATOM     24  C   UNL     1      48.902   6.078  17.689  0.00  0.00    +0.000 A 
ATOM     25  C   UNL     1      49.124   4.794  18.170  0.00  0.00    +0.000 A 
ATOM     26  S   UNL     1      48.752   4.606  19.823  0.00  0.00    +0.000 S 
ATOM     27  C   UNL     1      48.241   6.224  19.947  0.00  0.00    +0.000 A 
ATOM     28  N   UNL     1      47.748   6.715  21.116  0.00  0.00    +0.000 NA
ATOM     29  C   UNL     1      47.369   7.948  21.060  0.00  0.00    +0.000 A 
ATOM     30  N   UNL     1      47.455   8.740  19.944  0.00  0.00    +0.000 N 
ATOM     31  C   UNL     1      47.990   8.301  18.756  0.00  0.00    +0.000 A 
ATOM     32  O   UNL     1      48.129   9.053  17.797  0.00  0.00    +0.000 OA
ATOM     33  C   UNL     1      48.391   6.908  18.753  0.00  0.00    +0.000 A 
ATOM     34  H   UNL     1      47.162   9.705  19.975  0.00  0.00    +0.000 HD
ENDBRANCH  21  24
ENDBRANCH   2  20
TORSDOF 6
ENDMDL
MODEL 2
REMARK VINA RESULT:    -8.110      1.259      1.906
REMARK INTER + INTRA:         -11.213
REMARK INTER:                 -11.252
REMARK INTRA:                   0.040
REMARK UNBOUND:                -0.259
REMARK  Name = 
REMARK  8 active torsions:
REMARK  status: ('A' for Active; 'I' for Inactive)
REMARK    1  A    between atoms: C_1  and  C_2
REMARK    2  A    between atoms: C_2  and  N_3
REMARK    3  A    between atoms: C_2  and  C_16
REMARK    4  A    between atoms: C_4  and  C_6
REMARK    5  A    between atoms: C_19  and  C_20
REMARK    6  A    between atoms: C_20  and  N_21
REMARK    7  A    between atoms: N_21  and  C_22
REMARK    8  A    between atoms: C_23  and  C_25
REMARK                            x       y       z     vdW  Elec       q    Type
REMARK                         _______ _______ _______ _____ _____    ______ ____
ROOT
ATOM      1  C   UNL     1      48.355   8.987  13.247  0.00  0.00    +0.000 C 
ATOM      2  C   UNL     1      48.170   7.534  13.711  0.00  0.00    +0.000 C 
ENDROOT
BRANCH   2   3
ATOM      3  C   UNL     1      46.942   6.968  13.012  0.00  0.00    +0.000 A 
ATOM      4  C   UNL     1      46.142   7.729  12.150  0.00  0.00    +0.000 A 
ATOM      5  C   UNL     1      45.107   7.131  11.429  0.00  0.00    +0.000 A 
ATOM      6  C   UNL     1      44.898   5.763  11.557  0.00  0.00    +0.000 A 
ATOM      7  N   UNL     1      45.642   5.000  12.404  0.00  0.00    +0.000 NA
ATOM      8  C   UNL     1      46.627   5.616  13.110  0.00  0.00    +0.000 A 
BRANCH   6   9
ATOM      9  C   UNL     1      43.870   5.060  10.681  0.00  0.00    +0.000 C 
BRANCH   9  10
ATOM     10  N   UNL     1      44.419   3.938   9.893  0.00  0.00    +0.000 N 
ATOM     11  C   UNL     1      44.072   2.611  10.399  0.00  0.00    +0.000 C 
ATOM     12  C   UNL     1      45.366   4.224   8.900  0.00  0.00    +0.000 C 
ATOM     13  O   UNL     1      45.766   5.370   8.687  0.00  0.00    +0.000 OA
BRANCH  12  14
ATOM     14  C   UNL     1      45.966   3.139   8.077  0.00  0.00    +0.000 A 
ATOM     15  C   UNL     1      45.968   1.791   8.436  0.00  0.00    +0.000 A 
ATOM     16  C   UNL     1      46.697   0.873   7.680  0.00  0.00    +0.000 A 
ATOM     17  C   UNL     1      47.317   1.318   6.524  0.00  0.00    +0.000 A 
ATOM     18  N   UNL     1      47.226   2.587   6.073  0.00  0.00    +0.000 NA
ATOM     19  C   UNL     1      46.545   3.468   6.856  0.00  0.00    +0.000 A 
ENDBRANCH  12  14
ENDBRANCH   9  10
ENDBRANCH   6   9
ENDBRANCH   2   3
BRANCH   2  20
ATOM     20  N   UNL     1      48.054   7.422  15.162  0.00  0.00    +0.000 N 
ATOM     21  C   UNL     1      49.110   7.139  15.993  0.00  0.00    +0.000 C 
ATOM     22  O   UNL     1      50.254   6.979  15.582  0.00  0.00    +0.000 OA
ATOM     23  H   UNL     1      47.126   7.211  15.517  0.00  0.00    +0.000 HD
BRANCH  21  24
ATOM     24  C   UNL     1      48.813   7.104  17.437  0.00  0.00    +0.000 A 
ATOM     25  C   UNL     1      48.467   8.278  18.094  0.00  0.00    +0.000 A 
ATOM     26  S   UNL     1      48.146   8.066  19.756  0.00  0.00    +0.000 S 
ATOM     27  C   UNL     1      48.500   6.403  19.666  0.00  0.00    +0.000 A 
ATOM     28  N   UNL     1      48.459   5.618  20.776  0.00  0.00    +0.000 NA
ATOM     29  C   UNL     1      48.780   4.384  20.569  0.00  0.00    +0.000 A 
ATOM     30  N   UNL     1      49.121   3.861  19.349  0.00  0.00    +0.000 N 
ATOM     31  C   UNL     1      49.130   4.606  18.193  0.00  0.00    +0.000 A 
ATOM     32  O   UNL     1      49.360   4.096  17.102  0.00  0.00    +0.000 OA
ATOM     33  C   UNL     1      48.818   6.010  18.378  0.00  0.00    +0.000 A 
ATOM     34  H   UNL     1      49.339   2.881  19.253  0.00  0.00    +0.000 HD
ENDBRANCH  21  24
ENDBRANCH   2  20
TORSDOF 6
ENDMDL
MODEL 3
REMARK VINA RESULT:    -7.860      3.522      8.975
REMARK INTER + INTRA:         -10.875
REMARK INTER:                 -10.074
REMARK INTRA:                  -0.801
REMARK UNBOUND:                -0.259
REMARK  Name = 
REMARK  8 active torsions:
REMARK  status: ('A' for Active; 'I' for Inactive)
REMARK    1  A    between atoms: C_1  and  C_2
REMARK    2  A    between atoms: C_2  and  N_3
REMARK    3  A    between atoms: C_2  and  C_16
REMARK    4  A    between atoms: C_4  and  C_6
REMARK    5  A    between atoms: C_19  and  C_20
REMARK    6  A    between atoms: C_20  and  N_21
REMARK    7  A    between atoms: N_21  and  C_22
REMARK    8  A    between atoms: C_23  and  C_25
REMARK                            x       y       z     vdW  Elec       q    Type
REMARK                         _______ _______ _______ _____ _____    ______ ____
ROOT
ATOM      1  C   UNL     1      49.750   8.019  11.839  0.00  0.00    +0.000 C 
ATOM      2  C   UNL     1      48.369   7.826  12.486  0.00  0.00    +0.000 C 
ENDROOT
BRANCH   2   3
ATOM      3  C   UNL     1      48.577   7.552  13.970  0.00  0.00    +0.000 A 
ATOM      4  C   UNL     1      48.140   6.375  14.591  0.00  0.00    +0.000 A 
ATOM      5  C   UNL     1      48.472   6.110  15.921  0.00  0.00    +0.000 A 
ATOM      6  C   UNL     1      49.264   7.019  16.613  0.00  0.00    +0.000 A 
ATOM      7  N   UNL     1      49.683   8.182  16.045  0.00  0.00    +0.000 NA
ATOM      8  C   UNL     1      49.325   8.423  14.757  0.00  0.00    +0.000 A 
BRANCH   6   9
ATOM      9  C   UNL     1      49.756   6.692  18.017  0.00  0.00    +0.000 C 
BRANCH   9  10
ATOM     10  N   UNL     1      50.125   5.274  18.208  0.00  0.00    +0.000 N 
ATOM     11  C   UNL     1      49.326   4.566  19.206  0.00  0.00    +0.000 C 
ATOM     12  C   UNL     1      51.301   4.807  17.605  0.00  0.00    +0.000 C 
ATOM     13  O   UNL     1      52.038   5.545  16.949  0.00  0.00    +0.000 OA
BRANCH  12  14
ATOM     14  C   UNL     1      51.736   3.393  17.766  0.00  0.00    +0.000 A 
ATOM     15  C   UNL     1      52.945   3.005  18.345  0.00  0.00    +0.000 A 
ATOM     16  C   UNL     1      53.336   1.667  18.303  0.00  0.00    +0.000 A 
ATOM     17  C   UNL     1      52.454   0.740  17.773  0.00  0.00    +0.000 A 
ATOM     18  N   UNL     1      51.221   1.059  17.325  0.00  0.00    +0.000 NA
ATOM     19  C   UNL     1      50.887   2.378  17.339  0.00  0.00    +0.000 A 
ENDBRANCH  12  14
ENDBRANCH   9  10
ENDBRANCH   6   9
ENDBRANCH   2   3
BRANCH   2  20
ATOM     20  N   UNL     1      47.599   6.759  11.852  0.00  0.00    +0.000 N 
ATOM     21  C   UNL     1      46.264   6.859  11.547  0.00  0.00    +0.000 C 
ATOM     22  O   UNL     1      45.608   7.872  11.764  0.00  0.00    +0.000 OA
ATOM     23  H   UNL     1      47.974   5.822  11.955  0.00  0.00    +0.000 HD
BRANCH  21  24
ATOM     24  C   UNL     1      45.660   5.697  10.872  0.00  0.00    +0.000 A 
ATOM     25  C   UNL     1      45.819   5.542   9.500  0.00  0.00    +0.000 A 
ATOM     26  S   UNL     1      45.069   4.143   8.875  0.00  0.00    +0.000 S 
ATOM     27  C   UNL     1      44.468   3.716  10.409  0.00  0.00    +0.000 A 
ATOM     28  N   UNL     1      43.685   2.616  10.572  0.00  0.00    +0.000 NA
ATOM     29  C   UNL     1      43.274   2.427  11.782  0.00  0.00    +0.000 A 
ATOM     30  N   UNL     1      43.588   3.232  12.846  0.00  0.00    +0.000 N 
ATOM     31  C   UNL     1      44.414   4.326  12.737  0.00  0.00    +0.000 A 
ATOM     32  O   UNL     1      44.744   4.982  13.719  0.00  0.00    +0.000 OA
ATOM     33  C   UNL     1      44.869   4.607  11.390  0.00  0.00    +0.000 A 
ATOM     34  H   UNL     1      43.251   3.015  13.772  0.00  0.00    +0.000 HD
ENDBRANCH  21  24
ENDBRANCH   2  20
TORSDOF 6
ENDMDL
MODEL 4
REMARK VINA RESULT:    -7.816      3.130      9.303
REMARK INTER + INTRA:         -10.816
REMARK INTER:                 -10.093
REMARK INTRA:                  -0.724
REMARK UNBOUND:                -0.259
REMARK  Name = 
REMARK  8 active torsions:
REMARK  status: ('A' for Active; 'I' for Inactive)
REMARK    1  A    between atoms: C_1  and  C_2
REMARK    2  A    between atoms: C_2  and  N_3
REMARK    3  A    between atoms: C_2  and  C_16
REMARK    4  A    between atoms: C_4  and  C_6
REMARK    5  A    between atoms: C_19  and  C_20
REMARK    6  A    between atoms: C_20  and  N_21
REMARK    7  A    between atoms: N_21  and  C_22
REMARK    8  A    between atoms: C_23  and  C_25
REMARK                            x       y       z     vdW  Elec       q    Type
REMARK                         _______ _______ _______ _____ _____    ______ ____
ROOT
ATOM      1  C   UNL     1      48.454   8.045  11.473  0.00  0.00    +0.000 C 
ATOM      2  C   UNL     1      47.409   7.595  12.505  0.00  0.00    +0.000 C 
ENDROOT
BRANCH   2   3
ATOM      3  C   UNL     1      48.124   7.368  13.832  0.00  0.00    +0.000 A 
ATOM      4  C   UNL     1      48.634   8.418  14.606  0.00  0.00    +0.000 A 
ATOM      5  C   UNL     1      49.159   8.171  15.876  0.00  0.00    +0.000 A 
ATOM      6  C   UNL     1      49.145   6.873  16.372  0.00  0.00    +0.000 A 
ATOM      7  N   UNL     1      48.679   5.829  15.635  0.00  0.00    +0.000 NA
ATOM      8  C   UNL     1      48.195   6.097  14.393  0.00  0.00    +0.000 A 
BRANCH   6   9
ATOM      9  C   UNL     1      49.583   6.597  17.804  0.00  0.00    +0.000 C 
BRANCH   9  10
ATOM     10  N   UNL     1      50.001   5.201  18.045  0.00  0.00    +0.000 N 
ATOM     11  C   UNL     1      49.154   4.464  18.981  0.00  0.00    +0.000 C 
ATOM     12  C   UNL     1      51.245   4.785  17.550  0.00  0.00    +0.000 C 
ATOM     13  O   UNL     1      52.000   5.551  16.949  0.00  0.00    +0.000 OA
BRANCH  12  14
ATOM     14  C   UNL     1      51.731   3.395  17.765  0.00  0.00    +0.000 A 
ATOM     15  C   UNL     1      52.952   3.074  18.358  0.00  0.00    +0.000 A 
ATOM     16  C   UNL     1      53.392   1.751  18.368  0.00  0.00    +0.000 A 
ATOM     17  C   UNL     1      52.544   0.772  17.876  0.00  0.00    +0.000 A 
ATOM     18  N   UNL     1      51.301   1.028  17.417  0.00  0.00    +0.000 NA
ATOM     19  C   UNL     1      50.919   2.334  17.379  0.00  0.00    +0.000 A 
ENDBRANCH  12  14
ENDBRANCH   9  10
ENDBRANCH   6   9
ENDBRANCH   2   3
BRANCH   2  20
ATOM     20  N   UNL     1      46.684   6.400  12.083  0.00  0.00    +0.000 N 
ATOM     21  C   UNL     1      45.315   6.307  12.059  0.00  0.00    +0.000 C 
ATOM     22  O   UNL     1      44.580   7.238  12.373  0.00  0.00    +0.000 OA
ATOM     23  H   UNL     1      47.199   5.527  12.137  0.00  0.00    +0.000 HD
BRANCH  21  24
ATOM     24  C   UNL     1      44.755   5.036  11.564  0.00  0.00    +0.000 A 
ATOM     25  C   UNL     1      43.946   4.274  12.397  0.00  0.00    +0.000 A 
ATOM     26  S   UNL     1      43.372   2.840  11.672  0.00  0.00    +0.000 S 
ATOM     27  C   UNL     1      44.219   3.166  10.232  0.00  0.00    +0.000 A 
ATOM     28  N   UNL     1      44.191   2.292   9.191  0.00  0.00    +0.000 NA
ATOM     29  C   UNL     1      44.902   2.650   8.174  0.00  0.00    +0.000 A 
ATOM     30  N   UNL     1      45.626   3.811   8.099  0.00  0.00    +0.000 N 
ATOM     31  C   UNL     1      45.646   4.746   9.108  0.00  0.00    +0.000 A 
ATOM     32  O   UNL     1      46.236   5.813   8.983  0.00  0.00    +0.000 OA
ATOM     33  C   UNL     1      44.896   4.372  10.291  0.00  0.00    +0.000 A 
ATOM     34  H   UNL     1      46.143   4.042   7.264  0.00  0.00    +0.000 HD
ENDBRANCH  21  24
ENDBRANCH   2  20
TORSDOF 6
ENDMDL
MODEL 5
REMARK VINA RESULT:    -7.142      2.943      3.989
REMARK INTER + INTRA:          -9.906
REMARK INTER:                  -9.567
REMARK INTRA:                  -0.339
REMARK UNBOUND:                -0.259
REMARK  Name = 
REMARK  8 active torsions:
REMARK  status: ('A' for Active; 'I' for Inactive)
REMARK    1  A    between atoms: C_1  and  C_2
REMARK    2  A    between atoms: C_2  and  N_3
REMARK    3  A    between atoms: C_2  and  C_16
REMARK    4  A    between atoms: C_4  and  C_6
REMARK    5  A    between atoms: C_19  and  C_20
REMARK    6  A    between atoms: C_20  and  N_21
REMARK    7  A    between atoms: N_21  and  C_22
REMARK    8  A    between atoms: C_23  and  C_25
REMARK                            x       y       z     vdW  Elec       q    Type
REMARK                         _______ _______ _______ _____ _____    ______ ____
ROOT
ATOM      1  C   UNL     1      47.638   3.528  15.133  0.00  0.00    +0.000 C 
ATOM      2  C   UNL     1      47.025   4.909  14.857  0.00  0.00    +0.000 C 
ENDROOT
BRANCH   2   3
ATOM      3  C   UNL     1      46.070   4.776  13.678  0.00  0.00    +0.000 A 
ATOM      4  C   UNL     1      45.543   5.883  13.001  0.00  0.00    +0.000 A 
ATOM      5  C   UNL     1      44.781   5.709  11.844  0.00  0.00    +0.000 A 
ATOM      6  C   UNL     1      44.574   4.424  11.359  0.00  0.00    +0.000 A 
ATOM      7  N   UNL     1      45.052   3.327  12.007  0.00  0.00    +0.000 NA
ATOM      8  C   UNL     1      45.771   3.526  13.143  0.00  0.00    +0.000 A 
BRANCH   6   9
ATOM      9  C   UNL     1      43.866   4.213  10.027  0.00  0.00    +0.000 C 
BRANCH   9  10
ATOM     10  N   UNL     1      44.639   3.412   9.056  0.00  0.00    +0.000 N 
ATOM     11  C   UNL     1      44.409   1.971   9.134  0.00  0.00    +0.000 C 
ATOM     12  C   UNL     1      45.648   4.051   8.322  0.00  0.00    +0.000 C 
ATOM     13  O   UNL     1      45.920   5.242   8.482  0.00  0.00    +0.000 OA
BRANCH  12  14
ATOM     14  C   UNL     1      46.470   3.301   7.334  0.00  0.00    +0.000 A 
ATOM     15  C   UNL     1      46.600   3.655   5.992  0.00  0.00    +0.000 A 
ATOM     16  C   UNL     1      47.260   2.800   5.109  0.00  0.00    +0.000 A 
ATOM     17  C   UNL     1      47.862   1.663   5.622  0.00  0.00    +0.000 A 
ATOM     18  N   UNL     1      47.871   1.355   6.936  0.00  0.00    +0.000 NA
ATOM     19  C   UNL     1      47.182   2.186   7.764  0.00  0.00    +0.000 A 
ENDBRANCH  12  14
ENDBRANCH   9  10
ENDBRANCH   6   9
ENDBRANCH   2   3
BRANCH   2  20
ATOM     20  N   UNL     1      48.038   5.931  14.607  0.00  0.00    +0.000 N 
ATOM     21  C   UNL     1      48.671   6.637  15.599  0.00  0.00    +0.000 C 
ATOM     22  O   UNL     1      48.452   6.451  16.791  0.00  0.00    +0.000 OA
ATOM     23  H   UNL     1      48.018   6.356  13.685  0.00  0.00    +0.000 HD
BRANCH  21  24
ATOM     24  C   UNL     1      49.696   7.602  15.161  0.00  0.00    +0.000 A 
ATOM     25  C   UNL     1      49.325   8.690  14.382  0.00  0.00    +0.000 A 
ATOM     26  S   UNL     1      50.625   9.714  13.968  0.00  0.00    +0.000 S 
ATOM     27  C   UNL     1      51.739   8.717  14.781  0.00  0.00    +0.000 A 
ATOM     28  N   UNL     1      53.068   9.005  14.779  0.00  0.00    +0.000 NA
ATOM     29  C   UNL     1      53.802   8.148  15.408  0.00  0.00    +0.000 A 
ATOM     30  N   UNL     1      53.323   7.037  16.052  0.00  0.00    +0.000 N 
ATOM     31  C   UNL     1      51.984   6.731  16.120  0.00  0.00    +0.000 A 
ATOM     32  O   UNL     1      51.575   5.775  16.771  0.00  0.00    +0.000 OA
ATOM     33  C   UNL     1      51.120   7.640  15.393  0.00  0.00    +0.000 A 
ATOM     34  H   UNL     1      53.950   6.419  16.546  0.00  0.00    +0.000 HD
ENDBRANCH  21  24
ENDBRANCH   2  20
TORSDOF 6
ENDMDL
MODEL 6
REMARK VINA RESULT:    -7.126      3.973      6.046
REMARK INTER + INTRA:          -9.885
REMARK INTER:                  -9.745
REMARK INTRA:                  -0.139
REMARK UNBOUND:                -0.259
REMARK  Name = 
REMARK  8 active torsions:
REMARK  status: ('A' for Active; 'I' for Inactive)
REMARK    1  A    between atoms: C_1  and  C_2
REMARK    2  A    between atoms: C_2  and  N_3
REMARK    3  A    between atoms: C_2  and  C_16
REMARK    4  A    between atoms: C_4  and  C_6
REMARK    5  A    between atoms: C_19  and  C_20
REMARK    6  A    between atoms: C_20  and  N_21
REMARK    7  A    between atoms: N_21  and  C_22
REMARK    8  A    between atoms: C_23  and  C_25
REMARK                            x       y       z     vdW  Elec       q    Type
REMARK                         _______ _______ _______ _____ _____    ______ ____
ROOT
ATOM      1  C   UNL     1      48.439   6.911  14.316  0.00  0.00    +0.000 C 
ATOM      2  C   UNL     1      47.574   7.932  13.561  0.00  0.00    +0.000 C 
ENDROOT
BRANCH   2   3
ATOM      3  C   UNL     1      46.414   7.183  12.919  0.00  0.00    +0.000 A 
ATOM      4  C   UNL     1      45.444   7.819  12.133  0.00  0.00    +0.000 A 
ATOM      5  C   UNL     1      44.478   7.072  11.456  0.00  0.00    +0.000 A 
ATOM      6  C   UNL     1      44.508   5.686  11.551  0.00  0.00    +0.000 A 
ATOM      7  N   UNL     1      45.422   5.040  12.325  0.00  0.00    +0.000 NA
ATOM      8  C   UNL     1      46.335   5.795  12.991  0.00  0.00    +0.000 A 
BRANCH   6   9
ATOM      9  C   UNL     1      43.556   4.841  10.715  0.00  0.00    +0.000 C 
BRANCH   9  10
ATOM     10  N   UNL     1      44.220   3.764   9.953  0.00  0.00    +0.000 N 
ATOM     11  C   UNL     1      43.996   2.418  10.477  0.00  0.00    +0.000 C 
ATOM     12  C   UNL     1      45.147   4.124   8.966  0.00  0.00    +0.000 C 
ATOM     13  O   UNL     1      45.438   5.300   8.738  0.00  0.00    +0.000 OA
BRANCH  12  14
ATOM     14  C   UNL     1      45.859   3.090   8.167  0.00  0.00    +0.000 A 
ATOM     15  C   UNL     1      45.841   1.725   8.457  0.00  0.00    +0.000 A 
ATOM     16  C   UNL     1      46.670   0.855   7.749  0.00  0.00    +0.000 A 
ATOM     17  C   UNL     1      47.416   1.364   6.699  0.00  0.00    +0.000 A 
ATOM     18  N   UNL     1      47.358   2.654   6.304  0.00  0.00    +0.000 NA
ATOM     19  C   UNL     1      46.575   3.486   7.043  0.00  0.00    +0.000 A 
ENDBRANCH  12  14
ENDBRANCH   9  10
ENDBRANCH   6   9
ENDBRANCH   2   3
BRANCH   2  20
ATOM     20  N   UNL     1      48.336   8.683  12.567  0.00  0.00    +0.000 N 
ATOM     21  C   UNL     1      48.798   9.961  12.766  0.00  0.00    +0.000 C 
ATOM     22  O   UNL     1      48.626  10.573  13.815  0.00  0.00    +0.000 OA
ATOM     23  H   UNL     1      48.221   8.385  11.604  0.00  0.00    +0.000 HD
BRANCH  21  24
ATOM     24  C   UNL     1      49.584  10.549  11.667  0.00  0.00    +0.000 A 
ATOM     25  C   UNL     1      49.130  11.705  11.043  0.00  0.00    +0.000 A 
ATOM     26  S   UNL     1      50.157  12.262   9.800  0.00  0.00    +0.000 S 
ATOM     27  C   UNL     1      51.224  10.955  10.022  0.00  0.00    +0.000 A 
ATOM     28  N   UNL     1      52.319  10.803   9.231  0.00  0.00    +0.000 NA
ATOM     29  C   UNL     1      53.024   9.752   9.489  0.00  0.00    +0.000 A 
ATOM     30  N   UNL     1      52.740   8.848  10.479  0.00  0.00    +0.000 N 
ATOM     31  C   UNL     1      51.670   8.986  11.333  0.00  0.00    +0.000 A 
ATOM     32  O   UNL     1      51.485   8.206  12.262  0.00  0.00    +0.000 OA
ATOM     33  C   UNL     1      50.822  10.129  11.058  0.00  0.00    +0.000 A 
ATOM     34  H   UNL     1      53.346   8.058  10.644  0.00  0.00    +0.000 HD
ENDBRANCH  21  24
ENDBRANCH   2  20
TORSDOF 6
ENDMDL
MODEL 7
REMARK VINA RESULT:    -7.121      3.005      4.588
REMARK INTER + INTRA:          -9.877
REMARK INTER:                  -9.442
REMARK INTRA:                  -0.436
REMARK UNBOUND:                -0.259
REMARK  Name = 
REMARK  8 active torsions:
REMARK  status: ('A' for Active; 'I' for Inactive)
REMARK    1  A    between atoms: C_1  and  C_2
REMARK    2  A    between atoms: C_2  and  N_3
REMARK    3  A    between atoms: C_2  and  C_16
REMARK    4  A    between atoms: C_4  and  C_6
REMARK    5  A    between atoms: C_19  and  C_20
REMARK    6  A    between atoms: C_20  and  N_21
REMARK    7  A    between atoms: N_21  and  C_22
REMARK    8  A    between atoms: C_23  and  C_25
REMARK                            x       y       z     vdW  Elec       q    Type
REMARK                         _______ _______ _______ _____ _____    ______ ____
ROOT
ATOM      1  C   UNL     1      47.635   4.550  15.481  0.00  0.00    +0.000 C 
ATOM      2  C   UNL     1      47.427   5.925  14.827  0.00  0.00    +0.000 C 
ENDROOT
BRANCH   2   3
ATOM      3  C   UNL     1      46.418   5.763  13.698  0.00  0.00    +0.000 A 
ATOM      4  C   UNL     1      46.305   6.679  12.645  0.00  0.00    +0.000 A 
ATOM      5  C   UNL     1      45.460   6.418  11.565  0.00  0.00    +0.000 A 
ATOM      6  C   UNL     1      44.750   5.224  11.537  0.00  0.00    +0.000 A 
ATOM      7  N   UNL     1      44.819   4.325  12.556  0.00  0.00    +0.000 NA
ATOM      8  C   UNL     1      45.633   4.617  13.604  0.00  0.00    +0.000 A 
BRANCH   6   9
ATOM      9  C   UNL     1      43.929   4.850  10.309  0.00  0.00    +0.000 C 
BRANCH   9  10
ATOM     10  N   UNL     1      44.532   3.782   9.486  0.00  0.00    +0.000 N 
ATOM     11  C   UNL     1      44.187   2.424   9.902  0.00  0.00    +0.000 C 
ATOM     12  C   UNL     1      45.516   4.138   8.554  0.00  0.00    +0.000 C 
ATOM     13  O   UNL     1      45.905   5.299   8.423  0.00  0.00    +0.000 OA
BRANCH  12  14
ATOM     14  C   UNL     1      46.171   3.110   7.699  0.00  0.00    +0.000 A 
ATOM     15  C   UNL     1      46.390   1.789   8.090  0.00  0.00    +0.000 A 
ATOM     16  C   UNL     1      47.156   0.946   7.285  0.00  0.00    +0.000 A 
ATOM     17  C   UNL     1      47.592   1.423   6.060  0.00  0.00    +0.000 A 
ATOM     18  N   UNL     1      47.288   2.651   5.590  0.00  0.00    +0.000 NA
ATOM     19  C   UNL     1      46.577   3.465   6.417  0.00  0.00    +0.000 A 
ENDBRANCH  12  14
ENDBRANCH   9  10
ENDBRANCH   6   9
ENDBRANCH   2   3
BRANCH   2  20
ATOM     20  N   UNL     1      48.675   6.508  14.343  0.00  0.00    +0.000 N 
ATOM     21  C   UNL     1      49.399   7.447  15.036  0.00  0.00    +0.000 C 
ATOM     22  O   UNL     1      49.064   7.860  16.141  0.00  0.00    +0.000 OA
ATOM     23  H   UNL     1      48.821   6.472  13.339  0.00  0.00    +0.000 HD
BRANCH  21  24
ATOM     24  C   UNL     1      50.656   7.894  14.411  0.00  0.00    +0.000 A 
ATOM     25  C   UNL     1      51.859   7.707  15.081  0.00  0.00    +0.000 A 
ATOM     26  S   UNL     1      53.220   8.270  14.220  0.00  0.00    +0.000 S 
ATOM     27  C   UNL     1      52.246   8.823  12.938  0.00  0.00    +0.000 A 
ATOM     28  N   UNL     1      52.793   9.461  11.869  0.00  0.00    +0.000 NA
ATOM     29  C   UNL     1      51.937   9.854  10.986  0.00  0.00    +0.000 A 
ATOM     30  N   UNL     1      50.584   9.651  11.068  0.00  0.00    +0.000 N 
ATOM     31  C   UNL     1      49.992   8.970  12.107  0.00  0.00    +0.000 A 
ATOM     32  O   UNL     1      48.789   8.732  12.116  0.00  0.00    +0.000 OA
ATOM     33  C   UNL     1      50.906   8.545  13.147  0.00  0.00    +0.000 A 
ATOM     34  H   UNL     1      49.971   9.964  10.330  0.00  0.00    +0.000 HD
ENDBRANCH  21  24
ENDBRANCH   2  20
TORSDOF 6
ENDMDL
MODEL 8
REMARK VINA RESULT:    -6.968      2.486     10.487
REMARK INTER + INTRA:          -9.671
REMARK INTER:                  -8.711
REMARK INTRA:                  -0.960
REMARK UNBOUND:                -0.259
REMARK  Name = 
REMARK  8 active torsions:
REMARK  status: ('A' for Active; 'I' for Inactive)
REMARK    1  A    between atoms: C_1  and  C_2
REMARK    2  A    between atoms: C_2  and  N_3
REMARK    3  A    between atoms: C_2  and  C_16
REMARK    4  A    between atoms: C_4  and  C_6
REMARK    5  A    between atoms: C_19  and  C_20
REMARK    6  A    between atoms: C_20  and  N_21
REMARK    7  A    between atoms: N_21  and  C_22
REMARK    8  A    between atoms: C_23  and  C_25
REMARK                            x       y       z     vdW  Elec       q    Type
REMARK                         _______ _______ _______ _____ _____    ______ ____
ROOT
ATOM      1  C   UNL     1      48.782   7.654  11.353  0.00  0.00    +0.000 C 
ATOM      2  C   UNL     1      47.689   7.396  12.401  0.00  0.00    +0.000 C 
ENDROOT
BRANCH   2   3
ATOM      3  C   UNL     1      48.360   7.274  13.763  0.00  0.00    +0.000 A 
ATOM      4  C   UNL     1      49.066   8.329  14.357  0.00  0.00    +0.000 A 
ATOM      5  C   UNL     1      49.547   8.214  15.662  0.00  0.00    +0.000 A 
ATOM      6  C   UNL     1      49.295   7.047  16.374  0.00  0.00    +0.000 A 
ATOM      7  N   UNL     1      48.634   5.996  15.817  0.00  0.00    +0.000 NA
ATOM      8  C   UNL     1      48.198   6.129  14.537  0.00  0.00    +0.000 A 
BRANCH   6   9
ATOM      9  C   UNL     1      49.686   6.947  17.843  0.00  0.00    +0.000 C 
BRANCH   9  10
ATOM     10  N   UNL     1      48.695   7.531  18.769  0.00  0.00    +0.000 N 
ATOM     11  C   UNL     1      47.501   6.715  18.978  0.00  0.00    +0.000 C 
ATOM     12  C   UNL     1      48.873   8.859  19.180  0.00  0.00    +0.000 C 
ATOM     13  O   UNL     1      49.808   9.551  18.774  0.00  0.00    +0.000 OA
BRANCH  12  14
ATOM     14  C   UNL     1      47.907   9.512  20.105  0.00  0.00    +0.000 A 
ATOM     15  C   UNL     1      48.049   9.544  21.493  0.00  0.00    +0.000 A 
ATOM     16  C   UNL     1      47.011  10.036  22.285  0.00  0.00    +0.000 A 
ATOM     17  C   UNL     1      45.903  10.579  21.655  0.00  0.00    +0.000 A 
ATOM     18  N   UNL     1      45.789  10.686  20.314  0.00  0.00    +0.000 NA
ATOM     19  C   UNL     1      46.798  10.157  19.569  0.00  0.00    +0.000 A 
ENDBRANCH  12  14
ENDBRANCH   9  10
ENDBRANCH   6   9
ENDBRANCH   2   3
BRANCH   2  20
ATOM     20  N   UNL     1      46.891   6.212  12.096  0.00  0.00    +0.000 N 
ATOM     21  C   UNL     1      45.593   6.261  11.648  0.00  0.00    +0.000 C 
ATOM     22  O   UNL     1      45.001   7.315  11.445  0.00  0.00    +0.000 OA
ATOM     23  H   UNL     1      47.185   5.351  12.546  0.00  0.00    +0.000 HD
BRANCH  21  24
ATOM     24  C   UNL     1      44.955   4.966  11.353  0.00  0.00    +0.000 A 
ATOM     25  C   UNL     1      44.208   4.330  12.336  0.00  0.00    +0.000 A 
ATOM     26  S   UNL     1      43.529   2.848  11.832  0.00  0.00    +0.000 S 
ATOM     27  C   UNL     1      44.245   2.983  10.294  0.00  0.00    +0.000 A 
ATOM     28  N   UNL     1      44.095   2.001   9.364  0.00  0.00    +0.000 NA
ATOM     29  C   UNL     1      44.716   2.219   8.253  0.00  0.00    +0.000 A 
ATOM     30  N   UNL     1      45.461   3.337   7.982  0.00  0.00    +0.000 N 
ATOM     31  C   UNL     1      45.602   4.375   8.874  0.00  0.00    +0.000 A 
ATOM     32  O   UNL     1      46.207   5.400   8.577  0.00  0.00    +0.000 OA
ATOM     33  C   UNL     1      44.958   4.161  10.155  0.00  0.00    +0.000 A 
ATOM     34  H   UNL     1      45.903   3.455   7.083  0.00  0.00    +0.000 HD
ENDBRANCH  21  24
ENDBRANCH   2  20
TORSDOF 6
ENDMDL
MODEL 9
REMARK VINA RESULT:    -6.749      3.331      9.788
REMARK INTER + INTRA:          -9.375
REMARK INTER:                  -8.471
REMARK INTRA:                  -0.904
REMARK UNBOUND:                -0.259
REMARK  Name = 
REMARK  8 active torsions:
REMARK  status: ('A' for Active; 'I' for Inactive)
REMARK    1  A    between atoms: C_1  and  C_2
REMARK    2  A    between atoms: C_2  and  N_3
REMARK    3  A    between atoms: C_2  and  C_16
REMARK    4  A    between atoms: C_4  and  C_6
REMARK    5  A    between atoms: C_19  and  C_20
REMARK    6  A    between atoms: C_20  and  N_21
REMARK    7  A    between atoms: N_21  and  C_22
REMARK    8  A    between atoms: C_23  and  C_25
REMARK                            x       y       z     vdW  Elec       q    Type
REMARK                         _______ _______ _______ _____ _____    ______ ____
ROOT
ATOM      1  C   UNL     1      48.523   9.369  11.532  0.00  0.00    +0.000 C 
ATOM      2  C   UNL     1      47.852   8.406  12.524  0.00  0.00    +0.000 C 
ENDROOT
BRANCH   2   3
ATOM      3  C   UNL     1      48.896   7.982  13.549  0.00  0.00    +0.000 A 
ATOM      4  C   UNL     1      50.008   8.771  13.869  0.00  0.00    +0.000 A 
ATOM      5  C   UNL     1      50.863   8.403  14.909  0.00  0.00    +0.000 A 
ATOM      6  C   UNL     1      50.581   7.255  15.641  0.00  0.00    +0.000 A 
ATOM      7  N   UNL     1      49.523   6.455  15.339  0.00  0.00    +0.000 NA
ATOM      8  C   UNL     1      48.722   6.827  14.306  0.00  0.00    +0.000 A 
BRANCH   6   9
ATOM      9  C   UNL     1      51.415   6.905  16.867  0.00  0.00    +0.000 C 
BRANCH   9  10
ATOM     10  N   UNL     1      50.668   6.972  18.139  0.00  0.00    +0.000 N 
ATOM     11  C   UNL     1      50.844   8.218  18.883  0.00  0.00    +0.000 C 
ATOM     12  C   UNL     1      50.057   5.804  18.614  0.00  0.00    +0.000 C 
ATOM     13  O   UNL     1      50.147   4.729  18.017  0.00  0.00    +0.000 OA
BRANCH  12  14
ATOM     14  C   UNL     1      49.298   5.800  19.894  0.00  0.00    +0.000 A 
ATOM     15  C   UNL     1      49.886   5.706  21.155  0.00  0.00    +0.000 A 
ATOM     16  C   UNL     1      49.084   5.546  22.284  0.00  0.00    +0.000 A 
ATOM     17  C   UNL     1      47.709   5.591  22.127  0.00  0.00    +0.000 A 
ATOM     18  N   UNL     1      47.104   5.813  20.940  0.00  0.00    +0.000 NA
ATOM     19  C   UNL     1      47.913   5.921  19.851  0.00  0.00    +0.000 A 
ENDBRANCH  12  14
ENDBRANCH   9  10
ENDBRANCH   6   9
ENDBRANCH   2   3
BRANCH   2  20
ATOM     20  N   UNL     1      47.256   7.249  11.864  0.00  0.00    +0.000 N 
ATOM     21  C   UNL     1      45.917   7.139  11.577  0.00  0.00    +0.000 C 
ATOM     22  O   UNL     1      45.108   8.023  11.836  0.00  0.00    +0.000 OA
ATOM     23  H   UNL     1      47.780   6.382  11.931  0.00  0.00    +0.000 HD
BRANCH  21  24
ATOM     24  C   UNL     1      45.499   5.915  10.870  0.00  0.00    +0.000 A 
ATOM     25  C   UNL     1      45.798   5.767   9.522  0.00  0.00    +0.000 A 
ATOM     26  S   UNL     1      45.254   4.293   8.856  0.00  0.00    +0.000 S 
ATOM     27  C   UNL     1      44.563   3.818  10.337  0.00  0.00    +0.000 A 
ATOM     28  N   UNL     1      43.885   2.644  10.447  0.00  0.00    +0.000 NA
ATOM     29  C   UNL     1      43.386   2.424  11.618  0.00  0.00    +0.000 A 
ATOM     30  N   UNL     1      43.519   3.264  12.693  0.00  0.00    +0.000 N 
ATOM     31  C   UNL     1      44.235   4.438  12.639  0.00  0.00    +0.000 A 
ATOM     32  O   UNL     1      44.406   5.132  13.636  0.00  0.00    +0.000 OA
ATOM     33  C   UNL     1      44.780   4.753  11.334  0.00  0.00    +0.000 A 
ATOM     34  H   UNL     1      43.123   3.021  13.588  0.00  0.00    +0.000 HD
ENDBRANCH  21  24
ENDBRANCH   2  20
TORSDOF 6
ENDMDL
