MODEL 1
REMARK VINA RESULT:    -7.264      0.000      0.000
REMARK INTER + INTRA:         -10.812
REMARK INTER:                  -9.812
REMARK INTRA:                  -1.000
REMARK UNBOUND:                -1.000
REMARK  Name = 
REMARK  8 active torsions:
REMARK  status: ('A' for Active; 'I' for Inactive)
REMARK    1  A    between atoms: C_1  and  C_2
REMARK    2  A    between atoms: C_2  and  C_3
REMARK    3  A    between atoms: C_2  and  O_4
REMARK    4  A    between atoms: O_4  and  C_5
REMARK    5  A    between atoms: C_10  and  C_11
REMARK    6  A    between atoms: C_11  and  O_12
REMARK    7  A    between atoms: O_12  and  C_13
REMARK    8  A    between atoms: C_17  and  C_18
REMARK                            x       y       z     vdW  Elec       q    Type
REMARK                         _______ _______ _______ _____ _____    ______ ____
ROOT
ATOM      1  O   UNL     1      47.682   6.181  12.680  0.00  0.00    +0.000 OA
ENDROOT
BRANCH   1   2
ATOM      2  C   UNL     1      48.159   6.418  13.943  0.00  0.00    +0.000 A 
ATOM      3  C   UNL     1      48.781   7.597  14.348  0.00  0.00    +0.000 A 
ATOM      4  C   UNL     1      49.237   7.731  15.654  0.00  0.00    +0.000 A 
ATOM      5  C   UNL     1      49.034   6.704  16.573  0.00  0.00    +0.000 A 
ATOM      6  C   UNL     1      48.341   5.537  16.220  0.00  0.00    +0.000 A 
ATOM      7  C   UNL     1      47.941   5.397  14.876  0.00  0.00    +0.000 A 
BRANCH   6   8
ATOM      8  C   UNL     1      47.978   4.455  17.241  0.00  0.00    +0.000 C 
ATOM      9  C   UNL     1      49.074   4.293  18.316  0.00  0.00    +0.000 C 
ATOM     10  C   UNL     1      50.316   3.613  17.742  0.00  0.00    +0.000 C 
ATOM     11  C   UNL     1      49.981   2.302  17.029  0.00  0.00    +0.000 C 
ATOM     12  N   UNL     1      48.884   2.417  16.073  0.00  0.00    +0.000 NA
ATOM     13  C   UNL     1      47.692   3.046  16.661  0.00  0.00    +0.000 C 
ATOM     14  H   UNL     1      48.647   1.500  15.701  0.00  0.00    +0.000 HD
ENDBRANCH   6   8
ENDBRANCH   1   2
BRANCH   1  15
ATOM     15  C   UNL     1      46.563   6.986  12.300  0.00  0.00    +0.000 C 
BRANCH  15  21
ATOM     16  C   UNL     1      44.266   4.579  10.399  0.00  0.00    +0.000 A 
ATOM     17  C   UNL     1      43.322   4.298  11.387  0.00  0.00    +0.000 A 
ATOM     18  C   UNL     1      43.401   4.924  12.630  0.00  0.00    +0.000 A 
ATOM     19  F   UNL     1      42.482   4.646  13.557  0.00  0.00    +0.000 F 
ATOM     20  C   UNL     1      44.424   5.815  12.920  0.00  0.00    +0.000 A 
ATOM     21  C   UNL     1      45.395   6.094  11.957  0.00  0.00    +0.000 A 
ATOM     22  C   UNL     1      45.299   5.480  10.699  0.00  0.00    +0.000 A 
ATOM     23  F   UNL     1      46.228   5.753   9.768  0.00  0.00    +0.000 F 
BRANCH  16  24
ATOM     24  O   UNL     1      44.270   4.044   9.134  0.00  0.00    +0.000 OA
BRANCH  24  26
ATOM     25  C   UNL     1      44.721   1.702   8.863  0.00  0.00    +0.000 C 
ATOM     26  C   UNL     1      45.307   3.109   8.786  0.00  0.00    +0.000 C 
ATOM     27  C   UNL     1      45.814   3.399   7.377  0.00  0.00    +0.000 C 
ENDBRANCH  24  26
ENDBRANCH  16  24
ENDBRANCH  15  21
ENDBRANCH   1  15
TORSDOF 6
ENDMDL
MODEL 2
REMARK VINA RESULT:    -7.001      1.768      2.544
REMARK INTER + INTRA:         -10.457
REMARK INTER:                  -9.729
REMARK INTRA:                  -0.728
REMARK UNBOUND:                -1.000
REMARK  Name = 
REMARK  8 active torsions:
REMARK  status: ('A' for Active; 'I' for Inactive)
REMARK    1  A    between atoms: C_1  and  C_2
REMARK    2  A    between atoms: C_2  and  C_3
REMARK    3  A    between atoms: C_2  and  O_4
REMARK    4  A    between atoms: O_4  and  C_5
REMARK    5  A    between atoms: C_10  and  C_11
REMARK    6  A    between atoms: C_11  and  O_12
REMARK    7  A    between atoms: O_12  and  C_13
REMARK    8  A    between atoms: C_17  and  C_18
REMARK                            x       y       z     vdW  Elec       q    Type
REMARK                         _______ _______ _______ _____ _____    ______ ____
ROOT
ATOM      1  O   UNL     1      46.202   6.271  12.515  0.00  0.00    +0.000 OA
ENDROOT
BRANCH   1   2
ATOM      2  C   UNL     1      47.443   6.745  12.854  0.00  0.00    +0.000 A 
ATOM      3  C   UNL     1      48.389   7.215  11.945  0.00  0.00    +0.000 A 
ATOM      4  C   UNL     1      49.624   7.667  12.396  0.00  0.00    +0.000 A 
ATOM      5  C   UNL     1      49.901   7.693  13.761  0.00  0.00    +0.000 A 
ATOM      6  C   UNL     1      48.943   7.302  14.707  0.00  0.00    +0.000 A 
ATOM      7  C   UNL     1      47.721   6.791  14.226  0.00  0.00    +0.000 A 
BRANCH   6   8
ATOM      8  C   UNL     1      49.166   7.453  16.215  0.00  0.00    +0.000 C 
ATOM      9  C   UNL     1      50.636   7.790  16.543  0.00  0.00    +0.000 C 
ATOM     10  C   UNL     1      51.543   6.578  16.331  0.00  0.00    +0.000 C 
ATOM     11  C   UNL     1      51.035   5.339  17.069  0.00  0.00    +0.000 C 
ATOM     12  N   UNL     1      49.621   5.057  16.840  0.00  0.00    +0.000 NA
ATOM     13  C   UNL     1      48.770   6.230  17.082  0.00  0.00    +0.000 C 
ATOM     14  H   UNL     1      49.321   4.281  17.426  0.00  0.00    +0.000 HD
ENDBRANCH   6   8
ENDBRANCH   1   2
BRANCH   1  15
ATOM     15  C   UNL     1      45.862   6.412  11.133  0.00  0.00    +0.000 C 
BRANCH  15  21
ATOM     16  C   UNL     1      45.061   3.418   8.880  0.00  0.00    +0.000 A 
ATOM     17  C   UNL     1      44.301   2.640   9.755  0.00  0.00    +0.000 A 
ATOM     18  C   UNL     1      44.010   3.109  11.035  0.00  0.00    +0.000 A 
ATOM     19  F   UNL     1      43.274   2.350  11.852  0.00  0.00    +0.000 F 
ATOM     20  C   UNL     1      44.482   4.337  11.475  0.00  0.00    +0.000 A 
ATOM     21  C   UNL     1      45.265   5.122  10.627  0.00  0.00    +0.000 A 
ATOM     22  C   UNL     1      45.537   4.658   9.331  0.00  0.00    +0.000 A 
ATOM     23  F   UNL     1      46.284   5.416   8.511  0.00  0.00    +0.000 F 
BRANCH  16  24
ATOM     24  O   UNL     1      45.385   3.070   7.591  0.00  0.00    +0.000 OA
BRANCH  24  26
ATOM     25  C   UNL     1      46.741   1.094   7.727  0.00  0.00    +0.000 C 
ATOM     26  C   UNL     1      46.707   2.566   7.327  0.00  0.00    +0.000 C 
ATOM     27  C   UNL     1      47.034   2.725   5.846  0.00  0.00    +0.000 C 
ENDBRANCH  24  26
ENDBRANCH  16  24
ENDBRANCH  15  21
ENDBRANCH   1  15
TORSDOF 6
ENDMDL
MODEL 3
REMARK VINA RESULT:    -6.929      4.214      6.801
REMARK INTER + INTRA:         -10.360
REMARK INTER:                  -9.285
REMARK INTRA:                  -1.074
REMARK UNBOUND:                -1.000
REMARK  Name = 
REMARK  8 active torsions:
REMARK  status: ('A' for Active; 'I' for Inactive)
REMARK    1  A    between atoms: C_1  and  C_2
REMARK    2  A    between atoms: C_2  and  C_3
REMARK    3  A    between atoms: C_2  and  O_4
REMARK    4  A    between atoms: O_4  and  C_5
REMARK    5  A    between atoms: C_10  and  C_11
REMARK    6  A    between atoms: C_11  and  O_12
REMARK    7  A    between atoms: O_12  and  C_13
REMARK    8  A    between atoms: C_17  and  C_18
REMARK                            x       y       z     vdW  Elec       q    Type
REMARK                         _______ _______ _______ _____ _____    ______ ____
ROOT
ATOM      1  O   UNL     1      45.931   8.267  12.996  0.00  0.00    +0.000 OA
ENDROOT
BRANCH   1   2
ATOM      2  C   UNL     1      45.913   9.398  12.221  0.00  0.00    +0.000 A 
ATOM      3  C   UNL     1      47.014  10.219  11.990  0.00  0.00    +0.000 A 
ATOM      4  C   UNL     1      46.885  11.350  11.192  0.00  0.00    +0.000 A 
ATOM      5  C   UNL     1      45.664  11.640  10.586  0.00  0.00    +0.000 A 
ATOM      6  C   UNL     1      44.558  10.792  10.733  0.00  0.00    +0.000 A 
ATOM      7  C   UNL     1      44.694   9.685  11.593  0.00  0.00    +0.000 A 
BRANCH   6   8
ATOM      8  C   UNL     1      43.249  11.006   9.966  0.00  0.00    +0.000 C 
ATOM      9  C   UNL     1      42.816  12.487   9.980  0.00  0.00    +0.000 C 
ATOM     10  C   UNL     1      42.306  12.903  11.359  0.00  0.00    +0.000 C 
ATOM     11  C   UNL     1      41.223  11.959  11.885  0.00  0.00    +0.000 C 
ATOM     12  N   UNL     1      41.582  10.547  11.796  0.00  0.00    +0.000 NA
ATOM     13  C   UNL     1      42.037  10.169  10.451  0.00  0.00    +0.000 C 
ATOM     14  H   UNL     1      40.791   9.969  12.072  0.00  0.00    +0.000 HD
ENDBRANCH   6   8
ENDBRANCH   1   2
BRANCH   1  15
ATOM     15  C   UNL     1      46.499   7.116  12.366  0.00  0.00    +0.000 C 
BRANCH  15  21
ATOM     16  C   UNL     1      44.365   4.607  10.408  0.00  0.00    +0.000 A 
ATOM     17  C   UNL     1      43.472   4.206  11.402  0.00  0.00    +0.000 A 
ATOM     18  C   UNL     1      43.529   4.784  12.669  0.00  0.00    +0.000 A 
ATOM     19  F   UNL     1      42.658   4.390  13.603  0.00  0.00    +0.000 F 
ATOM     20  C   UNL     1      44.481   5.745  12.978  0.00  0.00    +0.000 A 
ATOM     21  C   UNL     1      45.401   6.145  12.008  0.00  0.00    +0.000 A 
ATOM     22  C   UNL     1      45.326   5.578  10.727  0.00  0.00    +0.000 A 
ATOM     23  F   UNL     1      46.207   5.967   9.789  0.00  0.00    +0.000 F 
BRANCH  16  24
ATOM     24  O   UNL     1      44.383   4.127   9.121  0.00  0.00    +0.000 OA
BRANCH  24  26
ATOM     25  C   UNL     1      44.752   1.762   8.945  0.00  0.00    +0.000 C 
ATOM     26  C   UNL     1      45.373   3.145   8.767  0.00  0.00    +0.000 C 
ATOM     27  C   UNL     1      45.812   3.351   7.321  0.00  0.00    +0.000 C 
ENDBRANCH  24  26
ENDBRANCH  16  24
ENDBRANCH  15  21
ENDBRANCH   1  15
TORSDOF 6
ENDMDL
MODEL 4
REMARK VINA RESULT:    -6.733      3.293      7.666
REMARK INTER + INTRA:         -10.095
REMARK INTER:                  -9.308
REMARK INTRA:                  -0.787
REMARK UNBOUND:                -1.000
REMARK  Name = 
REMARK  8 active torsions:
REMARK  status: ('A' for Active; 'I' for Inactive)
REMARK    1  A    between atoms: C_1  and  C_2
REMARK    2  A    between atoms: C_2  and  C_3
REMARK    3  A    between atoms: C_2  and  O_4
REMARK    4  A    between atoms: O_4  and  C_5
REMARK    5  A    between atoms: C_10  and  C_11
REMARK    6  A    between atoms: C_11  and  O_12
REMARK    7  A    between atoms: O_12  and  C_13
REMARK    8  A    between atoms: C_17  and  C_18
REMARK                            x       y       z     vdW  Elec       q    Type
REMARK                         _______ _______ _______ _____ _____    ______ ____
ROOT
ATOM      1  O   UNL     1      48.315   5.860  14.150  0.00  0.00    +0.000 OA
ENDROOT
BRANCH   1   2
ATOM      2  C   UNL     1      47.208   6.343  13.501  0.00  0.00    +0.000 A 
ATOM      3  C   UNL     1      47.107   7.617  12.946  0.00  0.00    +0.000 A 
ATOM      4  C   UNL     1      45.933   8.011  12.315  0.00  0.00    +0.000 A 
ATOM      5  C   UNL     1      44.871   7.117  12.196  0.00  0.00    +0.000 A 
ATOM      6  C   UNL     1      44.969   5.802  12.672  0.00  0.00    +0.000 A 
ATOM      7  C   UNL     1      46.144   5.443  13.362  0.00  0.00    +0.000 A 
BRANCH   6   8
ATOM      8  C   UNL     1      43.876   4.755  12.431  0.00  0.00    +0.000 C 
ATOM      9  C   UNL     1      44.475   3.362  12.143  0.00  0.00    +0.000 C 
ATOM     10  C   UNL     1      45.109   3.308  10.753  0.00  0.00    +0.000 C 
ATOM     11  C   UNL     1      44.151   3.784   9.660  0.00  0.00    +0.000 C 
ATOM     12  N   UNL     1      43.506   5.060   9.959  0.00  0.00    +0.000 NA
ATOM     13  C   UNL     1      42.878   5.072  11.288  0.00  0.00    +0.000 C 
ATOM     14  H   UNL     1      42.815   5.277   9.244  0.00  0.00    +0.000 HD
ENDBRANCH   6   8
ENDBRANCH   1   2
BRANCH   1  15
ATOM     15  C   UNL     1      48.450   6.290  15.507  0.00  0.00    +0.000 C 
BRANCH  15  21
ATOM     16  C   UNL     1      49.909   3.753  17.981  0.00  0.00    +0.000 A 
ATOM     17  C   UNL     1      48.790   2.953  18.211  0.00  0.00    +0.000 A 
ATOM     18  C   UNL     1      47.599   3.202  17.530  0.00  0.00    +0.000 A 
ATOM     19  F   UNL     1      46.543   2.417  17.761  0.00  0.00    +0.000 F 
ATOM     20  C   UNL     1      47.492   4.255  16.634  0.00  0.00    +0.000 A 
ATOM     21  C   UNL     1      48.590   5.085  16.405  0.00  0.00    +0.000 A 
ATOM     22  C   UNL     1      49.794   4.818  17.074  0.00  0.00    +0.000 A 
ATOM     23  F   UNL     1      50.855   5.611  16.849  0.00  0.00    +0.000 F 
BRANCH  16  24
ATOM     24  O   UNL     1      51.138   3.584  18.573  0.00  0.00    +0.000 OA
BRANCH  24  26
ATOM     25  C   UNL     1      53.400   2.800  18.731  0.00  0.00    +0.000 C 
ATOM     26  C   UNL     1      52.163   2.887  17.842  0.00  0.00    +0.000 C 
ATOM     27  C   UNL     1      51.674   1.492  17.468  0.00  0.00    +0.000 C 
ENDBRANCH  24  26
ENDBRANCH  16  24
ENDBRANCH  15  21
ENDBRANCH   1  15
TORSDOF 6
ENDMDL
MODEL 5
REMARK VINA RESULT:    -6.711      3.510      8.192
REMARK INTER + INTRA:         -10.066
REMARK INTER:                  -9.084
REMARK INTRA:                  -0.982
REMARK UNBOUND:                -1.000
REMARK  Name = 
REMARK  8 active torsions:
REMARK  status: ('A' for Active; 'I' for Inactive)
REMARK    1  A    between atoms: C_1  and  C_2
REMARK    2  A    between atoms: C_2  and  C_3
REMARK    3  A    between atoms: C_2  and  O_4
REMARK    4  A    between atoms: O_4  and  C_5
REMARK    5  A    between atoms: C_10  and  C_11
REMARK    6  A    between atoms: C_11  and  O_12
REMARK    7  A    between atoms: O_12  and  C_13
REMARK    8  A    between atoms: C_17  and  C_18
REMARK                            x       y       z     vdW  Elec       q    Type
REMARK                         _______ _______ _______ _____ _____    ______ ____
ROOT
ATOM      1  O   UNL     1      48.250   5.719  14.288  0.00  0.00    +0.000 OA
ENDROOT
BRANCH   1   2
ATOM      2  C   UNL     1      47.231   6.290  13.571  0.00  0.00    +0.000 A 
ATOM      3  C   UNL     1      47.316   7.511  12.905  0.00  0.00    +0.000 A 
ATOM      4  C   UNL     1      46.216   8.005  12.212  0.00  0.00    +0.000 A 
ATOM      5  C   UNL     1      45.042   7.258  12.144  0.00  0.00    +0.000 A 
ATOM      6  C   UNL     1      44.949   5.990  12.735  0.00  0.00    +0.000 A 
ATOM      7  C   UNL     1      46.054   5.536  13.483  0.00  0.00    +0.000 A 
BRANCH   6   8
ATOM      8  C   UNL     1      43.725   5.086  12.557  0.00  0.00    +0.000 C 
ATOM      9  C   UNL     1      44.124   3.598  12.464  0.00  0.00    +0.000 C 
ATOM     10  C   UNL     1      44.794   3.286  11.127  0.00  0.00    +0.000 C 
ATOM     11  C   UNL     1      43.956   3.756   9.936  0.00  0.00    +0.000 C 
ATOM     12  N   UNL     1      43.495   5.136  10.051  0.00  0.00    +0.000 NA
ATOM     13  C   UNL     1      42.826   5.398  11.333  0.00  0.00    +0.000 C 
ATOM     14  H   UNL     1      42.869   5.360   9.279  0.00  0.00    +0.000 HD
ENDBRANCH   6   8
ENDBRANCH   1   2
BRANCH   1  15
ATOM     15  C   UNL     1      48.551   6.368  15.525  0.00  0.00    +0.000 C 
BRANCH  15  21
ATOM     16  C   UNL     1      49.507   4.576  18.775  0.00  0.00    +0.000 A 
ATOM     17  C   UNL     1      48.573   3.539  18.775  0.00  0.00    +0.000 A 
ATOM     18  C   UNL     1      47.687   3.395  17.709  0.00  0.00    +0.000 A 
ATOM     19  F   UNL     1      46.807   2.390  17.728  0.00  0.00    +0.000 F 
ATOM     20  C   UNL     1      47.695   4.284  16.644  0.00  0.00    +0.000 A 
ATOM     21  C   UNL     1      48.602   5.344  16.632  0.00  0.00    +0.000 A 
ATOM     22  C   UNL     1      49.509   5.472  17.695  0.00  0.00    +0.000 A 
ATOM     23  F   UNL     1      50.389   6.488  17.682  0.00  0.00    +0.000 F 
BRANCH  16  24
ATOM     24  O   UNL     1      50.443   4.798  19.756  0.00  0.00    +0.000 OA
BRANCH  24  26
ATOM     25  C   UNL     1      51.178   4.879  22.039  0.00  0.00    +0.000 C 
ATOM     26  C   UNL     1      49.988   5.042  21.099  0.00  0.00    +0.000 C 
ATOM     27  C   UNL     1      49.414   6.451  21.202  0.00  0.00    +0.000 C 
ENDBRANCH  24  26
ENDBRANCH  16  24
ENDBRANCH  15  21
ENDBRANCH   1  15
TORSDOF 6
ENDMDL
MODEL 6
REMARK VINA RESULT:    -6.567      3.715      8.270
REMARK INTER + INTRA:          -9.870
REMARK INTER:                  -8.911
REMARK INTRA:                  -0.959
REMARK UNBOUND:                -1.000
REMARK  Name = 
REMARK  8 active torsions:
REMARK  status: ('A' for Active; 'I' for Inactive)
REMARK    1  A    between atoms: C_1  and  C_2
REMARK    2  A    between atoms: C_2  and  C_3
REMARK    3  A    between atoms: C_2  and  O_4
REMARK    4  A    between atoms: O_4  and  C_5
REMARK    5  A    between atoms: C_10  and  C_11
REMARK    6  A    between atoms: C_11  and  O_12
REMARK    7  A    between atoms: O_12  and  C_13
REMARK    8  A    between atoms: C_17  and  C_18
REMARK                            x       y       z     vdW  Elec       q    Type
REMARK                         _______ _______ _______ _____ _____    ______ ____
ROOT
ATOM      1  O   UNL     1      47.371   3.407  14.889  0.00  0.00    +0.000 OA
ENDROOT
BRANCH   1   2
ATOM      2  C   UNL     1      46.795   4.435  14.188  0.00  0.00    +0.000 A 
ATOM      3  C   UNL     1      47.396   5.669  13.951  0.00  0.00    +0.000 A 
ATOM      4  C   UNL     1      46.719   6.648  13.233  0.00  0.00    +0.000 A 
ATOM      5  C   UNL     1      45.455   6.381  12.711  0.00  0.00    +0.000 A 
ATOM      6  C   UNL     1      44.854   5.123  12.864  0.00  0.00    +0.000 A 
ATOM      7  C   UNL     1      45.531   4.167  13.645  0.00  0.00    +0.000 A 
BRANCH   6   8
ATOM      8  C   UNL     1      43.532   4.754  12.183  0.00  0.00    +0.000 C 
ATOM      9  C   UNL     1      43.435   3.238  11.910  0.00  0.00    +0.000 C 
ATOM     10  C   UNL     1      44.365   2.819  10.772  0.00  0.00    +0.000 C 
ATOM     11  C   UNL     1      44.161   3.667   9.515  0.00  0.00    +0.000 C 
ATOM     12  N   UNL     1      44.160   5.105   9.771  0.00  0.00    +0.000 NA
ATOM     13  C   UNL     1      43.233   5.482  10.847  0.00  0.00    +0.000 C 
ATOM     14  H   UNL     1      43.929   5.610   8.918  0.00  0.00    +0.000 HD
ENDBRANCH   6   8
ENDBRANCH   1   2
BRANCH   1  15
ATOM     15  C   UNL     1      47.405   3.592  16.306  0.00  0.00    +0.000 C 
BRANCH  15  21
ATOM     16  C   UNL     1      50.787   4.532  17.843  0.00  0.00    +0.000 A 
ATOM     17  C   UNL     1      51.412   3.284  17.859  0.00  0.00    +0.000 A 
ATOM     18  C   UNL     1      50.765   2.170  17.328  0.00  0.00    +0.000 A 
ATOM     19  F   UNL     1      51.386   0.988  17.347  0.00  0.00    +0.000 F 
ATOM     20  C   UNL     1      49.487   2.267  16.797  0.00  0.00    +0.000 A 
ATOM     21  C   UNL     1      48.830   3.499  16.792  0.00  0.00    +0.000 A 
ATOM     22  C   UNL     1      49.494   4.623  17.306  0.00  0.00    +0.000 A 
ATOM     23  F   UNL     1      48.867   5.812  17.295  0.00  0.00    +0.000 F 
BRANCH  16  24
ATOM     24  O   UNL     1      51.339   5.699  18.312  0.00  0.00    +0.000 OA
BRANCH  24  26
ATOM     25  C   UNL     1      52.277   6.601  16.296  0.00  0.00    +0.000 C 
ATOM     26  C   UNL     1      52.569   6.162  17.727  0.00  0.00    +0.000 C 
ATOM     27  C   UNL     1      53.122   7.327  18.541  0.00  0.00    +0.000 C 
ENDBRANCH  24  26
ENDBRANCH  16  24
ENDBRANCH  15  21
ENDBRANCH   1  15
TORSDOF 6
ENDMDL
MODEL 7
REMARK VINA RESULT:    -6.490      2.303      3.664
REMARK INTER + INTRA:          -9.767
REMARK INTER:                  -9.200
REMARK INTRA:                  -0.567
REMARK UNBOUND:                -1.000
REMARK  Name = 
REMARK  8 active torsions:
REMARK  status: ('A' for Active; 'I' for Inactive)
REMARK    1  A    between atoms: C_1  and  C_2
REMARK    2  A    between atoms: C_2  and  C_3
REMARK    3  A    between atoms: C_2  and  O_4
REMARK    4  A    between atoms: O_4  and  C_5
REMARK    5  A    between atoms: C_10  and  C_11
REMARK    6  A    between atoms: C_11  and  O_12
REMARK    7  A    between atoms: O_12  and  C_13
REMARK    8  A    between atoms: C_17  and  C_18
REMARK                            x       y       z     vdW  Elec       q    Type
REMARK                         _______ _______ _______ _____ _____    ______ ____
ROOT
ATOM      1  O   UNL     1      46.520   3.884  15.364  0.00  0.00    +0.000 OA
ENDROOT
BRANCH   1   2
ATOM      2  C   UNL     1      47.375   4.048  16.423  0.00  0.00    +0.000 A 
ATOM      3  C   UNL     1      47.611   3.090  17.407  0.00  0.00    +0.000 A 
ATOM      4  C   UNL     1      48.495   3.362  18.446  0.00  0.00    +0.000 A 
ATOM      5  C   UNL     1      49.179   4.575  18.480  0.00  0.00    +0.000 A 
ATOM      6  C   UNL     1      49.025   5.528  17.463  0.00  0.00    +0.000 A 
ATOM      7  C   UNL     1      48.080   5.258  16.453  0.00  0.00    +0.000 A 
BRANCH   6   8
ATOM      8  C   UNL     1      49.867   6.806  17.397  0.00  0.00    +0.000 C 
ATOM      9  C   UNL     1      50.099   7.409  18.799  0.00  0.00    +0.000 C 
ATOM     10  C   UNL     1      48.821   8.044  19.348  0.00  0.00    +0.000 C 
ATOM     11  C   UNL     1      48.201   9.038  18.365  0.00  0.00    +0.000 C 
ATOM     12  N   UNL     1      48.057   8.513  17.010  0.00  0.00    +0.000 NA
ATOM     13  C   UNL     1      49.309   7.938  16.497  0.00  0.00    +0.000 C 
ATOM     14  H   UNL     1      47.728   9.246  16.385  0.00  0.00    +0.000 HD
ENDBRANCH   6   8
ENDBRANCH   1   2
BRANCH   1  15
ATOM     15  C   UNL     1      47.137   3.964  14.077  0.00  0.00    +0.000 C 
BRANCH  15  21
ATOM     16  C   UNL     1      44.535   4.791  11.387  0.00  0.00    +0.000 A 
ATOM     17  C   UNL     1      44.461   6.177  11.526  0.00  0.00    +0.000 A 
ATOM     18  C   UNL     1      45.283   6.834  12.439  0.00  0.00    +0.000 A 
ATOM     19  F   UNL     1      45.200   8.163  12.549  0.00  0.00    +0.000 F 
ATOM     20  C   UNL     1      46.170   6.132  13.242  0.00  0.00    +0.000 A 
ATOM     21  C   UNL     1      46.246   4.742  13.139  0.00  0.00    +0.000 A 
ATOM     22  C   UNL     1      45.433   4.086  12.203  0.00  0.00    +0.000 A 
ATOM     23  F   UNL     1      45.509   2.748  12.097  0.00  0.00    +0.000 F 
BRANCH  16  24
ATOM     24  O   UNL     1      43.795   4.044  10.504  0.00  0.00    +0.000 OA
BRANCH  24  26
ATOM     25  C   UNL     1      45.545   4.716   9.006  0.00  0.00    +0.000 C 
ATOM     26  C   UNL     1      44.314   3.831   9.179  0.00  0.00    +0.000 C 
ATOM     27  C   UNL     1      44.682   2.362   8.997  0.00  0.00    +0.000 C 
ENDBRANCH  24  26
ENDBRANCH  16  24
ENDBRANCH  15  21
ENDBRANCH   1  15
TORSDOF 6
ENDMDL
MODEL 8
REMARK VINA RESULT:    -6.116      2.076      2.793
REMARK INTER + INTRA:          -9.261
REMARK INTER:                  -8.291
REMARK INTRA:                  -0.970
REMARK UNBOUND:                -1.000
REMARK  Name = 
REMARK  8 active torsions:
REMARK  status: ('A' for Active; 'I' for Inactive)
REMARK    1  A    between atoms: C_1  and  C_2
REMARK    2  A    between atoms: C_2  and  C_3
REMARK    3  A    between atoms: C_2  and  O_4
REMARK    4  A    between atoms: O_4  and  C_5
REMARK    5  A    between atoms: C_10  and  C_11
REMARK    6  A    between atoms: C_11  and  O_12
REMARK    7  A    between atoms: O_12  and  C_13
REMARK    8  A    between atoms: C_17  and  C_18
REMARK                            x       y       z     vdW  Elec       q    Type
REMARK                         _______ _______ _______ _____ _____    ______ ____
ROOT
ATOM      1  O   UNL     1      49.139   7.939  14.090  0.00  0.00    +0.000 OA
ENDROOT
BRANCH   1   2
ATOM      2  C   UNL     1      49.767   7.280  15.115  0.00  0.00    +0.000 A 
ATOM      3  C   UNL     1      51.080   7.509  15.519  0.00  0.00    +0.000 A 
ATOM      4  C   UNL     1      51.625   6.777  16.568  0.00  0.00    +0.000 A 
ATOM      5  C   UNL     1      50.843   5.845  17.247  0.00  0.00    +0.000 A 
ATOM      6  C   UNL     1      49.495   5.646  16.918  0.00  0.00    +0.000 A 
ATOM      7  C   UNL     1      48.981   6.354  15.814  0.00  0.00    +0.000 A 
BRANCH   6   8
ATOM      8  C   UNL     1      48.574   4.735  17.735  0.00  0.00    +0.000 C 
ATOM      9  C   UNL     1      49.347   3.553  18.358  0.00  0.00    +0.000 C 
ATOM     10  C   UNL     1      49.745   2.529  17.295  0.00  0.00    +0.000 C 
ATOM     11  C   UNL     1      48.552   2.082  16.448  0.00  0.00    +0.000 C 
ATOM     12  N   UNL     1      47.757   3.189  15.924  0.00  0.00    +0.000 NA
ATOM     13  C   UNL     1      47.362   4.140  16.973  0.00  0.00    +0.000 C 
ATOM     14  H   UNL     1      46.930   2.830  15.450  0.00  0.00    +0.000 HD
ENDBRANCH   6   8
ENDBRANCH   1   2
BRANCH   1  15
ATOM     15  C   UNL     1      48.941   7.161  12.908  0.00  0.00    +0.000 C 
BRANCH  15  21
ATOM     16  C   UNL     1      45.337   5.898  12.598  0.00  0.00    +0.000 A 
ATOM     17  C   UNL     1      44.702   7.057  12.148  0.00  0.00    +0.000 A 
ATOM     18  C   UNL     1      45.444   8.210  11.897  0.00  0.00    +0.000 A 
ATOM     19  F   UNL     1      44.815   9.304  11.459  0.00  0.00    +0.000 F 
ATOM     20  C   UNL     1      46.814   8.241  12.109  0.00  0.00    +0.000 A 
ATOM     21  C   UNL     1      47.469   7.103  12.582  0.00  0.00    +0.000 A 
ATOM     22  C   UNL     1      46.723   5.937  12.811  0.00  0.00    +0.000 A 
ATOM     23  F   UNL     1      47.352   4.838  13.260  0.00  0.00    +0.000 F 
BRANCH  16  24
ATOM     24  O   UNL     1      44.712   4.701  12.850  0.00  0.00    +0.000 OA
BRANCH  24  26
ATOM     25  C   UNL     1      43.572   2.732  12.089  0.00  0.00    +0.000 C 
ATOM     26  C   UNL     1      44.735   3.685  11.832  0.00  0.00    +0.000 C 
ATOM     27  C   UNL     1      44.604   4.329  10.456  0.00  0.00    +0.000 C 
ENDBRANCH  24  26
ENDBRANCH  16  24
ENDBRANCH  15  21
ENDBRANCH   1  15
TORSDOF 6
ENDMDL
MODEL 9
REMARK VINA RESULT:    -6.090      3.549      7.748
REMARK INTER + INTRA:          -9.226
REMARK INTER:                  -8.197
REMARK INTRA:                  -1.029
REMARK UNBOUND:                -1.000
REMARK  Name = 
REMARK  8 active torsions:
REMARK  status: ('A' for Active; 'I' for Inactive)
REMARK    1  A    between atoms: C_1  and  C_2
REMARK    2  A    between atoms: C_2  and  C_3
REMARK    3  A    between atoms: C_2  and  O_4
REMARK    4  A    between atoms: O_4  and  C_5
REMARK    5  A    between atoms: C_10  and  C_11
REMARK    6  A    between atoms: C_11  and  O_12
REMARK    7  A    between atoms: O_12  and  C_13
REMARK    8  A    between atoms: C_17  and  C_18
REMARK                            x       y       z     vdW  Elec       q    Type
REMARK                         _______ _______ _______ _____ _____    ______ ____
ROOT
ATOM      1  O   UNL     1      48.708   6.375  13.714  0.00  0.00    +0.000 OA
ENDROOT
BRANCH   1   2
ATOM      2  C   UNL     1      47.523   6.783  13.159  0.00  0.00    +0.000 A 
ATOM      3  C   UNL     1      47.342   7.975  12.462  0.00  0.00    +0.000 A 
ATOM      4  C   UNL     1      46.092   8.298  11.945  0.00  0.00    +0.000 A 
ATOM      5  C   UNL     1      45.029   7.408  12.085  0.00  0.00    +0.000 A 
ATOM      6  C   UNL     1      45.196   6.165  12.711  0.00  0.00    +0.000 A 
ATOM      7  C   UNL     1      46.455   5.885  13.280  0.00  0.00    +0.000 A 
BRANCH   6   8
ATOM      8  C   UNL     1      44.088   5.109  12.754  0.00  0.00    +0.000 C 
ATOM      9  C   UNL     1      44.631   3.698  12.442  0.00  0.00    +0.000 C 
ATOM     10  C   UNL     1      44.982   3.554  10.961  0.00  0.00    +0.000 C 
ATOM     11  C   UNL     1      43.824   3.964  10.049  0.00  0.00    +0.000 C 
ATOM     12  N   UNL     1      43.239   5.258  10.388  0.00  0.00    +0.000 NA
ATOM     13  C   UNL     1      42.882   5.355  11.811  0.00  0.00    +0.000 C 
ATOM     14  H   UNL     1      42.419   5.432   9.810  0.00  0.00    +0.000 HD
ENDBRANCH   6   8
ENDBRANCH   1   2
BRANCH   1  15
ATOM     15  C   UNL     1      49.526   7.429  14.227  0.00  0.00    +0.000 C 
BRANCH  15  21
ATOM     16  C   UNL     1      48.935   7.321  18.011  0.00  0.00    +0.000 A 
ATOM     17  C   UNL     1      48.352   8.574  18.211  0.00  0.00    +0.000 A 
ATOM     18  C   UNL     1      48.105   9.412  17.126  0.00  0.00    +0.000 A 
ATOM     19  F   UNL     1      47.539  10.603  17.340  0.00  0.00    +0.000 F 
ATOM     20  C   UNL     1      48.451   9.037  15.835  0.00  0.00    +0.000 A 
ATOM     21  C   UNL     1      49.058   7.801  15.612  0.00  0.00    +0.000 A 
ATOM     22  C   UNL     1      49.284   6.949  16.704  0.00  0.00    +0.000 A 
ATOM     23  F   UNL     1      49.862   5.754  16.491  0.00  0.00    +0.000 F 
BRANCH  16  24
ATOM     24  O   UNL     1      49.198   6.405  19.000  0.00  0.00    +0.000 OA
BRANCH  24  26
ATOM     25  C   UNL     1      48.800   4.204  19.871  0.00  0.00    +0.000 C 
ATOM     26  C   UNL     1      48.151   5.501  19.397  0.00  0.00    +0.000 C 
ATOM     27  C   UNL     1      47.325   6.126  20.516  0.00  0.00    +0.000 C 
ENDBRANCH  24  26
ENDBRANCH  16  24
ENDBRANCH  15  21
ENDBRANCH   1  15
TORSDOF 6
ENDMDL
