MODEL 1
REMARK VINA RESULT:    -8.571      0.000      0.000
REMARK INTER + INTRA:         -13.066
REMARK INTER:                 -12.079
REMARK INTRA:                  -0.987
REMARK UNBOUND:                -0.987
REMARK  Name = 
REMARK  7 active torsions:
REMARK  status: ('A' for Active; 'I' for Inactive)
REMARK    1  A    between atoms: C_2  and  C_4
REMARK    2  A    between atoms: C_7  and  O_8
REMARK    3  A    between atoms: O_8  and  C_9
REMARK    4  A    between atoms: C_9  and  C_10
REMARK    5  A    between atoms: C_10  and  C_11
REMARK    6  A    between atoms: C_13  and  O_14
REMARK    7  A    between atoms: O_14  and  C_15
REMARK                            x       y       z     vdW  Elec       q    Type
REMARK                         _______ _______ _______ _____ _____    ______ ____
ROOT
ATOM      1  C   UNL     1      43.355   5.158  12.392  0.00  0.00    +0.000 C 
ENDROOT
BRANCH   1   2
ATOM      2  C   UNL     1      44.803   5.313  12.795  0.00  0.00    +0.000 A 
ATOM      3  C   UNL     1      45.405   4.283  13.548  0.00  0.00    +0.000 A 
ATOM      4  C   UNL     1      46.725   4.399  13.984  0.00  0.00    +0.000 A 
ATOM      5  C   UNL     1      47.470   5.527  13.648  0.00  0.00    +0.000 A 
ATOM      6  C   UNL     1      46.888   6.558  12.909  0.00  0.00    +0.000 A 
ATOM      7  C   UNL     1      45.559   6.457  12.496  0.00  0.00    +0.000 A 
ATOM      8 CL   UNL     1      44.891   7.792  11.622  0.00  0.00    +0.000 Cl
BRANCH   4   9
ATOM      9  O   UNL     1      47.382   3.449  14.723  0.00  0.00    +0.000 OA
BRANCH   9  10
ATOM     10  C   UNL     1      47.933   3.833  16.006  0.00  0.00    +0.000 C 
ATOM     11  C   UNL     1      48.483   2.716  16.917  0.00  0.00    +0.000 C 
ATOM     12  N   UNL     1      47.655   3.195  18.033  0.00  0.00    +0.000 NA
ATOM     13  C   UNL     1      46.896   4.065  17.122  0.00  0.00    +0.000 C 
ATOM     14  H   UNL     1      48.172   3.697  18.754  0.00  0.00    +0.000 HD
ENDBRANCH   9  10
ENDBRANCH   4   9
ENDBRANCH   1   2
BRANCH   1  15
ATOM     15  C   UNL     1      43.182   4.094  11.308  0.00  0.00    +0.000 C 
BRANCH  15  16
ATOM     16  O   UNL     1      43.666   4.621  10.070  0.00  0.00    +0.000 OA
BRANCH  16  20
ATOM     17  C   UNL     1      46.380   2.435   7.773  0.00  0.00    +0.000 A 
ATOM     18  C   UNL     1      45.570   1.746   8.683  0.00  0.00    +0.000 A 
ATOM     19  C   UNL     1      44.644   2.443   9.470  0.00  0.00    +0.000 A 
ATOM     20  C   UNL     1      44.525   3.830   9.359  0.00  0.00    +0.000 A 
ATOM     21  C   UNL     1      45.345   4.515   8.457  0.00  0.00    +0.000 A 
ATOM     22  C   UNL     1      46.273   3.826   7.672  0.00  0.00    +0.000 A 
BRANCH  17  24
ATOM     23  N   UNL     1      48.455   2.456   6.496  0.00  0.00    +0.000 N 
ATOM     24  C   UNL     1      47.377   1.733   6.924  0.00  0.00    +0.000 C 
ATOM     25  O   UNL     1      47.261   0.547   6.646  0.00  0.00    +0.000 OA
ATOM     26  H   UNL     1      49.177   1.935   6.015  0.00  0.00    +0.000 HD
ATOM     27  H   UNL     1      48.717   3.334   6.919  0.00  0.00    +0.000 HD
ENDBRANCH  17  24
ENDBRANCH  16  20
ENDBRANCH  15  16
ENDBRANCH   1  15
TORSDOF 7
ENDMDL
MODEL 2
REMARK VINA RESULT:    -7.596      3.326      4.669
REMARK INTER + INTRA:         -11.692
REMARK INTER:                 -10.702
REMARK INTRA:                  -0.990
REMARK UNBOUND:                -0.987
REMARK  Name = 
REMARK  7 active torsions:
REMARK  status: ('A' for Active; 'I' for Inactive)
REMARK    1  A    between atoms: C_2  and  C_4
REMARK    2  A    between atoms: C_7  and  O_8
REMARK    3  A    between atoms: O_8  and  C_9
REMARK    4  A    between atoms: C_9  and  C_10
REMARK    5  A    between atoms: C_10  and  C_11
REMARK    6  A    between atoms: C_13  and  O_14
REMARK    7  A    between atoms: O_14  and  C_15
REMARK                            x       y       z     vdW  Elec       q    Type
REMARK                         _______ _______ _______ _____ _____    ______ ____
ROOT
ATOM      1  C   UNL     1      43.740   4.814  12.447  0.00  0.00    +0.000 C 
ENDROOT
BRANCH   1   2
ATOM      2  C   UNL     1      44.986   5.669  12.438  0.00  0.00    +0.000 A 
ATOM      3  C   UNL     1      44.884   7.002  11.988  0.00  0.00    +0.000 A 
ATOM      4  C   UNL     1      46.014   7.818  11.917  0.00  0.00    +0.000 A 
ATOM      5  C   UNL     1      47.251   7.326  12.325  0.00  0.00    +0.000 A 
ATOM      6  C   UNL     1      47.371   6.008  12.768  0.00  0.00    +0.000 A 
ATOM      7  C   UNL     1      46.248   5.181  12.812  0.00  0.00    +0.000 A 
ATOM      8 CL   UNL     1      46.479   3.547  13.329  0.00  0.00    +0.000 Cl
BRANCH   4   9
ATOM      9  O   UNL     1      46.002   9.119  11.486  0.00  0.00    +0.000 OA
BRANCH   9  10
ATOM     10  C   UNL     1      45.060  10.038  12.089  0.00  0.00    +0.000 C 
ATOM     11  C   UNL     1      43.743  10.317  11.337  0.00  0.00    +0.000 C 
ATOM     12  N   UNL     1      43.980  11.765  11.424  0.00  0.00    +0.000 NA
ATOM     13  C   UNL     1      45.365  11.532  11.864  0.00  0.00    +0.000 C 
ATOM     14  H   UNL     1      43.401  12.245  12.112  0.00  0.00    +0.000 HD
ENDBRANCH   9  10
ENDBRANCH   4   9
ENDBRANCH   1   2
BRANCH   1  15
ATOM     15  C   UNL     1      43.164   4.641  11.041  0.00  0.00    +0.000 C 
BRANCH  15  16
ATOM     16  O   UNL     1      43.461   3.318  10.587  0.00  0.00    +0.000 OA
BRANCH  16  20
ATOM     17  C   UNL     1      46.375   2.690   7.666  0.00  0.00    +0.000 A 
ATOM     18  C   UNL     1      45.930   3.997   7.893  0.00  0.00    +0.000 A 
ATOM     19  C   UNL     1      44.956   4.250   8.867  0.00  0.00    +0.000 A 
ATOM     20  C   UNL     1      44.416   3.202   9.614  0.00  0.00    +0.000 A 
ATOM     21  C   UNL     1      44.855   1.896   9.376  0.00  0.00    +0.000 A 
ATOM     22  C   UNL     1      45.825   1.637   8.404  0.00  0.00    +0.000 A 
BRANCH  17  24
ATOM     23  N   UNL     1      47.474   3.206   5.554  0.00  0.00    +0.000 N 
ATOM     24  C   UNL     1      47.404   2.380   6.640  0.00  0.00    +0.000 C 
ATOM     25  O   UNL     1      48.183   1.445   6.774  0.00  0.00    +0.000 OA
ATOM     26  H   UNL     1      48.251   3.047   4.924  0.00  0.00    +0.000 HD
ATOM     27  H   UNL     1      47.045   4.119   5.543  0.00  0.00    +0.000 HD
ENDBRANCH  17  24
ENDBRANCH  16  20
ENDBRANCH  15  16
ENDBRANCH   1  15
TORSDOF 7
ENDMDL
MODEL 3
REMARK VINA RESULT:    -7.331      3.166      4.339
REMARK INTER + INTRA:         -11.317
REMARK INTER:                 -10.199
REMARK INTRA:                  -1.118
REMARK UNBOUND:                -0.987
REMARK  Name = 
REMARK  7 active torsions:
REMARK  status: ('A' for Active; 'I' for Inactive)
REMARK    1  A    between atoms: C_2  and  C_4
REMARK    2  A    between atoms: C_7  and  O_8
REMARK    3  A    between atoms: O_8  and  C_9
REMARK    4  A    between atoms: C_9  and  C_10
REMARK    5  A    between atoms: C_10  and  C_11
REMARK    6  A    between atoms: C_13  and  O_14
REMARK    7  A    between atoms: O_14  and  C_15
REMARK                            x       y       z     vdW  Elec       q    Type
REMARK                         _______ _______ _______ _____ _____    ______ ____
ROOT
ATOM      1  C   UNL     1      43.731   5.478  12.405  0.00  0.00    +0.000 C 
ENDROOT
BRANCH   1   2
ATOM      2  C   UNL     1      45.132   6.034  12.508  0.00  0.00    +0.000 A 
ATOM      3  C   UNL     1      45.329   7.410  12.271  0.00  0.00    +0.000 A 
ATOM      4  C   UNL     1      46.609   7.963  12.310  0.00  0.00    +0.000 A 
ATOM      5  C   UNL     1      47.703   7.159  12.618  0.00  0.00    +0.000 A 
ATOM      6  C   UNL     1      47.527   5.794  12.850  0.00  0.00    +0.000 A 
ATOM      7  C   UNL     1      46.251   5.232  12.784  0.00  0.00    +0.000 A 
ATOM      8 CL   UNL     1      46.114   3.528  13.039  0.00  0.00    +0.000 Cl
BRANCH   4   9
ATOM      9  O   UNL     1      46.887   9.287  12.085  0.00  0.00    +0.000 OA
BRANCH   9  10
ATOM     10  C   UNL     1      48.196   9.788  12.447  0.00  0.00    +0.000 C 
ATOM     11  C   UNL     1      48.302  11.254  12.916  0.00  0.00    +0.000 C 
ATOM     12  N   UNL     1      49.362  11.510  11.930  0.00  0.00    +0.000 NA
ATOM     13  C   UNL     1      49.079  10.230  11.263  0.00  0.00    +0.000 C 
ATOM     14  H   UNL     1      50.298  11.575  12.327  0.00  0.00    +0.000 HD
ENDBRANCH   9  10
ENDBRANCH   4   9
ENDBRANCH   1   2
BRANCH   1  15
ATOM     15  C   UNL     1      43.349   5.175  10.955  0.00  0.00    +0.000 C 
BRANCH  15  16
ATOM     16  O   UNL     1      43.649   3.805  10.682  0.00  0.00    +0.000 OA
BRANCH  16  20
ATOM     17  C   UNL     1      46.371   2.789   7.685  0.00  0.00    +0.000 A 
ATOM     18  C   UNL     1      46.129   4.144   7.933  0.00  0.00    +0.000 A 
ATOM     19  C   UNL     1      45.225   4.527   8.933  0.00  0.00    +0.000 A 
ATOM     20  C   UNL     1      44.554   3.561   9.685  0.00  0.00    +0.000 A 
ATOM     21  C   UNL     1      44.790   2.207   9.426  0.00  0.00    +0.000 A 
ATOM     22  C   UNL     1      45.689   1.820   8.428  0.00  0.00    +0.000 A 
BRANCH  17  24
ATOM     23  N   UNL     1      47.289   3.009   5.439  0.00  0.00    +0.000 N 
ATOM     24  C   UNL     1      47.319   2.342   6.631  0.00  0.00    +0.000 C 
ATOM     25  O   UNL     1      48.120   1.439   6.830  0.00  0.00    +0.000 OA
ATOM     26  H   UNL     1      48.015   2.767   4.776  0.00  0.00    +0.000 HD
ATOM     27  H   UNL     1      46.845   3.910   5.337  0.00  0.00    +0.000 HD
ENDBRANCH  17  24
ENDBRANCH  16  20
ENDBRANCH  15  16
ENDBRANCH   1  15
TORSDOF 7
ENDMDL
MODEL 4
REMARK VINA RESULT:    -7.298      2.005      7.899
REMARK INTER + INTRA:         -11.271
REMARK INTER:                 -10.470
REMARK INTRA:                  -0.801
REMARK UNBOUND:                -0.987
REMARK  Name = 
REMARK  7 active torsions:
REMARK  status: ('A' for Active; 'I' for Inactive)
REMARK    1  A    between atoms: C_2  and  C_4
REMARK    2  A    between atoms: C_7  and  O_8
REMARK    3  A    between atoms: O_8  and  C_9
REMARK    4  A    between atoms: C_9  and  C_10
REMARK    5  A    between atoms: C_10  and  C_11
REMARK    6  A    between atoms: C_13  and  O_14
REMARK    7  A    between atoms: O_14  and  C_15
REMARK                            x       y       z     vdW  Elec       q    Type
REMARK                         _______ _______ _______ _____ _____    ______ ____
ROOT
ATOM      1  C   UNL     1      44.753   6.056  11.395  0.00  0.00    +0.000 C 
ENDROOT
BRANCH   1   2
ATOM      2  C   UNL     1      44.850   4.829  10.519  0.00  0.00    +0.000 A 
ATOM      3  C   UNL     1      45.464   4.952   9.255  0.00  0.00    +0.000 A 
ATOM      4  C   UNL     1      45.537   3.860   8.389  0.00  0.00    +0.000 A 
ATOM      5  C   UNL     1      45.029   2.626   8.786  0.00  0.00    +0.000 A 
ATOM      6  C   UNL     1      44.413   2.487  10.030  0.00  0.00    +0.000 A 
ATOM      7  C   UNL     1      44.313   3.585  10.886  0.00  0.00    +0.000 A 
ATOM      8 CL   UNL     1      43.497   3.352  12.393  0.00  0.00    +0.000 Cl
BRANCH   4   9
ATOM      9  O   UNL     1      46.111   3.897   7.144  0.00  0.00    +0.000 OA
BRANCH   9  10
ATOM     10  C   UNL     1      46.576   2.656   6.562  0.00  0.00    +0.000 C 
ATOM     11  C   UNL     1      48.000   2.183   6.918  0.00  0.00    +0.000 C 
ATOM     12  N   UNL     1      48.327   2.040   5.492  0.00  0.00    +0.000 NA
ATOM     13  C   UNL     1      47.103   2.766   5.118  0.00  0.00    +0.000 C 
ATOM     14  H   UNL     1      48.356   1.076   5.161  0.00  0.00    +0.000 HD
ENDBRANCH   9  10
ENDBRANCH   4   9
ENDBRANCH   1   2
BRANCH   1  15
ATOM     15  C   UNL     1      46.125   6.685  11.639  0.00  0.00    +0.000 C 
BRANCH  15  16
ATOM     16  O   UNL     1      47.036   5.655  12.030  0.00  0.00    +0.000 OA
BRANCH  16  20
ATOM     17  C   UNL     1      47.784   5.158  16.106  0.00  0.00    +0.000 A 
ATOM     18  C   UNL     1      48.359   6.253  15.452  0.00  0.00    +0.000 A 
ATOM     19  C   UNL     1      48.130   6.457  14.085  0.00  0.00    +0.000 A 
ATOM     20  C   UNL     1      47.332   5.567  13.363  0.00  0.00    +0.000 A 
ATOM     21  C   UNL     1      46.769   4.468  14.018  0.00  0.00    +0.000 A 
ATOM     22  C   UNL     1      46.997   4.258  15.381  0.00  0.00    +0.000 A 
BRANCH  17  24
ATOM     23  N   UNL     1      46.937   5.058  18.388  0.00  0.00    +0.000 N 
ATOM     24  C   UNL     1      48.007   4.905  17.553  0.00  0.00    +0.000 C 
ATOM     25  O   UNL     1      49.094   4.539  17.980  0.00  0.00    +0.000 OA
ATOM     26  H   UNL     1      47.078   4.774  19.349  0.00  0.00    +0.000 HD
ATOM     27  H   UNL     1      45.988   5.090  18.046  0.00  0.00    +0.000 HD
ENDBRANCH  17  24
ENDBRANCH  16  20
ENDBRANCH  15  16
ENDBRANCH   1  15
TORSDOF 7
ENDMDL
MODEL 5
REMARK VINA RESULT:    -6.729      3.826      7.688
REMARK INTER + INTRA:         -10.469
REMARK INTER:                  -9.789
REMARK INTRA:                  -0.680
REMARK UNBOUND:                -0.987
REMARK  Name = 
REMARK  7 active torsions:
REMARK  status: ('A' for Active; 'I' for Inactive)
REMARK    1  A    between atoms: C_2  and  C_4
REMARK    2  A    between atoms: C_7  and  O_8
REMARK    3  A    between atoms: O_8  and  C_9
REMARK    4  A    between atoms: C_9  and  C_10
REMARK    5  A    between atoms: C_10  and  C_11
REMARK    6  A    between atoms: C_13  and  O_14
REMARK    7  A    between atoms: O_14  and  C_15
REMARK                            x       y       z     vdW  Elec       q    Type
REMARK                         _______ _______ _______ _____ _____    ______ ____
ROOT
ATOM      1  C   UNL     1      45.228   6.283  11.255  0.00  0.00    +0.000 C 
ENDROOT
BRANCH   1   2
ATOM      2  C   UNL     1      45.088   5.075  10.359  0.00  0.00    +0.000 A 
ATOM      3  C   UNL     1      45.735   5.090   9.105  0.00  0.00    +0.000 A 
ATOM      4  C   UNL     1      45.599   4.018   8.221  0.00  0.00    +0.000 A 
ATOM      5  C   UNL     1      44.846   2.907   8.590  0.00  0.00    +0.000 A 
ATOM      6  C   UNL     1      44.195   2.877   9.824  0.00  0.00    +0.000 A 
ATOM      7  C   UNL     1      44.305   3.960  10.698  0.00  0.00    +0.000 A 
ATOM      8 CL   UNL     1      43.437   3.874  12.191  0.00  0.00    +0.000 Cl
BRANCH   4   9
ATOM      9  O   UNL     1      46.187   3.956   6.984  0.00  0.00    +0.000 OA
BRANCH   9  10
ATOM     10  C   UNL     1      46.597   2.663   6.479  0.00  0.00    +0.000 C 
ATOM     11  C   UNL     1      47.902   2.054   7.031  0.00  0.00    +0.000 C 
ATOM     12  N   UNL     1      48.405   1.851   5.665  0.00  0.00    +0.000 NA
ATOM     13  C   UNL     1      47.326   2.691   5.121  0.00  0.00    +0.000 C 
ATOM     14  H   UNL     1      48.379   0.883   5.347  0.00  0.00    +0.000 HD
ENDBRANCH   9  10
ENDBRANCH   4   9
ENDBRANCH   1   2
BRANCH   1  15
ATOM     15  C   UNL     1      46.415   6.144  12.209  0.00  0.00    +0.000 C 
BRANCH  15  16
ATOM     16  O   UNL     1      46.690   7.424  12.784  0.00  0.00    +0.000 OA
BRANCH  16  20
ATOM     17  C   UNL     1      50.194   9.186  11.355  0.00  0.00    +0.000 A 
ATOM     18  C   UNL     1      49.091  10.008  11.611  0.00  0.00    +0.000 A 
ATOM     19  C   UNL     1      47.898   9.456  12.094  0.00  0.00    +0.000 A 
ATOM     20  C   UNL     1      47.796   8.082  12.319  0.00  0.00    +0.000 A 
ATOM     21  C   UNL     1      48.897   7.262  12.051  0.00  0.00    +0.000 A 
ATOM     22  C   UNL     1      50.089   7.807  11.566  0.00  0.00    +0.000 A 
BRANCH  17  24
ATOM     23  N   UNL     1      52.630   9.199  11.337  0.00  0.00    +0.000 N 
ATOM     24  C   UNL     1      51.475   9.732  10.838  0.00  0.00    +0.000 C 
ATOM     25  O   UNL     1      51.501  10.599   9.975  0.00  0.00    +0.000 OA
ATOM     26  H   UNL     1      53.488   9.503  10.893  0.00  0.00    +0.000 HD
ATOM     27  H   UNL     1      52.648   8.320  11.832  0.00  0.00    +0.000 HD
ENDBRANCH  17  24
ENDBRANCH  16  20
ENDBRANCH  15  16
ENDBRANCH   1  15
TORSDOF 7
ENDMDL
MODEL 6
REMARK VINA RESULT:    -6.532      3.422      7.734
REMARK INTER + INTRA:         -10.193
REMARK INTER:                  -9.520
REMARK INTRA:                  -0.673
REMARK UNBOUND:                -0.987
REMARK  Name = 
REMARK  7 active torsions:
REMARK  status: ('A' for Active; 'I' for Inactive)
REMARK    1  A    between atoms: C_2  and  C_4
REMARK    2  A    between atoms: C_7  and  O_8
REMARK    3  A    between atoms: O_8  and  C_9
REMARK    4  A    between atoms: C_9  and  C_10
REMARK    5  A    between atoms: C_10  and  C_11
REMARK    6  A    between atoms: C_13  and  O_14
REMARK    7  A    between atoms: O_14  and  C_15
REMARK                            x       y       z     vdW  Elec       q    Type
REMARK                         _______ _______ _______ _____ _____    ______ ____
ROOT
ATOM      1  C   UNL     1      44.618   5.844  11.401  0.00  0.00    +0.000 C 
ENDROOT
BRANCH   1   2
ATOM      2  C   UNL     1      44.757   4.653  10.482  0.00  0.00    +0.000 A 
ATOM      3  C   UNL     1      45.437   4.825   9.258  0.00  0.00    +0.000 A 
ATOM      4  C   UNL     1      45.552   3.769   8.353  0.00  0.00    +0.000 A 
ATOM      5  C   UNL     1      45.021   2.522   8.672  0.00  0.00    +0.000 A 
ATOM      6  C   UNL     1      44.341   2.335   9.876  0.00  0.00    +0.000 A 
ATOM      7  C   UNL     1      44.199   3.398  10.770  0.00  0.00    +0.000 A 
ATOM      8 CL   UNL     1      43.306   3.107  12.222  0.00  0.00    +0.000 Cl
BRANCH   4   9
ATOM      9  O   UNL     1      46.190   3.853   7.142  0.00  0.00    +0.000 OA
BRANCH   9  10
ATOM     10  C   UNL     1      46.632   2.629   6.508  0.00  0.00    +0.000 C 
ATOM     11  C   UNL     1      48.037   2.101   6.864  0.00  0.00    +0.000 C 
ATOM     12  N   UNL     1      48.385   2.018   5.439  0.00  0.00    +0.000 NA
ATOM     13  C   UNL     1      47.188   2.794   5.080  0.00  0.00    +0.000 C 
ATOM     14  H   UNL     1      48.394   1.070   5.062  0.00  0.00    +0.000 HD
ENDBRANCH   9  10
ENDBRANCH   4   9
ENDBRANCH   1   2
BRANCH   1  15
ATOM     15  C   UNL     1      45.543   6.989  10.988  0.00  0.00    +0.000 C 
BRANCH  15  16
ATOM     16  O   UNL     1      45.674   7.890  12.090  0.00  0.00    +0.000 OA
BRANCH  16  20
ATOM     17  C   UNL     1      49.486   7.852  13.788  0.00  0.00    +0.000 A 
ATOM     18  C   UNL     1      48.444   8.450  14.504  0.00  0.00    +0.000 A 
ATOM     19  C   UNL     1      47.149   8.481  13.970  0.00  0.00    +0.000 A 
ATOM     20  C   UNL     1      46.889   7.921  12.718  0.00  0.00    +0.000 A 
ATOM     21  C   UNL     1      47.936   7.335  12.001  0.00  0.00    +0.000 A 
ATOM     22  C   UNL     1      49.230   7.305  12.527  0.00  0.00    +0.000 A 
BRANCH  17  24
ATOM     23  N   UNL     1      51.887   8.097  13.448  0.00  0.00    +0.000 N 
ATOM     24  C   UNL     1      50.874   7.804  14.317  0.00  0.00    +0.000 C 
ATOM     25  O   UNL     1      51.104   7.547  15.492  0.00  0.00    +0.000 OA
ATOM     26  H   UNL     1      52.812   8.169  13.853  0.00  0.00    +0.000 HD
ATOM     27  H   UNL     1      51.724   8.567  12.570  0.00  0.00    +0.000 HD
ENDBRANCH  17  24
ENDBRANCH  16  20
ENDBRANCH  15  16
ENDBRANCH   1  15
TORSDOF 7
ENDMDL
MODEL 7
REMARK VINA RESULT:    -6.104      3.477      5.242
REMARK INTER + INTRA:          -9.588
REMARK INTER:                  -8.625
REMARK INTRA:                  -0.963
REMARK UNBOUND:                -0.987
REMARK  Name = 
REMARK  7 active torsions:
REMARK  status: ('A' for Active; 'I' for Inactive)
REMARK    1  A    between atoms: C_2  and  C_4
REMARK    2  A    between atoms: C_7  and  O_8
REMARK    3  A    between atoms: O_8  and  C_9
REMARK    4  A    between atoms: C_9  and  C_10
REMARK    5  A    between atoms: C_10  and  C_11
REMARK    6  A    between atoms: C_13  and  O_14
REMARK    7  A    between atoms: O_14  and  C_15
REMARK                            x       y       z     vdW  Elec       q    Type
REMARK                         _______ _______ _______ _____ _____    ______ ____
ROOT
ATOM      1  C   UNL     1      49.561   8.322  13.628  0.00  0.00    +0.000 C 
ENDROOT
BRANCH   1   2
ATOM      2  C   UNL     1      50.176   7.574  14.788  0.00  0.00    +0.000 A 
ATOM      3  C   UNL     1      49.329   6.813  15.621  0.00  0.00    +0.000 A 
ATOM      4  C   UNL     1      49.841   6.141  16.732  0.00  0.00    +0.000 A 
ATOM      5  C   UNL     1      51.205   6.192  17.006  0.00  0.00    +0.000 A 
ATOM      6  C   UNL     1      52.056   6.944  16.195  0.00  0.00    +0.000 A 
ATOM      7  C   UNL     1      51.543   7.640  15.100  0.00  0.00    +0.000 A 
ATOM      8 CL   UNL     1      52.648   8.587  14.165  0.00  0.00    +0.000 Cl
BRANCH   4   9
ATOM      9  O   UNL     1      49.087   5.387  17.595  0.00  0.00    +0.000 OA
BRANCH   9  10
ATOM     10  C   UNL     1      48.506   4.154  17.107  0.00  0.00    +0.000 C 
ATOM     11  C   UNL     1      47.007   4.159  16.742  0.00  0.00    +0.000 C 
ATOM     12  N   UNL     1      46.778   2.988  17.600  0.00  0.00    +0.000 NA
ATOM     13  C   UNL     1      48.114   3.138  18.197  0.00  0.00    +0.000 C 
ATOM     14  H   UNL     1      46.645   2.114  17.091  0.00  0.00    +0.000 HD
ENDBRANCH   9  10
ENDBRANCH   4   9
ENDBRANCH   1   2
BRANCH   1  15
ATOM     15  C   UNL     1      49.013   7.368  12.567  0.00  0.00    +0.000 C 
BRANCH  15  16
ATOM     16  O   UNL     1      47.615   7.621  12.405  0.00  0.00    +0.000 OA
BRANCH  16  20
ATOM     17  C   UNL     1      45.053   4.377  11.830  0.00  0.00    +0.000 A 
ATOM     18  C   UNL     1      45.779   4.448  13.023  0.00  0.00    +0.000 A 
ATOM     19  C   UNL     1      46.648   5.523  13.256  0.00  0.00    +0.000 A 
ATOM     20  C   UNL     1      46.800   6.527  12.299  0.00  0.00    +0.000 A 
ATOM     21  C   UNL     1      46.081   6.446  11.103  0.00  0.00    +0.000 A 
ATOM     22  C   UNL     1      45.216   5.374  10.863  0.00  0.00    +0.000 A 
BRANCH  17  24
ATOM     23  N   UNL     1      43.860   2.383  12.564  0.00  0.00    +0.000 N 
ATOM     24  C   UNL     1      44.125   3.252  11.543  0.00  0.00    +0.000 C 
ATOM     25  O   UNL     1      43.590   3.124  10.451  0.00  0.00    +0.000 OA
ATOM     26  H   UNL     1      43.143   1.692  12.385  0.00  0.00    +0.000 HD
ATOM     27  H   UNL     1      44.062   2.606  13.528  0.00  0.00    +0.000 HD
ENDBRANCH  17  24
ENDBRANCH  16  20
ENDBRANCH  15  16
ENDBRANCH   1  15
TORSDOF 7
ENDMDL
MODEL 8
REMARK VINA RESULT:    -6.060      3.275      4.464
REMARK INTER + INTRA:          -9.527
REMARK INTER:                  -8.697
REMARK INTRA:                  -0.829
REMARK UNBOUND:                -0.987
REMARK  Name = 
REMARK  7 active torsions:
REMARK  status: ('A' for Active; 'I' for Inactive)
REMARK    1  A    between atoms: C_2  and  C_4
REMARK    2  A    between atoms: C_7  and  O_8
REMARK    3  A    between atoms: O_8  and  C_9
REMARK    4  A    between atoms: C_9  and  C_10
REMARK    5  A    between atoms: C_10  and  C_11
REMARK    6  A    between atoms: C_13  and  O_14
REMARK    7  A    between atoms: O_14  and  C_15
REMARK                            x       y       z     vdW  Elec       q    Type
REMARK                         _______ _______ _______ _____ _____    ______ ____
ROOT
ATOM      1  C   UNL     1      45.725   4.486  13.074  0.00  0.00    +0.000 C 
ENDROOT
BRANCH   1   2
ATOM      2  C   UNL     1      46.850   5.431  13.428  0.00  0.00    +0.000 A 
ATOM      3  C   UNL     1      47.266   6.372  12.463  0.00  0.00    +0.000 A 
ATOM      4  C   UNL     1      48.330   7.236  12.723  0.00  0.00    +0.000 A 
ATOM      5  C   UNL     1      48.969   7.196  13.959  0.00  0.00    +0.000 A 
ATOM      6  C   UNL     1      48.575   6.267  14.924  0.00  0.00    +0.000 A 
ATOM      7  C   UNL     1      47.529   5.382  14.655  0.00  0.00    +0.000 A 
ATOM      8 CL   UNL     1      47.123   4.230  15.879  0.00  0.00    +0.000 Cl
BRANCH   4   9
ATOM      9  O   UNL     1      48.800   8.173  11.839  0.00  0.00    +0.000 OA
BRANCH   9  10
ATOM     10  C   UNL     1      48.670   9.574  12.184  0.00  0.00    +0.000 C 
ATOM     11  C   UNL     1      47.256  10.190  12.175  0.00  0.00    +0.000 C 
ATOM     12  N   UNL     1      47.717  11.276  11.299  0.00  0.00    +0.000 NA
ATOM     13  C   UNL     1      48.977  10.561  11.041  0.00  0.00    +0.000 C 
ATOM     14  H   UNL     1      47.837  12.173  11.769  0.00  0.00    +0.000 HD
ENDBRANCH   9  10
ENDBRANCH   4   9
ENDBRANCH   1   2
BRANCH   1  15
ATOM     15  C   UNL     1      44.461   5.240  12.665  0.00  0.00    +0.000 C 
BRANCH  15  16
ATOM     16  O   UNL     1      43.691   4.403  11.798  0.00  0.00    +0.000 OA
BRANCH  16  20
ATOM     17  C   UNL     1      45.680   3.278   8.305  0.00  0.00    +0.000 A 
ATOM     18  C   UNL     1      45.006   2.293   9.035  0.00  0.00    +0.000 A 
ATOM     19  C   UNL     1      44.323   2.630  10.211  0.00  0.00    +0.000 A 
ATOM     20  C   UNL     1      44.315   3.949  10.668  0.00  0.00    +0.000 A 
ATOM     21  C   UNL     1      45.000   4.928   9.943  0.00  0.00    +0.000 A 
ATOM     22  C   UNL     1      45.686   4.597   8.771  0.00  0.00    +0.000 A 
BRANCH  17  24
ATOM     23  N   UNL     1      47.013   1.732   6.975  0.00  0.00    +0.000 N 
ATOM     24  C   UNL     1      46.419   2.960   7.056  0.00  0.00    +0.000 C 
ATOM     25  O   UNL     1      46.467   3.747   6.121  0.00  0.00    +0.000 OA
ATOM     26  H   UNL     1      47.414   1.490   6.077  0.00  0.00    +0.000 HD
ATOM     27  H   UNL     1      46.771   0.974   7.597  0.00  0.00    +0.000 HD
ENDBRANCH  17  24
ENDBRANCH  16  20
ENDBRANCH  15  16
ENDBRANCH   1  15
TORSDOF 7
ENDMDL
MODEL 9
REMARK VINA RESULT:    -5.971      4.779      7.259
REMARK INTER + INTRA:          -9.401
REMARK INTER:                  -8.297
REMARK INTRA:                  -1.104
REMARK UNBOUND:                -0.987
REMARK  Name = 
REMARK  7 active torsions:
REMARK  status: ('A' for Active; 'I' for Inactive)
REMARK    1  A    between atoms: C_2  and  C_4
REMARK    2  A    between atoms: C_7  and  O_8
REMARK    3  A    between atoms: O_8  and  C_9
REMARK    4  A    between atoms: C_9  and  C_10
REMARK    5  A    between atoms: C_10  and  C_11
REMARK    6  A    between atoms: C_13  and  O_14
REMARK    7  A    between atoms: O_14  and  C_15
REMARK                            x       y       z     vdW  Elec       q    Type
REMARK                         _______ _______ _______ _____ _____    ______ ____
ROOT
ATOM      1  C   UNL     1      48.957   9.356  12.316  0.00  0.00    +0.000 C 
ENDROOT
BRANCH   1   2
ATOM      2  C   UNL     1      47.837  10.224  11.791  0.00  0.00    +0.000 A 
ATOM      3  C   UNL     1      46.530   9.999  12.272  0.00  0.00    +0.000 A 
ATOM      4  C   UNL     1      45.455  10.742  11.785  0.00  0.00    +0.000 A 
ATOM      5  C   UNL     1      45.674  11.740  10.838  0.00  0.00    +0.000 A 
ATOM      6  C   UNL     1      46.959  11.973  10.348  0.00  0.00    +0.000 A 
ATOM      7  C   UNL     1      48.033  11.211  10.812  0.00  0.00    +0.000 A 
ATOM      8 CL   UNL     1      49.590  11.524  10.128  0.00  0.00    +0.000 Cl
BRANCH   4   9
ATOM      9  O   UNL     1      44.156  10.583  12.193  0.00  0.00    +0.000 OA
BRANCH   9  10
ATOM     10  C   UNL     1      43.101  10.721  11.210  0.00  0.00    +0.000 C 
ATOM     11  C   UNL     1      41.674  11.004  11.720  0.00  0.00    +0.000 C 
ATOM     12  N   UNL     1      41.153   9.872  10.940  0.00  0.00    +0.000 NA
ATOM     13  C   UNL     1      42.520   9.395  10.681  0.00  0.00    +0.000 C 
ATOM     14  H   UNL     1      40.640  10.141  10.101  0.00  0.00    +0.000 HD
ENDBRANCH   9  10
ENDBRANCH   4   9
ENDBRANCH   1   2
BRANCH   1  15
ATOM     15  C   UNL     1      48.895   7.942  11.737  0.00  0.00    +0.000 C 
BRANCH  15  16
ATOM     16  O   UNL     1      48.512   7.040  12.778  0.00  0.00    +0.000 OA
BRANCH  16  20
ATOM     17  C   UNL     1      45.055   4.730  12.415  0.00  0.00    +0.000 A 
ATOM     18  C   UNL     1      45.376   5.616  11.380  0.00  0.00    +0.000 A 
ATOM     19  C   UNL     1      46.529   6.407  11.463  0.00  0.00    +0.000 A 
ATOM     20  C   UNL     1      47.365   6.322  12.578  0.00  0.00    +0.000 A 
ATOM     21  C   UNL     1      47.034   5.444  13.614  0.00  0.00    +0.000 A 
ATOM     22  C   UNL     1      45.883   4.655  13.539  0.00  0.00    +0.000 A 
BRANCH  17  24
ATOM     23  N   UNL     1      42.817   4.289  11.559  0.00  0.00    +0.000 N 
ATOM     24  C   UNL     1      43.839   3.878  12.367  0.00  0.00    +0.000 C 
ATOM     25  O   UNL     1      43.764   2.831  12.996  0.00  0.00    +0.000 OA
ATOM     26  H   UNL     1      42.046   3.642  11.453  0.00  0.00    +0.000 HD
ATOM     27  H   UNL     1      42.947   4.982  10.837  0.00  0.00    +0.000 HD
ENDBRANCH  17  24
ENDBRANCH  16  20
ENDBRANCH  15  16
ENDBRANCH   1  15
TORSDOF 7
ENDMDL
