MODEL 1
REMARK VINA RESULT:    -7.866      0.000      0.000
REMARK INTER + INTRA:         -11.606
REMARK INTER:                 -10.624
REMARK INTRA:                  -0.982
REMARK UNBOUND:                -0.982
REMARK  Name = 
REMARK  6 active torsions:
REMARK  status: ('A' for Active; 'I' for Inactive)
REMARK    1  A    between atoms: C_2  and  C_25
REMARK    2  A    between atoms: N_3  and  C_4
REMARK    3  A    between atoms: C_4  and  C_5
REMARK    4  A    between atoms: C_8  and  C_9
REMARK    5  A    between atoms: C_9  and  N_10
REMARK    6  A    between atoms: C_11  and  C_13
REMARK                            x       y       z     vdW  Elec       q    Type
REMARK                         _______ _______ _______ _____ _____    ______ ____
ROOT
ATOM      1  C   UNL     1      44.714   5.934  11.159  0.00  0.00    +0.000 A 
ATOM      2  C   UNL     1      44.350   7.256  11.421  0.00  0.00    +0.000 A 
ATOM      3  C   UNL     1      45.162   8.053  12.223  0.00  0.00    +0.000 A 
ATOM      4  C   UNL     1      46.313   7.500  12.776  0.00  0.00    +0.000 A 
ATOM      5  N   UNL     1      46.684   6.214  12.542  0.00  0.00    +0.000 NA
ATOM      6  C   UNL     1      45.885   5.469  11.745  0.00  0.00    +0.000 A 
ENDROOT
BRANCH   1   7
ATOM      7  C   UNL     1      43.897   5.059  10.260  0.00  0.00    +0.000 C 
BRANCH   7  10
ATOM      8  O   UNL     1      44.961   2.508  10.135  0.00  0.00    +0.000 OA
ATOM      9  C   UNL     1      45.130   3.254   9.176  0.00  0.00    +0.000 C 
ATOM     10  N   UNL     1      44.634   4.542   9.134  0.00  0.00    +0.000 N 
ATOM     11  H   UNL     1      44.836   5.111   8.316  0.00  0.00    +0.000 HD
BRANCH   9  12
ATOM     12  C   UNL     1      45.897   2.795   7.990  0.00  0.00    +0.000 A 
ATOM     13  C   UNL     1      46.401   1.500   7.969  0.00  0.00    +0.000 A 
ATOM     14  N   UNL     1      47.106   1.009   6.918  0.00  0.00    +0.000 NA
ATOM     15  C   UNL     1      47.281   1.872   5.892  0.00  0.00    +0.000 A 
ATOM     16  C   UNL     1      46.779   3.167   5.913  0.00  0.00    +0.000 A 
ATOM     17  N   UNL     1      46.074   3.668   6.958  0.00  0.00    +0.000 NA
ENDBRANCH   9  12
ENDBRANCH   7  10
ENDBRANCH   1   7
BRANCH   4  18
ATOM     18  C   UNL     1      47.211   8.332  13.660  0.00  0.00    +0.000 C 
BRANCH  18  19
ATOM     19  N   UNL     1      47.682   7.602  14.814  0.00  0.00    +0.000 N 
ATOM     20  C   UNL     1      48.969   7.151  14.929  0.00  0.00    +0.000 C 
ATOM     21  O   UNL     1      49.801   7.328  14.043  0.00  0.00    +0.000 OA
ATOM     22  H   UNL     1      46.963   7.261  15.447  0.00  0.00    +0.000 HD
BRANCH  20  23
ATOM     23  C   UNL     1      49.332   6.506  16.200  0.00  0.00    +0.000 A 
ATOM     24  C   UNL     1      50.336   7.057  16.984  0.00  0.00    +0.000 A 
ATOM     25  S   UNL     1      50.611   6.215  18.442  0.00  0.00    +0.000 S 
ATOM     26  C   UNL     1      49.427   5.056  18.057  0.00  0.00    +0.000 A 
ATOM     27  N   UNL     1      49.173   4.013  18.893  0.00  0.00    +0.000 NA
ATOM     28  C   UNL     1      48.277   3.187  18.462  0.00  0.00    +0.000 A 
ATOM     29  N   UNL     1      47.603   3.321  17.276  0.00  0.00    +0.000 N 
ATOM     30  C   UNL     1      47.784   4.388  16.429  0.00  0.00    +0.000 A 
ATOM     31  O   UNL     1      47.096   4.525  15.423  0.00  0.00    +0.000 OA
ATOM     32  C   UNL     1      48.811   5.323  16.846  0.00  0.00    +0.000 A 
ATOM     33  H   UNL     1      46.894   2.655  17.006  0.00  0.00    +0.000 HD
ENDBRANCH  20  23
ENDBRANCH  18  19
ENDBRANCH   4  18
TORSDOF 6
ENDMDL
MODEL 2
REMARK VINA RESULT:    -7.277      2.133      3.826
REMARK INTER + INTRA:         -10.811
REMARK INTER:                  -9.766
REMARK INTRA:                  -1.046
REMARK UNBOUND:                -0.982
REMARK  Name = 
REMARK  6 active torsions:
REMARK  status: ('A' for Active; 'I' for Inactive)
REMARK    1  A    between atoms: C_2  and  C_25
REMARK    2  A    between atoms: N_3  and  C_4
REMARK    3  A    between atoms: C_4  and  C_5
REMARK    4  A    between atoms: C_8  and  C_9
REMARK    5  A    between atoms: C_9  and  N_10
REMARK    6  A    between atoms: C_11  and  C_13
REMARK                            x       y       z     vdW  Elec       q    Type
REMARK                         _______ _______ _______ _____ _____    ______ ____
ROOT
ATOM      1  C   UNL     1      45.124   4.221  11.845  0.00  0.00    +0.000 A 
ATOM      2  C   UNL     1      45.342   5.529  12.280  0.00  0.00    +0.000 A 
ATOM      3  C   UNL     1      46.107   5.763  13.421  0.00  0.00    +0.000 A 
ATOM      4  C   UNL     1      46.616   4.675  14.124  0.00  0.00    +0.000 A 
ATOM      5  N   UNL     1      46.411   3.393  13.724  0.00  0.00    +0.000 NA
ATOM      6  C   UNL     1      45.679   3.198  12.603  0.00  0.00    +0.000 A 
ENDROOT
BRANCH   1   7
ATOM      7  C   UNL     1      44.353   3.929  10.596  0.00  0.00    +0.000 C 
BRANCH   7  10
ATOM      8  O   UNL     1      44.694   1.558   9.211  0.00  0.00    +0.000 OA
ATOM      9  C   UNL     1      45.291   2.553   8.812  0.00  0.00    +0.000 C 
ATOM     10  N   UNL     1      45.182   3.785   9.425  0.00  0.00    +0.000 N 
ATOM     11  H   UNL     1      45.727   4.559   9.054  0.00  0.00    +0.000 HD
BRANCH   9  12
ATOM     12  C   UNL     1      46.179   2.473   7.625  0.00  0.00    +0.000 A 
ATOM     13  C   UNL     1      47.061   1.407   7.508  0.00  0.00    +0.000 A 
ATOM     14  N   UNL     1      47.898   1.264   6.449  0.00  0.00    +0.000 NA
ATOM     15  C   UNL     1      47.810   2.238   5.515  0.00  0.00    +0.000 A 
ATOM     16  C   UNL     1      46.930   3.306   5.632  0.00  0.00    +0.000 A 
ATOM     17  N   UNL     1      46.090   3.458   6.685  0.00  0.00    +0.000 NA
ENDBRANCH   9  12
ENDBRANCH   7  10
ENDBRANCH   1   7
BRANCH   4  18
ATOM     18  C   UNL     1      47.439   4.891  15.370  0.00  0.00    +0.000 C 
BRANCH  18  19
ATOM     19  N   UNL     1      47.857   6.266  15.527  0.00  0.00    +0.000 N 
ATOM     20  C   UNL     1      49.129   6.615  15.892  0.00  0.00    +0.000 C 
ATOM     21  O   UNL     1      49.992   5.773  16.125  0.00  0.00    +0.000 OA
ATOM     22  H   UNL     1      47.111   6.955  15.551  0.00  0.00    +0.000 HD
BRANCH  20  23
ATOM     23  C   UNL     1      49.437   8.052  15.919  0.00  0.00    +0.000 A 
ATOM     24  C   UNL     1      49.864   8.638  17.103  0.00  0.00    +0.000 A 
ATOM     25  S   UNL     1      50.215  10.301  16.960  0.00  0.00    +0.000 S 
ATOM     26  C   UNL     1      49.766  10.309  15.320  0.00  0.00    +0.000 A 
ATOM     27  N   UNL     1      49.806  11.457  14.590  0.00  0.00    +0.000 NA
ATOM     28  C   UNL     1      49.403  11.330  13.369  0.00  0.00    +0.000 A 
ATOM     29  N   UNL     1      48.979  10.153  12.809  0.00  0.00    +0.000 N 
ATOM     30  C   UNL     1      48.977   8.959  13.490  0.00  0.00    +0.000 A 
ATOM     31  O   UNL     1      48.681   7.909  12.930  0.00  0.00    +0.000 OA
ATOM     32  C   UNL     1      49.380   9.054  14.879  0.00  0.00    +0.000 A 
ATOM     33  H   UNL     1      48.700  10.112  11.840  0.00  0.00    +0.000 HD
ENDBRANCH  20  23
ENDBRANCH  18  19
ENDBRANCH   4  18
TORSDOF 6
ENDMDL
MODEL 3
REMARK VINA RESULT:    -7.210      2.617      3.164
REMARK INTER + INTRA:         -10.721
REMARK INTER:                  -9.867
REMARK INTRA:                  -0.854
REMARK UNBOUND:                -0.982
REMARK  Name = 
REMARK  6 active torsions:
REMARK  status: ('A' for Active; 'I' for Inactive)
REMARK    1  A    between atoms: C_2  and  C_25
REMARK    2  A    between atoms: N_3  and  C_4
REMARK    3  A    between atoms: C_4  and  C_5
REMARK    4  A    between atoms: C_8  and  C_9
REMARK    5  A    between atoms: C_9  and  N_10
REMARK    6  A    between atoms: C_11  and  C_13
REMARK                            x       y       z     vdW  Elec       q    Type
REMARK                         _______ _______ _______ _____ _____    ______ ____
ROOT
ATOM      1  C   UNL     1      45.490   4.975  11.959  0.00  0.00    +0.000 A 
ATOM      2  C   UNL     1      46.154   6.053  12.547  0.00  0.00    +0.000 A 
ATOM      3  C   UNL     1      46.861   5.870  13.733  0.00  0.00    +0.000 A 
ATOM      4  C   UNL     1      46.866   4.611  14.326  0.00  0.00    +0.000 A 
ATOM      5  N   UNL     1      46.222   3.548  13.777  0.00  0.00    +0.000 NA
ATOM      6  C   UNL     1      45.558   3.753  12.615  0.00  0.00    +0.000 A 
ENDROOT
BRANCH   1   7
ATOM      7  C   UNL     1      44.764   5.117  10.658  0.00  0.00    +0.000 C 
BRANCH   7  10
ATOM      8  O   UNL     1      44.306   2.566   9.691  0.00  0.00    +0.000 OA
ATOM      9  C   UNL     1      45.164   3.248   9.141  0.00  0.00    +0.000 C 
ATOM     10  N   UNL     1      45.463   4.536   9.539  0.00  0.00    +0.000 N 
ATOM     11  H   UNL     1      46.204   5.033   9.052  0.00  0.00    +0.000 HD
BRANCH   9  12
ATOM     12  C   UNL     1      45.938   2.707   7.995  0.00  0.00    +0.000 A 
ATOM     13  C   UNL     1      46.146   3.507   6.879  0.00  0.00    +0.000 A 
ATOM     14  N   UNL     1      46.848   3.083   5.797  0.00  0.00    +0.000 NA
ATOM     15  C   UNL     1      47.331   1.823   5.887  0.00  0.00    +0.000 A 
ATOM     16  C   UNL     1      47.122   1.021   7.002  0.00  0.00    +0.000 A 
ATOM     17  N   UNL     1      46.422   1.435   8.087  0.00  0.00    +0.000 NA
ENDBRANCH   9  12
ENDBRANCH   7  10
ENDBRANCH   1   7
BRANCH   4  18
ATOM     18  C   UNL     1      47.612   4.379  15.617  0.00  0.00    +0.000 C 
BRANCH  18  19
ATOM     19  N   UNL     1      47.622   5.547  16.469  0.00  0.00    +0.000 N 
ATOM     20  C   UNL     1      48.760   6.259  16.734  0.00  0.00    +0.000 C 
ATOM     21  O   UNL     1      49.851   5.935  16.273  0.00  0.00    +0.000 OA
ATOM     22  H   UNL     1      46.784   5.696  17.024  0.00  0.00    +0.000 HD
BRANCH  20  23
ATOM     23  C   UNL     1      48.602   7.479  17.540  0.00  0.00    +0.000 A 
ATOM     24  C   UNL     1      48.928   8.710  16.988  0.00  0.00    +0.000 A 
ATOM     25  S   UNL     1      48.653  10.028  18.035  0.00  0.00    +0.000 S 
ATOM     26  C   UNL     1      48.130   8.997  19.282  0.00  0.00    +0.000 A 
ATOM     27  N   UNL     1      47.763   9.495  20.494  0.00  0.00    +0.000 NA
ATOM     28  C   UNL     1      47.422   8.599  21.360  0.00  0.00    +0.000 A 
ATOM     29  N   UNL     1      47.401   7.251  21.117  0.00  0.00    +0.000 N 
ATOM     30  C   UNL     1      47.707   6.707  19.893  0.00  0.00    +0.000 A 
ATOM     31  O   UNL     1      47.585   5.504  19.684  0.00  0.00    +0.000 OA
ATOM     32  C   UNL     1      48.137   7.667  18.895  0.00  0.00    +0.000 A 
ATOM     33  H   UNL     1      47.100   6.601  21.829  0.00  0.00    +0.000 HD
ENDBRANCH  20  23
ENDBRANCH  18  19
ENDBRANCH   4  18
TORSDOF 6
ENDMDL
MODEL 4
REMARK VINA RESULT:    -7.204      2.128      2.642
REMARK INTER + INTRA:         -10.712
REMARK INTER:                  -9.876
REMARK INTRA:                  -0.836
REMARK UNBOUND:                -0.982
REMARK  Name = 
REMARK  6 active torsions:
REMARK  status: ('A' for Active; 'I' for Inactive)
REMARK    1  A    between atoms: C_2  and  C_25
REMARK    2  A    between atoms: N_3  and  C_4
REMARK    3  A    between atoms: C_4  and  C_5
REMARK    4  A    between atoms: C_8  and  C_9
REMARK    5  A    between atoms: C_9  and  N_10
REMARK    6  A    between atoms: C_11  and  C_13
REMARK                            x       y       z     vdW  Elec       q    Type
REMARK                         _______ _______ _______ _____ _____    ______ ____
ROOT
ATOM      1  C   UNL     1      45.565   4.278  12.597  0.00  0.00    +0.000 A 
ATOM      2  C   UNL     1      46.562   3.767  13.430  0.00  0.00    +0.000 A 
ATOM      3  C   UNL     1      47.335   4.634  14.199  0.00  0.00    +0.000 A 
ATOM      4  C   UNL     1      47.114   6.004  14.096  0.00  0.00    +0.000 A 
ATOM      5  N   UNL     1      46.155   6.525  13.287  0.00  0.00    +0.000 NA
ATOM      6  C   UNL     1      45.409   5.658  12.565  0.00  0.00    +0.000 A 
ENDROOT
BRANCH   1   7
ATOM      7  C   UNL     1      44.677   3.380  11.794  0.00  0.00    +0.000 C 
BRANCH   7  10
ATOM      8  O   UNL     1      44.391   4.310   9.204  0.00  0.00    +0.000 OA
ATOM      9  C   UNL     1      45.112   3.335   9.393  0.00  0.00    +0.000 C 
ATOM     10  N   UNL     1      45.329   2.799  10.647  0.00  0.00    +0.000 N 
ATOM     11  H   UNL     1      45.919   1.974  10.724  0.00  0.00    +0.000 HD
BRANCH   9  12
ATOM     12  C   UNL     1      45.798   2.673   8.255  0.00  0.00    +0.000 A 
ATOM     13  C   UNL     1      45.993   3.382   7.076  0.00  0.00    +0.000 A 
ATOM     14  N   UNL     1      46.617   2.845   5.997  0.00  0.00    +0.000 NA
ATOM     15  C   UNL     1      47.035   1.569   6.153  0.00  0.00    +0.000 A 
ATOM     16  C   UNL     1      46.838   0.858   7.331  0.00  0.00    +0.000 A 
ATOM     17  N   UNL     1      46.217   1.385   8.415  0.00  0.00    +0.000 NA
ENDBRANCH   9  12
ENDBRANCH   7  10
ENDBRANCH   1   7
BRANCH   4  18
ATOM     18  C   UNL     1      47.941   6.972  14.907  0.00  0.00    +0.000 C 
BRANCH  18  19
ATOM     19  N   UNL     1      49.095   6.345  15.510  0.00  0.00    +0.000 N 
ATOM     20  C   UNL     1      49.092   5.872  16.795  0.00  0.00    +0.000 C 
ATOM     21  O   UNL     1      48.106   5.969  17.520  0.00  0.00    +0.000 OA
ATOM     22  H   UNL     1      49.971   6.453  15.008  0.00  0.00    +0.000 HD
BRANCH  20  23
ATOM     23  C   UNL     1      50.305   5.173  17.243  0.00  0.00    +0.000 A 
ATOM     24  C   UNL     1      51.378   5.908  17.728  0.00  0.00    +0.000 A 
ATOM     25  S   UNL     1      52.692   4.951  18.241  0.00  0.00    +0.000 S 
ATOM     26  C   UNL     1      51.893   3.518  17.793  0.00  0.00    +0.000 A 
ATOM     27  N   UNL     1      52.492   2.306  17.945  0.00  0.00    +0.000 NA
ATOM     28  C   UNL     1      51.788   1.305  17.530  0.00  0.00    +0.000 A 
ATOM     29  N   UNL     1      50.533   1.408  16.990  0.00  0.00    +0.000 N 
ATOM     30  C   UNL     1      49.866   2.603  16.872  0.00  0.00    +0.000 A 
ATOM     31  O   UNL     1      48.707   2.647  16.472  0.00  0.00    +0.000 OA
ATOM     32  C   UNL     1      50.629   3.765  17.284  0.00  0.00    +0.000 A 
ATOM     33  H   UNL     1      50.022   0.584  16.708  0.00  0.00    +0.000 HD
ENDBRANCH  20  23
ENDBRANCH  18  19
ENDBRANCH   4  18
TORSDOF 6
ENDMDL
MODEL 5
REMARK VINA RESULT:    -7.133      1.735      2.178
REMARK INTER + INTRA:         -10.616
REMARK INTER:                  -9.944
REMARK INTRA:                  -0.672
REMARK UNBOUND:                -0.982
REMARK  Name = 
REMARK  6 active torsions:
REMARK  status: ('A' for Active; 'I' for Inactive)
REMARK    1  A    between atoms: C_2  and  C_25
REMARK    2  A    between atoms: N_3  and  C_4
REMARK    3  A    between atoms: C_4  and  C_5
REMARK    4  A    between atoms: C_8  and  C_9
REMARK    5  A    between atoms: C_9  and  N_10
REMARK    6  A    between atoms: C_11  and  C_13
REMARK                            x       y       z     vdW  Elec       q    Type
REMARK                         _______ _______ _______ _____ _____    ______ ____
ROOT
ATOM      1  C   UNL     1      44.590   4.758  11.655  0.00  0.00    +0.000 A 
ATOM      2  C   UNL     1      43.805   5.851  11.284  0.00  0.00    +0.000 A 
ATOM      3  C   UNL     1      44.172   7.135  11.681  0.00  0.00    +0.000 A 
ATOM      4  C   UNL     1      45.306   7.298  12.470  0.00  0.00    +0.000 A 
ATOM      5  N   UNL     1      46.081   6.249  12.851  0.00  0.00    +0.000 NA
ATOM      6  C   UNL     1      45.710   5.016  12.436  0.00  0.00    +0.000 A 
ENDROOT
BRANCH   1   7
ATOM      7  C   UNL     1      44.262   3.369  11.206  0.00  0.00    +0.000 C 
BRANCH   7  10
ATOM      8  O   UNL     1      44.127   4.140   8.552  0.00  0.00    +0.000 OA
ATOM      9  C   UNL     1      44.979   3.318   8.874  0.00  0.00    +0.000 C 
ATOM     10  N   UNL     1      45.136   2.874  10.172  0.00  0.00    +0.000 N 
ATOM     11  H   UNL     1      45.848   2.172  10.360  0.00  0.00    +0.000 HD
BRANCH   9  12
ATOM     12  C   UNL     1      45.900   2.750   7.857  0.00  0.00    +0.000 A 
ATOM     13  C   UNL     1      46.396   1.465   8.035  0.00  0.00    +0.000 A 
ATOM     14  N   UNL     1      47.237   0.878   7.146  0.00  0.00    +0.000 NA
ATOM     15  C   UNL     1      47.556   1.636   6.073  0.00  0.00    +0.000 A 
ATOM     16  C   UNL     1      47.062   2.922   5.895  0.00  0.00    +0.000 A 
ATOM     17  N   UNL     1      46.222   3.518   6.777  0.00  0.00    +0.000 NA
ENDBRANCH   9  12
ENDBRANCH   7  10
ENDBRANCH   1   7
BRANCH   4  18
ATOM     18  C   UNL     1      45.726   8.674  12.928  0.00  0.00    +0.000 C 
BRANCH  18  19
ATOM     19  N   UNL     1      46.618   8.631  14.064  0.00  0.00    +0.000 N 
ATOM     20  C   UNL     1      47.949   8.939  13.971  0.00  0.00    +0.000 C 
ATOM     21  O   UNL     1      48.469   9.256  12.905  0.00  0.00    +0.000 OA
ATOM     22  H   UNL     1      46.258   8.166  14.893  0.00  0.00    +0.000 HD
BRANCH  20  23
ATOM     23  C   UNL     1      48.714   8.944  15.227  0.00  0.00    +0.000 A 
ATOM     24  C   UNL     1      49.120  10.153  15.775  0.00  0.00    +0.000 A 
ATOM     25  S   UNL     1      49.963   9.991  17.248  0.00  0.00    +0.000 S 
ATOM     26  C   UNL     1      49.855   8.295  17.186  0.00  0.00    +0.000 A 
ATOM     27  N   UNL     1      50.413   7.523  18.157  0.00  0.00    +0.000 NA
ATOM     28  C   UNL     1      50.288   6.250  17.967  0.00  0.00    +0.000 A 
ATOM     29  N   UNL     1      49.643   5.683  16.900  0.00  0.00    +0.000 N 
ATOM     30  C   UNL     1      49.014   6.423  15.927  0.00  0.00    +0.000 A 
ATOM     31  O   UNL     1      48.364   5.883  15.038  0.00  0.00    +0.000 OA
ATOM     32  C   UNL     1      49.160   7.859  16.070  0.00  0.00    +0.000 A 
ATOM     33  H   UNL     1      49.556   4.681  16.820  0.00  0.00    +0.000 HD
ENDBRANCH  20  23
ENDBRANCH  18  19
ENDBRANCH   4  18
TORSDOF 6
ENDMDL
MODEL 6
REMARK VINA RESULT:    -7.063      2.193      2.590
REMARK INTER + INTRA:         -10.522
REMARK INTER:                  -9.644
REMARK INTRA:                  -0.878
REMARK UNBOUND:                -0.982
REMARK  Name = 
REMARK  6 active torsions:
REMARK  status: ('A' for Active; 'I' for Inactive)
REMARK    1  A    between atoms: C_2  and  C_25
REMARK    2  A    between atoms: N_3  and  C_4
REMARK    3  A    between atoms: C_4  and  C_5
REMARK    4  A    between atoms: C_8  and  C_9
REMARK    5  A    between atoms: C_9  and  N_10
REMARK    6  A    between atoms: C_11  and  C_13
REMARK                            x       y       z     vdW  Elec       q    Type
REMARK                         _______ _______ _______ _____ _____    ______ ____
ROOT
ATOM      1  C   UNL     1      45.599   6.673  11.708  0.00  0.00    +0.000 A 
ATOM      2  C   UNL     1      45.320   7.880  12.353  0.00  0.00    +0.000 A 
ATOM      3  C   UNL     1      46.217   8.392  13.286  0.00  0.00    +0.000 A 
ATOM      4  C   UNL     1      47.369   7.668  13.580  0.00  0.00    +0.000 A 
ATOM      5  N   UNL     1      47.659   6.488  12.972  0.00  0.00    +0.000 NA
ATOM      6  C   UNL     1      46.776   6.024  12.057  0.00  0.00    +0.000 A 
ENDROOT
BRANCH   1   7
ATOM      7  C   UNL     1      44.687   6.115  10.661  0.00  0.00    +0.000 C 
BRANCH   7  10
ATOM      8  O   UNL     1      43.962   3.544   9.940  0.00  0.00    +0.000 OA
ATOM      9  C   UNL     1      44.930   4.051   9.382  0.00  0.00    +0.000 C 
ATOM     10  N   UNL     1      45.368   5.330   9.662  0.00  0.00    +0.000 N 
ATOM     11  H   UNL     1      46.193   5.674   9.178  0.00  0.00    +0.000 HD
BRANCH   9  12
ATOM     12  C   UNL     1      45.691   3.292   8.357  0.00  0.00    +0.000 A 
ATOM     13  C   UNL     1      45.944   1.942   8.563  0.00  0.00    +0.000 A 
ATOM     14  N   UNL     1      46.627   1.183   7.668  0.00  0.00    +0.000 NA
ATOM     15  C   UNL     1      47.045   1.839   6.562  0.00  0.00    +0.000 A 
ATOM     16  C   UNL     1      46.795   3.190   6.357  0.00  0.00    +0.000 A 
ATOM     17  N   UNL     1      46.113   3.957   7.244  0.00  0.00    +0.000 NA
ENDBRANCH   9  12
ENDBRANCH   7  10
ENDBRANCH   1   7
BRANCH   4  18
ATOM     18  C   UNL     1      48.358   8.187  14.595  0.00  0.00    +0.000 C 
BRANCH  18  19
ATOM     19  N   UNL     1      48.177   7.591  15.900  0.00  0.00    +0.000 N 
ATOM     20  C   UNL     1      49.084   6.728  16.451  0.00  0.00    +0.000 C 
ATOM     21  O   UNL     1      50.106   6.393  15.857  0.00  0.00    +0.000 OA
ATOM     22  H   UNL     1      47.249   7.684  16.304  0.00  0.00    +0.000 HD
BRANCH  20  23
ATOM     23  C   UNL     1      48.815   6.275  17.823  0.00  0.00    +0.000 A 
ATOM     24  C   UNL     1      49.029   4.945  18.159  0.00  0.00    +0.000 A 
ATOM     25  S   UNL     1      48.707   4.588  19.795  0.00  0.00    +0.000 S 
ATOM     26  C   UNL     1      48.226   6.190  20.105  0.00  0.00    +0.000 A 
ATOM     27  N   UNL     1      47.792   6.563  21.340  0.00  0.00    +0.000 NA
ATOM     28  C   UNL     1      47.423   7.799  21.427  0.00  0.00    +0.000 A 
ATOM     29  N   UNL     1      47.463   8.697  20.392  0.00  0.00    +0.000 N 
ATOM     30  C   UNL     1      47.948   8.380  19.146  0.00  0.00    +0.000 A 
ATOM     31  O   UNL     1      48.058   9.234  18.272  0.00  0.00    +0.000 OA
ATOM     32  C   UNL     1      48.336   6.993  18.982  0.00  0.00    +0.000 A 
ATOM     33  H   UNL     1      47.184   9.657  20.530  0.00  0.00    +0.000 HD
ENDBRANCH  20  23
ENDBRANCH  18  19
ENDBRANCH   4  18
TORSDOF 6
ENDMDL
MODEL 7
REMARK VINA RESULT:    -6.834      4.129      6.845
REMARK INTER + INTRA:         -10.212
REMARK INTER:                  -9.285
REMARK INTRA:                  -0.928
REMARK UNBOUND:                -0.982
REMARK  Name = 
REMARK  6 active torsions:
REMARK  status: ('A' for Active; 'I' for Inactive)
REMARK    1  A    between atoms: C_2  and  C_25
REMARK    2  A    between atoms: N_3  and  C_4
REMARK    3  A    between atoms: C_4  and  C_5
REMARK    4  A    between atoms: C_8  and  C_9
REMARK    5  A    between atoms: C_9  and  N_10
REMARK    6  A    between atoms: C_11  and  C_13
REMARK                            x       y       z     vdW  Elec       q    Type
REMARK                         _______ _______ _______ _____ _____    ______ ____
ROOT
ATOM      1  C   UNL     1      44.923   9.154  11.927  0.00  0.00    +0.000 A 
ATOM      2  C   UNL     1      45.967   9.092  12.852  0.00  0.00    +0.000 A 
ATOM      3  C   UNL     1      46.505   7.858  13.208  0.00  0.00    +0.000 A 
ATOM      4  C   UNL     1      45.967   6.702  12.651  0.00  0.00    +0.000 A 
ATOM      5  N   UNL     1      44.947   6.736  11.755  0.00  0.00    +0.000 NA
ATOM      6  C   UNL     1      44.455   7.951  11.415  0.00  0.00    +0.000 A 
ENDROOT
BRANCH   1   7
ATOM      7  C   UNL     1      44.351  10.462  11.477  0.00  0.00    +0.000 C 
BRANCH   7  10
ATOM      8  O   UNL     1      42.022  10.363   9.987  0.00  0.00    +0.000 OA
ATOM      9  C   UNL     1      41.938  10.662  11.174  0.00  0.00    +0.000 C 
ATOM     10  N   UNL     1      43.037  10.731  12.007  0.00  0.00    +0.000 N 
ATOM     11  H   UNL     1      42.895  11.010  12.974  0.00  0.00    +0.000 HD
BRANCH   9  12
ATOM     12  C   UNL     1      40.619  10.972  11.782  0.00  0.00    +0.000 A 
ATOM     13  C   UNL     1      40.525  12.007  12.704  0.00  0.00    +0.000 A 
ATOM     14  N   UNL     1      39.353  12.352  13.296  0.00  0.00    +0.000 NA
ATOM     15  C   UNL     1      38.283  11.613  12.922  0.00  0.00    +0.000 A 
ATOM     16  C   UNL     1      38.377  10.577  12.002  0.00  0.00    +0.000 A 
ATOM     17  N   UNL     1      39.543  10.225  11.404  0.00  0.00    +0.000 NA
ENDBRANCH   9  12
ENDBRANCH   7  10
ENDBRANCH   1   7
BRANCH   4  18
ATOM     18  C   UNL     1      46.518   5.347  13.023  0.00  0.00    +0.000 C 
BRANCH  18  19
ATOM     19  N   UNL     1      46.973   5.292  14.394  0.00  0.00    +0.000 N 
ATOM     20  C   UNL     1      47.364   4.127  14.998  0.00  0.00    +0.000 C 
ATOM     21  O   UNL     1      47.335   3.050  14.409  0.00  0.00    +0.000 OA
ATOM     22  H   UNL     1      46.797   6.123  14.952  0.00  0.00    +0.000 HD
BRANCH  20  23
ATOM     23  C   UNL     1      47.891   4.238  16.365  0.00  0.00    +0.000 A 
ATOM     24  C   UNL     1      47.472   3.337  17.335  0.00  0.00    +0.000 A 
ATOM     25  S   UNL     1      48.204   3.575  18.857  0.00  0.00    +0.000 S 
ATOM     26  C   UNL     1      49.076   4.920  18.288  0.00  0.00    +0.000 A 
ATOM     27  N   UNL     1      49.895   5.623  19.115  0.00  0.00    +0.000 NA
ATOM     28  C   UNL     1      50.467   6.642  18.563  0.00  0.00    +0.000 A 
ATOM     29  N   UNL     1      50.303   7.011  17.254  0.00  0.00    +0.000 N 
ATOM     30  C   UNL     1      49.532   6.298  16.367  0.00  0.00    +0.000 A 
ATOM     31  O   UNL     1      49.483   6.602  15.180  0.00  0.00    +0.000 OA
ATOM     32  C   UNL     1      48.833   5.167  16.947  0.00  0.00    +0.000 A 
ATOM     33  H   UNL     1      50.798   7.804  16.873  0.00  0.00    +0.000 HD
ENDBRANCH  20  23
ENDBRANCH  18  19
ENDBRANCH   4  18
TORSDOF 6
ENDMDL
MODEL 8
REMARK VINA RESULT:    -6.833      4.028      6.518
REMARK INTER + INTRA:         -10.212
REMARK INTER:                  -9.517
REMARK INTRA:                  -0.695
REMARK UNBOUND:                -0.982
REMARK  Name = 
REMARK  6 active torsions:
REMARK  status: ('A' for Active; 'I' for Inactive)
REMARK    1  A    between atoms: C_2  and  C_25
REMARK    2  A    between atoms: N_3  and  C_4
REMARK    3  A    between atoms: C_4  and  C_5
REMARK    4  A    between atoms: C_8  and  C_9
REMARK    5  A    between atoms: C_9  and  N_10
REMARK    6  A    between atoms: C_11  and  C_13
REMARK                            x       y       z     vdW  Elec       q    Type
REMARK                         _______ _______ _______ _____ _____    ______ ____
ROOT
ATOM      1  C   UNL     1      45.113   8.013  11.860  0.00  0.00    +0.000 A 
ATOM      2  C   UNL     1      46.339   8.011  12.527  0.00  0.00    +0.000 A 
ATOM      3  C   UNL     1      46.742   6.882  13.237  0.00  0.00    +0.000 A 
ATOM      4  C   UNL     1      45.892   5.782  13.290  0.00  0.00    +0.000 A 
ATOM      5  N   UNL     1      44.690   5.762  12.656  0.00  0.00    +0.000 NA
ATOM      6  C   UNL     1      44.334   6.867  11.960  0.00  0.00    +0.000 A 
ENDROOT
BRANCH   1   7
ATOM      7  C   UNL     1      44.666   9.185  11.044  0.00  0.00    +0.000 C 
BRANCH   7  10
ATOM      8  O   UNL     1      42.764  10.357   9.411  0.00  0.00    +0.000 OA
ATOM      9  C   UNL     1      42.568  10.357  10.622  0.00  0.00    +0.000 C 
ATOM     10  N   UNL     1      43.448   9.791  11.522  0.00  0.00    +0.000 N 
ATOM     11  H   UNL     1      43.232   9.852  12.514  0.00  0.00    +0.000 HD
BRANCH   9  12
ATOM     12  C   UNL     1      41.345  10.983  11.186  0.00  0.00    +0.000 A 
ATOM     13  C   UNL     1      40.202  11.066  10.401  0.00  0.00    +0.000 A 
ATOM     14  N   UNL     1      39.047  11.618  10.851  0.00  0.00    +0.000 NA
ATOM     15  C   UNL     1      39.090  12.083  12.120  0.00  0.00    +0.000 A 
ATOM     16  C   UNL     1      40.233  12.002  12.905  0.00  0.00    +0.000 A 
ATOM     17  N   UNL     1      41.392  11.452  12.466  0.00  0.00    +0.000 NA
ENDBRANCH   9  12
ENDBRANCH   7  10
ENDBRANCH   1   7
BRANCH   4  18
ATOM     18  C   UNL     1      46.291   4.546  14.059  0.00  0.00    +0.000 C 
BRANCH  18  19
ATOM     19  N   UNL     1      47.374   4.795  14.983  0.00  0.00    +0.000 N 
ATOM     20  C   UNL     1      47.433   4.223  16.225  0.00  0.00    +0.000 C 
ATOM     21  O   UNL     1      46.553   3.471  16.635  0.00  0.00    +0.000 OA
ATOM     22  H   UNL     1      47.986   5.572  14.749  0.00  0.00    +0.000 HD
BRANCH  20  23
ATOM     23  C   UNL     1      48.641   4.492  17.019  0.00  0.00    +0.000 A 
ATOM     24  C   UNL     1      48.782   5.719  17.654  0.00  0.00    +0.000 A 
ATOM     25  S   UNL     1      50.217   5.861  18.564  0.00  0.00    +0.000 S 
ATOM     26  C   UNL     1      50.725   4.304  18.106  0.00  0.00    +0.000 A 
ATOM     27  N   UNL     1      51.918   3.805  18.529  0.00  0.00    +0.000 NA
ATOM     28  C   UNL     1      52.197   2.626  18.077  0.00  0.00    +0.000 A 
ATOM     29  N   UNL     1      51.381   1.898  17.252  0.00  0.00    +0.000 N 
ATOM     30  C   UNL     1      50.143   2.336  16.847  0.00  0.00    +0.000 A 
ATOM     31  O   UNL     1      49.399   1.618  16.187  0.00  0.00    +0.000 OA
ATOM     32  C   UNL     1      49.799   3.672  17.292  0.00  0.00    +0.000 A 
ATOM     33  H   UNL     1      51.643   0.970  16.953  0.00  0.00    +0.000 HD
ENDBRANCH  20  23
ENDBRANCH  18  19
ENDBRANCH   4  18
TORSDOF 6
ENDMDL
MODEL 9
REMARK VINA RESULT:    -6.815      3.615      8.593
REMARK INTER + INTRA:         -10.187
REMARK INTER:                  -9.341
REMARK INTRA:                  -0.847
REMARK UNBOUND:                -0.982
REMARK  Name = 
REMARK  6 active torsions:
REMARK  status: ('A' for Active; 'I' for Inactive)
REMARK    1  A    between atoms: C_2  and  C_25
REMARK    2  A    between atoms: N_3  and  C_4
REMARK    3  A    between atoms: C_4  and  C_5
REMARK    4  A    between atoms: C_8  and  C_9
REMARK    5  A    between atoms: C_9  and  N_10
REMARK    6  A    between atoms: C_11  and  C_13
REMARK                            x       y       z     vdW  Elec       q    Type
REMARK                         _______ _______ _______ _____ _____    ______ ____
ROOT
ATOM      1  C   UNL     1      50.372   7.159  15.755  0.00  0.00    +0.000 A 
ATOM      2  C   UNL     1      49.095   6.636  15.543  0.00  0.00    +0.000 A 
ATOM      3  C   UNL     1      48.422   6.909  14.355  0.00  0.00    +0.000 A 
ATOM      4  C   UNL     1      49.030   7.730  13.410  0.00  0.00    +0.000 A 
ATOM      5  N   UNL     1      50.268   8.257  13.597  0.00  0.00    +0.000 NA
ATOM      6  C   UNL     1      50.905   7.959  14.753  0.00  0.00    +0.000 A 
ENDROOT
BRANCH   1   7
ATOM      7  C   UNL     1      51.151   6.847  16.994  0.00  0.00    +0.000 C 
BRANCH   7  10
ATOM      8  O   UNL     1      50.248   4.856  18.690  0.00  0.00    +0.000 OA
ATOM      9  C   UNL     1      51.160   4.588  17.916  0.00  0.00    +0.000 C 
ATOM     10  N   UNL     1      51.678   5.505  17.023  0.00  0.00    +0.000 N 
ATOM     11  H   UNL     1      52.452   5.219  16.429  0.00  0.00    +0.000 HD
BRANCH   9  12
ATOM     12  C   UNL     1      51.765   3.231  17.905  0.00  0.00    +0.000 A 
ATOM     13  C   UNL     1      51.066   2.182  17.322  0.00  0.00    +0.000 A 
ATOM     14  N   UNL     1      51.557   0.918  17.269  0.00  0.00    +0.000 NA
ATOM     15  C   UNL     1      52.778   0.755  17.827  0.00  0.00    +0.000 A 
ATOM     16  C   UNL     1      53.477   1.803  18.413  0.00  0.00    +0.000 A 
ATOM     17  N   UNL     1      52.996   3.069  18.470  0.00  0.00    +0.000 NA
ENDBRANCH   9  12
ENDBRANCH   7  10
ENDBRANCH   1   7
BRANCH   4  18
ATOM     18  C   UNL     1      48.325   8.056  12.116  0.00  0.00    +0.000 C 
BRANCH  18  19
ATOM     19  N   UNL     1      47.600   6.926  11.580  0.00  0.00    +0.000 N 
ATOM     20  C   UNL     1      46.234   6.890  11.508  0.00  0.00    +0.000 C 
ATOM     21  O   UNL     1      45.538   7.817  11.913  0.00  0.00    +0.000 OA
ATOM     22  H   UNL     1      48.141   6.077  11.446  0.00  0.00    +0.000 HD
BRANCH  20  23
ATOM     23  C   UNL     1      45.639   5.717  10.852  0.00  0.00    +0.000 A 
ATOM     24  C   UNL     1      45.808   5.537   9.486  0.00  0.00    +0.000 A 
ATOM     25  S   UNL     1      45.090   4.112   8.885  0.00  0.00    +0.000 S 
ATOM     26  C   UNL     1      44.487   3.704  10.422  0.00  0.00    +0.000 A 
ATOM     27  N   UNL     1      43.738   2.583  10.604  0.00  0.00    +0.000 NA
ATOM     28  C   UNL     1      43.314   2.412  11.813  0.00  0.00    +0.000 A 
ATOM     29  N   UNL     1      43.585   3.257  12.858  0.00  0.00    +0.000 N 
ATOM     30  C   UNL     1      44.384   4.367  12.734  0.00  0.00    +0.000 A 
ATOM     31  O   UNL     1      44.683   5.047  13.710  0.00  0.00    +0.000 OA
ATOM     32  C   UNL     1      44.853   4.628  11.387  0.00  0.00    +0.000 A 
ATOM     33  H   UNL     1      43.245   3.056  13.787  0.00  0.00    +0.000 HD
ENDBRANCH  20  23
ENDBRANCH  18  19
ENDBRANCH   4  18
TORSDOF 6
ENDMDL
