MODEL 1
REMARK VINA RESULT:    -8.193      0.000      0.000
REMARK INTER + INTRA:         -11.988
REMARK INTER:                 -10.827
REMARK INTRA:                  -1.162
REMARK UNBOUND:                -1.162
REMARK  Name = 
REMARK  6 active torsions:
REMARK  status: ('A' for Active; 'I' for Inactive)
REMARK    1  A    between atoms: N_1  and  C_2
REMARK    2  A    between atoms: C_5  and  O_6
REMARK    3  A    between atoms: O_6  and  C_7
REMARK    4  A    between atoms: C_10  and  C_11
REMARK    5  A    between atoms: C_11  and  N_12
REMARK    6  A    between atoms: C_13  and  C_15
REMARK                            x       y       z     vdW  Elec       q    Type
REMARK                         _______ _______ _______ _____ _____    ______ ____
ROOT
ATOM      1  C   UNL     1      44.355   3.212  10.269  0.00  0.00    +0.000 A 
ATOM      2  C   UNL     1      45.299   3.177  11.286  0.00  0.00    +0.000 A 
ATOM      3  C   UNL     1      45.270   4.182  12.249  0.00  0.00    +0.000 A 
ATOM      4  C   UNL     1      44.307   5.190  12.168  0.00  0.00    +0.000 A 
ATOM      5  C   UNL     1      43.379   5.108  11.136  0.00  0.00    +0.000 A 
ATOM      6  N   UNL     1      43.376   4.143  10.194  0.00  0.00    +0.000 NA
ENDROOT
BRANCH   1   7
ATOM      7  O   UNL     1      44.429   2.202   9.319  0.00  0.00    +0.000 OA
BRANCH   7  11
ATOM      8  C   UNL     1      47.482   2.360   6.456  0.00  0.00    +0.000 A 
ATOM      9  C   UNL     1      46.626   3.452   6.608  0.00  0.00    +0.000 A 
ATOM     10  C   UNL     1      45.617   3.439   7.576  0.00  0.00    +0.000 A 
ATOM     11  C   UNL     1      45.397   2.292   8.344  0.00  0.00    +0.000 A 
ATOM     12  C   UNL     1      46.229   1.187   8.178  0.00  0.00    +0.000 A 
ATOM     13  C   UNL     1      47.250   1.214   7.221  0.00  0.00    +0.000 A 
BRANCH   8  14
ATOM     14  N   UNL     1      48.403   2.333   5.401  0.00  0.00    +0.000 N 
ATOM     15  H   UNL     1      48.199   1.628   4.701  0.00  0.00    +0.000 HD
ATOM     16  H   UNL     1      48.585   3.244   4.994  0.00  0.00    +0.000 HD
ENDBRANCH   8  14
ENDBRANCH   7  11
ENDBRANCH   1   7
BRANCH   4  17
ATOM     17  C   UNL     1      44.239   6.298  13.173  0.00  0.00    +0.000 C 
BRANCH  17  18
ATOM     18  N   UNL     1      45.391   7.156  13.081  0.00  0.00    +0.000 N 
ATOM     19  C   UNL     1      45.533   8.113  12.111  0.00  0.00    +0.000 C 
ATOM     20  O   UNL     1      44.667   8.327  11.267  0.00  0.00    +0.000 OA
ATOM     21  H   UNL     1      46.204   6.878  13.619  0.00  0.00    +0.000 HD
BRANCH  19  22
ATOM     22  C   UNL     1      46.752   8.928  12.190  0.00  0.00    +0.000 A 
ATOM     23  C   UNL     1      46.669  10.306  12.042  0.00  0.00    +0.000 A 
ATOM     24  S   UNL     1      48.162  11.106  12.240  0.00  0.00    +0.000 S 
ATOM     25  C   UNL     1      48.983   9.635  12.478  0.00  0.00    +0.000 A 
ATOM     26  N   UNL     1      50.324   9.609  12.698  0.00  0.00    +0.000 NA
ATOM     27  C   UNL     1      50.824   8.424  12.817  0.00  0.00    +0.000 A 
ATOM     28  N   UNL     1      50.102   7.262  12.742  0.00  0.00    +0.000 N 
ATOM     29  C   UNL     1      48.736   7.241  12.590  0.00  0.00    +0.000 A 
ATOM     30  O   UNL     1      48.105   6.191  12.644  0.00  0.00    +0.000 OA
ATOM     31  C   UNL     1      48.128   8.548  12.418  0.00  0.00    +0.000 A 
ATOM     32  H   UNL     1      50.549   6.365  12.863  0.00  0.00    +0.000 HD
ENDBRANCH  19  22
ENDBRANCH  17  18
ENDBRANCH   4  17
TORSDOF 6
ENDMDL
MODEL 2
REMARK VINA RESULT:    -7.904      3.024      3.829
REMARK INTER + INTRA:         -11.607
REMARK INTER:                 -11.081
REMARK INTRA:                  -0.527
REMARK UNBOUND:                -1.162
REMARK  Name = 
REMARK  6 active torsions:
REMARK  status: ('A' for Active; 'I' for Inactive)
REMARK    1  A    between atoms: N_1  and  C_2
REMARK    2  A    between atoms: C_5  and  O_6
REMARK    3  A    between atoms: O_6  and  C_7
REMARK    4  A    between atoms: C_10  and  C_11
REMARK    5  A    between atoms: C_11  and  N_12
REMARK    6  A    between atoms: C_13  and  C_15
REMARK                            x       y       z     vdW  Elec       q    Type
REMARK                         _______ _______ _______ _____ _____    ______ ____
ROOT
ATOM      1  C   UNL     1      44.605   4.456   9.987  0.00  0.00    +0.000 A 
ATOM      2  C   UNL     1      45.767   5.170   9.732  0.00  0.00    +0.000 A 
ATOM      3  C   UNL     1      46.112   6.203  10.600  0.00  0.00    +0.000 A 
ATOM      4  C   UNL     1      45.288   6.494  11.689  0.00  0.00    +0.000 A 
ATOM      5  C   UNL     1      44.171   5.689  11.882  0.00  0.00    +0.000 A 
ATOM      6  N   UNL     1      43.817   4.677  11.064  0.00  0.00    +0.000 NA
ENDROOT
BRANCH   1   7
ATOM      7  O   UNL     1      44.289   3.446   9.088  0.00  0.00    +0.000 OA
BRANCH   7  11
ATOM      8  C   UNL     1      47.259   2.039   6.492  0.00  0.00    +0.000 A 
ATOM      9  C   UNL     1      46.872   1.257   7.580  0.00  0.00    +0.000 A 
ATOM     10  C   UNL     1      45.862   1.688   8.447  0.00  0.00    +0.000 A 
ATOM     11  C   UNL     1      45.291   2.951   8.283  0.00  0.00    +0.000 A 
ATOM     12  C   UNL     1      45.691   3.751   7.215  0.00  0.00    +0.000 A 
ATOM     13  C   UNL     1      46.689   3.306   6.339  0.00  0.00    +0.000 A 
BRANCH   8  14
ATOM     14  N   UNL     1      48.356   1.658   5.709  0.00  0.00    +0.000 N 
ATOM     15  H   UNL     1      49.014   1.058   6.196  0.00  0.00    +0.000 HD
ATOM     16  H   UNL     1      48.101   1.295   4.797  0.00  0.00    +0.000 HD
ENDBRANCH   8  14
ENDBRANCH   7  11
ENDBRANCH   1   7
BRANCH   4  17
ATOM     17  C   UNL     1      45.609   7.601  12.647  0.00  0.00    +0.000 C 
BRANCH  17  18
ATOM     18  N   UNL     1      46.381   7.118  13.761  0.00  0.00    +0.000 N 
ATOM     19  C   UNL     1      47.749   7.050  13.747  0.00  0.00    +0.000 C 
ATOM     20  O   UNL     1      48.416   7.429  12.789  0.00  0.00    +0.000 OA
ATOM     21  H   UNL     1      45.872   6.611  14.476  0.00  0.00    +0.000 HD
BRANCH  19  22
ATOM     22  C   UNL     1      48.380   6.572  14.985  0.00  0.00    +0.000 A 
ATOM     23  C   UNL     1      49.403   7.309  15.565  0.00  0.00    +0.000 A 
ATOM     24  S   UNL     1      49.968   6.655  17.035  0.00  0.00    +0.000 S 
ATOM     25  C   UNL     1      48.900   5.335  16.923  0.00  0.00    +0.000 A 
ATOM     26  N   UNL     1      48.876   4.370  17.881  0.00  0.00    +0.000 NA
ATOM     27  C   UNL     1      48.050   3.405  17.647  0.00  0.00    +0.000 A 
ATOM     28  N   UNL     1      47.242   3.320  16.544  0.00  0.00    +0.000 N 
ATOM     29  C   UNL     1      47.182   4.303  15.586  0.00  0.00    +0.000 A 
ATOM     30  O   UNL     1      46.365   4.255  14.673  0.00  0.00    +0.000 OA
ATOM     31  C   UNL     1      48.116   5.397  15.785  0.00  0.00    +0.000 A 
ATOM     32  H   UNL     1      46.603   2.547  16.429  0.00  0.00    +0.000 HD
ENDBRANCH  19  22
ENDBRANCH  17  18
ENDBRANCH   4  17
TORSDOF 6
ENDMDL
MODEL 3
REMARK VINA RESULT:    -7.792      1.664      2.901
REMARK INTER + INTRA:         -11.459
REMARK INTER:                 -10.603
REMARK INTRA:                  -0.856
REMARK UNBOUND:                -1.162
REMARK  Name = 
REMARK  6 active torsions:
REMARK  status: ('A' for Active; 'I' for Inactive)
REMARK    1  A    between atoms: N_1  and  C_2
REMARK    2  A    between atoms: C_5  and  O_6
REMARK    3  A    between atoms: O_6  and  C_7
REMARK    4  A    between atoms: C_10  and  C_11
REMARK    5  A    between atoms: C_11  and  N_12
REMARK    6  A    between atoms: C_13  and  C_15
REMARK                            x       y       z     vdW  Elec       q    Type
REMARK                         _______ _______ _______ _____ _____    ______ ____
ROOT
ATOM      1  C   UNL     1      44.349   3.354  10.199  0.00  0.00    +0.000 A 
ATOM      2  C   UNL     1      45.123   3.213  11.342  0.00  0.00    +0.000 A 
ATOM      3  C   UNL     1      45.137   4.257  12.263  0.00  0.00    +0.000 A 
ATOM      4  C   UNL     1      44.384   5.406  12.017  0.00  0.00    +0.000 A 
ATOM      5  C   UNL     1      43.606   5.429  10.865  0.00  0.00    +0.000 A 
ATOM      6  N   UNL     1      43.566   4.431   9.959  0.00  0.00    +0.000 NA
ENDROOT
BRANCH   1   7
ATOM      7  O   UNL     1      44.376   2.298   9.297  0.00  0.00    +0.000 OA
BRANCH   7  11
ATOM      8  C   UNL     1      47.379   2.286   6.376  0.00  0.00    +0.000 A 
ATOM      9  C   UNL     1      47.210   1.166   7.192  0.00  0.00    +0.000 A 
ATOM     10  C   UNL     1      46.196   1.131   8.155  0.00  0.00    +0.000 A 
ATOM     11  C   UNL     1      45.397   2.255   8.373  0.00  0.00    +0.000 A 
ATOM     12  C   UNL     1      45.578   3.388   7.582  0.00  0.00    +0.000 A 
ATOM     13  C   UNL     1      46.581   3.410   6.606  0.00  0.00    +0.000 A 
BRANCH   8  14
ATOM     14  N   UNL     1      48.474   2.360   5.507  0.00  0.00    +0.000 N 
ATOM     15  H   UNL     1      49.161   3.057   5.776  0.00  0.00    +0.000 HD
ATOM     16  H   UNL     1      48.894   1.461   5.299  0.00  0.00    +0.000 HD
ENDBRANCH   8  14
ENDBRANCH   7  11
ENDBRANCH   1   7
BRANCH   4  17
ATOM     17  C   UNL     1      44.372   6.560  12.972  0.00  0.00    +0.000 C 
BRANCH  17  18
ATOM     18  N   UNL     1      45.144   7.664  12.464  0.00  0.00    +0.000 N 
ATOM     19  C   UNL     1      46.405   7.959  12.910  0.00  0.00    +0.000 C 
ATOM     20  O   UNL     1      46.980   7.279  13.755  0.00  0.00    +0.000 OA
ATOM     21  H   UNL     1      44.637   8.360  11.928  0.00  0.00    +0.000 HD
BRANCH  19  22
ATOM     22  C   UNL     1      47.067   9.095  12.253  0.00  0.00    +0.000 A 
ATOM     23  C   UNL     1      48.427   9.037  11.983  0.00  0.00    +0.000 A 
ATOM     24  S   UNL     1      49.017  10.402  11.148  0.00  0.00    +0.000 S 
ATOM     25  C   UNL     1      47.486  11.144  11.165  0.00  0.00    +0.000 A 
ATOM     26  N   UNL     1      47.296  12.370  10.608  0.00  0.00    +0.000 NA
ATOM     27  C   UNL     1      46.096  12.833  10.732  0.00  0.00    +0.000 A 
ATOM     28  N   UNL     1      45.068  12.178  11.357  0.00  0.00    +0.000 N 
ATOM     29  C   UNL     1      45.196  10.911  11.873  0.00  0.00    +0.000 A 
ATOM     30  O   UNL     1      44.228  10.305  12.321  0.00  0.00    +0.000 OA
ATOM     31  C   UNL     1      46.535  10.357  11.789  0.00  0.00    +0.000 A 
ATOM     32  H   UNL     1      44.146  12.587  11.404  0.00  0.00    +0.000 HD
ENDBRANCH  19  22
ENDBRANCH  17  18
ENDBRANCH   4  17
TORSDOF 6
ENDMDL
MODEL 4
REMARK VINA RESULT:    -7.467      3.771      4.716
REMARK INTER + INTRA:         -11.029
REMARK INTER:                 -10.195
REMARK INTRA:                  -0.834
REMARK UNBOUND:                -1.162
REMARK  Name = 
REMARK  6 active torsions:
REMARK  status: ('A' for Active; 'I' for Inactive)
REMARK    1  A    between atoms: N_1  and  C_2
REMARK    2  A    between atoms: C_5  and  O_6
REMARK    3  A    between atoms: O_6  and  C_7
REMARK    4  A    between atoms: C_10  and  C_11
REMARK    5  A    between atoms: C_11  and  N_12
REMARK    6  A    between atoms: C_13  and  C_15
REMARK                            x       y       z     vdW  Elec       q    Type
REMARK                         _______ _______ _______ _____ _____    ______ ____
ROOT
ATOM      1  C   UNL     1      44.922   5.621  11.128  0.00  0.00    +0.000 A 
ATOM      2  C   UNL     1      45.835   5.048  12.001  0.00  0.00    +0.000 A 
ATOM      3  C   UNL     1      46.612   5.891  12.792  0.00  0.00    +0.000 A 
ATOM      4  C   UNL     1      46.457   7.275  12.685  0.00  0.00    +0.000 A 
ATOM      5  C   UNL     1      45.482   7.746  11.813  0.00  0.00    +0.000 A 
ATOM      6  N   UNL     1      44.710   6.954  11.041  0.00  0.00    +0.000 NA
ENDROOT
BRANCH   1   7
ATOM      7  O   UNL     1      44.180   4.746  10.345  0.00  0.00    +0.000 OA
BRANCH   7  11
ATOM      8  C   UNL     1      46.213   2.237   7.677  0.00  0.00    +0.000 A 
ATOM      9  C   UNL     1      45.498   1.677   8.736  0.00  0.00    +0.000 A 
ATOM     10  C   UNL     1      44.785   2.489   9.625  0.00  0.00    +0.000 A 
ATOM     11  C   UNL     1      44.856   3.879   9.514  0.00  0.00    +0.000 A 
ATOM     12  C   UNL     1      45.592   4.448   8.477  0.00  0.00    +0.000 A 
ATOM     13  C   UNL     1      46.287   3.630   7.579  0.00  0.00    +0.000 A 
BRANCH   8  14
ATOM     14  N   UNL     1      47.025   1.427   6.874  0.00  0.00    +0.000 N 
ATOM     15  H   UNL     1      47.992   1.734   6.831  0.00  0.00    +0.000 HD
ATOM     16  H   UNL     1      46.940   0.436   7.074  0.00  0.00    +0.000 HD
ENDBRANCH   8  14
ENDBRANCH   7  11
ENDBRANCH   1   7
BRANCH   4  17
ATOM     17  C   UNL     1      47.274   8.225  13.506  0.00  0.00    +0.000 C 
BRANCH  17  18
ATOM     18  N   UNL     1      47.643   7.639  14.767  0.00  0.00    +0.000 N 
ATOM     19  C   UNL     1      48.853   7.033  14.983  0.00  0.00    +0.000 C 
ATOM     20  O   UNL     1      49.723   6.977  14.118  0.00  0.00    +0.000 OA
ATOM     21  H   UNL     1      46.892   7.482  15.429  0.00  0.00    +0.000 HD
BRANCH  19  22
ATOM     22  C   UNL     1      49.082   6.525  16.342  0.00  0.00    +0.000 A 
ATOM     23  C   UNL     1      49.708   7.332  17.282  0.00  0.00    +0.000 A 
ATOM     24  S   UNL     1      49.823   6.620  18.827  0.00  0.00    +0.000 S 
ATOM     25  C   UNL     1      49.087   5.186  18.282  0.00  0.00    +0.000 A 
ATOM     26  N   UNL     1      48.886   4.137  19.124  0.00  0.00    +0.000 NA
ATOM     27  C   UNL     1      48.359   3.097  18.568  0.00  0.00    +0.000 A 
ATOM     28  N   UNL     1      48.010   3.013  17.246  0.00  0.00    +0.000 N 
ATOM     29  C   UNL     1      48.130   4.068  16.375  0.00  0.00    +0.000 A 
ATOM     30  O   UNL     1      47.700   4.000  15.228  0.00  0.00    +0.000 OA
ATOM     31  C   UNL     1      48.748   5.253  16.942  0.00  0.00    +0.000 A 
ATOM     32  H   UNL     1      47.583   2.176  16.876  0.00  0.00    +0.000 HD
ENDBRANCH  19  22
ENDBRANCH  17  18
ENDBRANCH   4  17
TORSDOF 6
ENDMDL
MODEL 5
REMARK VINA RESULT:    -6.975      4.577      8.244
REMARK INTER + INTRA:         -10.379
REMARK INTER:                  -9.728
REMARK INTRA:                  -0.651
REMARK UNBOUND:                -1.162
REMARK  Name = 
REMARK  6 active torsions:
REMARK  status: ('A' for Active; 'I' for Inactive)
REMARK    1  A    between atoms: N_1  and  C_2
REMARK    2  A    between atoms: C_5  and  O_6
REMARK    3  A    between atoms: O_6  and  C_7
REMARK    4  A    between atoms: C_10  and  C_11
REMARK    5  A    between atoms: C_11  and  N_12
REMARK    6  A    between atoms: C_13  and  C_15
REMARK                            x       y       z     vdW  Elec       q    Type
REMARK                         _______ _______ _______ _____ _____    ______ ____
ROOT
ATOM      1  C   UNL     1      49.751   6.128  16.349  0.00  0.00    +0.000 A 
ATOM      2  C   UNL     1      50.544   7.076  15.719  0.00  0.00    +0.000 A 
ATOM      3  C   UNL     1      50.128   7.571  14.486  0.00  0.00    +0.000 A 
ATOM      4  C   UNL     1      48.940   7.106  13.919  0.00  0.00    +0.000 A 
ATOM      5  C   UNL     1      48.195   6.189  14.654  0.00  0.00    +0.000 A 
ATOM      6  N   UNL     1      48.568   5.698  15.853  0.00  0.00    +0.000 NA
ENDROOT
BRANCH   1   7
ATOM      7  O   UNL     1      50.210   5.647  17.568  0.00  0.00    +0.000 OA
BRANCH   7  11
ATOM      8  C   UNL     1      51.644   1.715  17.729  0.00  0.00    +0.000 A 
ATOM      9  C   UNL     1      50.300   1.944  17.432  0.00  0.00    +0.000 A 
ATOM     10  C   UNL     1      49.800   3.247  17.342  0.00  0.00    +0.000 A 
ATOM     11  C   UNL     1      50.624   4.335  17.639  0.00  0.00    +0.000 A 
ATOM     12  C   UNL     1      51.961   4.114  17.965  0.00  0.00    +0.000 A 
ATOM     13  C   UNL     1      52.460   2.808  18.033  0.00  0.00    +0.000 A 
BRANCH   8  14
ATOM     14  N   UNL     1      52.102   0.409  17.942  0.00  0.00    +0.000 N 
ATOM     15  H   UNL     1      52.549  -0.004  17.129  0.00  0.00    +0.000 HD
ATOM     16  H   UNL     1      52.654   0.301  18.785  0.00  0.00    +0.000 HD
ENDBRANCH   8  14
ENDBRANCH   7  11
ENDBRANCH   1   7
BRANCH   4  17
ATOM     17  C   UNL     1      48.452   7.599  12.592  0.00  0.00    +0.000 C 
BRANCH  17  18
ATOM     18  N   UNL     1      47.638   6.610  11.935  0.00  0.00    +0.000 N 
ATOM     19  C   UNL     1      46.328   6.827  11.598  0.00  0.00    +0.000 C 
ATOM     20  O   UNL     1      45.765   7.898  11.805  0.00  0.00    +0.000 OA
ATOM     21  H   UNL     1      47.995   5.661  11.935  0.00  0.00    +0.000 HD
BRANCH  19  22
ATOM     22  C   UNL     1      45.658   5.726  10.895  0.00  0.00    +0.000 A 
ATOM     23  C   UNL     1      45.783   5.611   9.517  0.00  0.00    +0.000 A 
ATOM     24  S   UNL     1      45.010   4.235   8.872  0.00  0.00    +0.000 S 
ATOM     25  C   UNL     1      44.435   3.771  10.405  0.00  0.00    +0.000 A 
ATOM     26  N   UNL     1      43.675   2.654  10.559  0.00  0.00    +0.000 NA
ATOM     27  C   UNL     1      43.269   2.445  11.768  0.00  0.00    +0.000 A 
ATOM     28  N   UNL     1      43.560   3.250  12.838  0.00  0.00    +0.000 N 
ATOM     29  C   UNL     1      44.379   4.349  12.742  0.00  0.00    +0.000 A 
ATOM     30  O   UNL     1      44.715   4.982  13.738  0.00  0.00    +0.000 OA
ATOM     31  C   UNL     1      44.836   4.648  11.397  0.00  0.00    +0.000 A 
ATOM     32  H   UNL     1      43.228   3.022  13.763  0.00  0.00    +0.000 HD
ENDBRANCH  19  22
ENDBRANCH  17  18
ENDBRANCH   4  17
TORSDOF 6
ENDMDL
MODEL 6
REMARK VINA RESULT:    -6.850      6.119      7.999
REMARK INTER + INTRA:         -10.214
REMARK INTER:                  -9.390
REMARK INTRA:                  -0.824
REMARK UNBOUND:                -1.162
REMARK  Name = 
REMARK  6 active torsions:
REMARK  status: ('A' for Active; 'I' for Inactive)
REMARK    1  A    between atoms: N_1  and  C_2
REMARK    2  A    between atoms: C_5  and  O_6
REMARK    3  A    between atoms: O_6  and  C_7
REMARK    4  A    between atoms: C_10  and  C_11
REMARK    5  A    between atoms: C_11  and  N_12
REMARK    6  A    between atoms: C_13  and  C_15
REMARK                            x       y       z     vdW  Elec       q    Type
REMARK                         _______ _______ _______ _____ _____    ______ ____
ROOT
ATOM      1  C   UNL     1      47.037   4.081  14.449  0.00  0.00    +0.000 A 
ATOM      2  C   UNL     1      47.422   5.413  14.478  0.00  0.00    +0.000 A 
ATOM      3  C   UNL     1      48.069   5.890  15.615  0.00  0.00    +0.000 A 
ATOM      4  C   UNL     1      48.309   5.027  16.686  0.00  0.00    +0.000 A 
ATOM      5  C   UNL     1      47.925   3.699  16.539  0.00  0.00    +0.000 A 
ATOM      6  N   UNL     1      47.305   3.207  15.447  0.00  0.00    +0.000 NA
ENDROOT
BRANCH   1   7
ATOM      7  O   UNL     1      46.379   3.650  13.305  0.00  0.00    +0.000 OA
BRANCH   7  11
ATOM      8  C   UNL     1      43.462   6.092  11.552  0.00  0.00    +0.000 A 
ATOM      9  C   UNL     1      44.794   6.220  11.155  0.00  0.00    +0.000 A 
ATOM     10  C   UNL     1      45.784   5.397  11.701  0.00  0.00    +0.000 A 
ATOM     11  C   UNL     1      45.464   4.497  12.720  0.00  0.00    +0.000 A 
ATOM     12  C   UNL     1      44.142   4.383  13.143  0.00  0.00    +0.000 A 
ATOM     13  C   UNL     1      43.151   5.195  12.578  0.00  0.00    +0.000 A 
BRANCH   8  14
ATOM     14  N   UNL     1      42.504   7.004  11.094  0.00  0.00    +0.000 N 
ATOM     15  H   UNL     1      41.879   6.621  10.392  0.00  0.00    +0.000 HD
ATOM     16  H   UNL     1      42.006   7.482  11.837  0.00  0.00    +0.000 HD
ENDBRANCH   8  14
ENDBRANCH   7  11
ENDBRANCH   1   7
BRANCH   4  17
ATOM     17  C   UNL     1      48.993   5.491  17.935  0.00  0.00    +0.000 C 
BRANCH  17  18
ATOM     18  N   UNL     1      50.157   4.693  18.220  0.00  0.00    +0.000 N 
ATOM     19  C   UNL     1      51.341   4.835  17.546  0.00  0.00    +0.000 C 
ATOM     20  O   UNL     1      51.503   5.680  16.671  0.00  0.00    +0.000 OA
ATOM     21  H   UNL     1      50.007   3.861  18.779  0.00  0.00    +0.000 HD
BRANCH  19  22
ATOM     22  C   UNL     1      52.439   3.968  17.993  0.00  0.00    +0.000 A 
ATOM     23  C   UNL     1      53.577   4.532  18.555  0.00  0.00    +0.000 A 
ATOM     24  S   UNL     1      54.717   3.382  19.091  0.00  0.00    +0.000 S 
ATOM     25  C   UNL     1      53.755   2.090  18.543  0.00  0.00    +0.000 A 
ATOM     26  N   UNL     1      54.164   0.802  18.688  0.00  0.00    +0.000 NA
ATOM     27  C   UNL     1      53.358  -0.075  18.188  0.00  0.00    +0.000 A 
ATOM     28  N   UNL     1      52.177   0.220  17.559  0.00  0.00    +0.000 N 
ATOM     29  C   UNL     1      51.691   1.500  17.450  0.00  0.00    +0.000 A 
ATOM     30  O   UNL     1      50.576   1.722  16.988  0.00  0.00    +0.000 OA
ATOM     31  C   UNL     1      52.575   2.529  17.968  0.00  0.00    +0.000 A 
ATOM     32  H   UNL     1      51.581  -0.514  17.206  0.00  0.00    +0.000 HD
ENDBRANCH  19  22
ENDBRANCH  17  18
ENDBRANCH   4  17
TORSDOF 6
ENDMDL
MODEL 7
REMARK VINA RESULT:    -6.601      4.306      8.770
REMARK INTER + INTRA:          -9.885
REMARK INTER:                  -8.937
REMARK INTRA:                  -0.948
REMARK UNBOUND:                -1.162
REMARK  Name = 
REMARK  6 active torsions:
REMARK  status: ('A' for Active; 'I' for Inactive)
REMARK    1  A    between atoms: N_1  and  C_2
REMARK    2  A    between atoms: C_5  and  O_6
REMARK    3  A    between atoms: O_6  and  C_7
REMARK    4  A    between atoms: C_10  and  C_11
REMARK    5  A    between atoms: C_11  and  N_12
REMARK    6  A    between atoms: C_13  and  C_15
REMARK                            x       y       z     vdW  Elec       q    Type
REMARK                         _______ _______ _______ _____ _____    ______ ____
ROOT
ATOM      1  C   UNL     1      49.135   7.787  15.646  0.00  0.00    +0.000 A 
ATOM      2  C   UNL     1      48.424   8.923  15.286  0.00  0.00    +0.000 A 
ATOM      3  C   UNL     1      47.776   8.933  14.054  0.00  0.00    +0.000 A 
ATOM      4  C   UNL     1      47.859   7.816  13.220  0.00  0.00    +0.000 A 
ATOM      5  C   UNL     1      48.558   6.712  13.695  0.00  0.00    +0.000 A 
ATOM      6  N   UNL     1      49.188   6.670  14.886  0.00  0.00    +0.000 NA
ENDROOT
BRANCH   1   7
ATOM      7  O   UNL     1      49.782   7.824  16.875  0.00  0.00    +0.000 OA
BRANCH   7  11
ATOM      8  C   UNL     1      48.759   4.893  19.686  0.00  0.00    +0.000 A 
ATOM      9  C   UNL     1      47.928   6.001  19.518  0.00  0.00    +0.000 A 
ATOM     10  C   UNL     1      48.229   6.981  18.566  0.00  0.00    +0.000 A 
ATOM     11  C   UNL     1      49.416   6.905  17.833  0.00  0.00    +0.000 A 
ATOM     12  C   UNL     1      50.266   5.816  18.016  0.00  0.00    +0.000 A 
ATOM     13  C   UNL     1      49.949   4.828  18.957  0.00  0.00    +0.000 A 
BRANCH   8  14
ATOM     14  N   UNL     1      48.517   3.988  20.727  0.00  0.00    +0.000 N 
ATOM     15  H   UNL     1      49.104   3.161  20.693  0.00  0.00    +0.000 HD
ATOM     16  H   UNL     1      48.502   4.415  21.646  0.00  0.00    +0.000 HD
ENDBRANCH   8  14
ENDBRANCH   7  11
ENDBRANCH   1   7
BRANCH   4  17
ATOM     17  C   UNL     1      47.187   7.779  11.881  0.00  0.00    +0.000 C 
BRANCH  17  18
ATOM     18  N   UNL     1      46.546   6.511  11.655  0.00  0.00    +0.000 N 
ATOM     19  C   UNL     1      45.186   6.368  11.568  0.00  0.00    +0.000 C 
ATOM     20  O   UNL     1      44.418   7.322  11.646  0.00  0.00    +0.000 OA
ATOM     21  H   UNL     1      47.119   5.686  11.791  0.00  0.00    +0.000 HD
BRANCH  19  22
ATOM     22  C   UNL     1      44.702   5.009  11.292  0.00  0.00    +0.000 A 
ATOM     23  C   UNL     1      43.947   4.340  12.245  0.00  0.00    +0.000 A 
ATOM     24  S   UNL     1      43.400   2.808  11.733  0.00  0.00    +0.000 S 
ATOM     25  C   UNL     1      44.197   2.962  10.238  0.00  0.00    +0.000 A 
ATOM     26  N   UNL     1      44.140   1.970   9.309  0.00  0.00    +0.000 NA
ATOM     27  C   UNL     1      44.826   2.200   8.239  0.00  0.00    +0.000 A 
ATOM     28  N   UNL     1      45.560   3.334   8.011  0.00  0.00    +0.000 N 
ATOM     29  C   UNL     1      45.592   4.389   8.890  0.00  0.00    +0.000 A 
ATOM     30  O   UNL     1      46.162   5.438   8.606  0.00  0.00    +0.000 OA
ATOM     31  C   UNL     1      44.863   4.169  10.126  0.00  0.00    +0.000 A 
ATOM     32  H   UNL     1      46.061   3.461   7.144  0.00  0.00    +0.000 HD
ENDBRANCH  19  22
ENDBRANCH  17  18
ENDBRANCH   4  17
TORSDOF 6
ENDMDL
MODEL 8
REMARK VINA RESULT:    -6.480      5.706     10.042
REMARK INTER + INTRA:          -9.726
REMARK INTER:                  -8.626
REMARK INTRA:                  -1.100
REMARK UNBOUND:                -1.162
REMARK  Name = 
REMARK  6 active torsions:
REMARK  status: ('A' for Active; 'I' for Inactive)
REMARK    1  A    between atoms: N_1  and  C_2
REMARK    2  A    between atoms: C_5  and  O_6
REMARK    3  A    between atoms: O_6  and  C_7
REMARK    4  A    between atoms: C_10  and  C_11
REMARK    5  A    between atoms: C_11  and  N_12
REMARK    6  A    between atoms: C_13  and  C_15
REMARK                            x       y       z     vdW  Elec       q    Type
REMARK                         _______ _______ _______ _____ _____    ______ ____
ROOT
ATOM      1  C   UNL     1      48.670   6.631  19.224  0.00  0.00    +0.000 A 
ATOM      2  C   UNL     1      47.607   5.745  19.318  0.00  0.00    +0.000 A 
ATOM      3  C   UNL     1      47.334   4.921  18.228  0.00  0.00    +0.000 A 
ATOM      4  C   UNL     1      48.125   5.010  17.081  0.00  0.00    +0.000 A 
ATOM      5  C   UNL     1      49.194   5.898  17.105  0.00  0.00    +0.000 A 
ATOM      6  N   UNL     1      49.488   6.701  18.148  0.00  0.00    +0.000 NA
ENDROOT
BRANCH   1   7
ATOM      7  O   UNL     1      48.898   7.446  20.325  0.00  0.00    +0.000 OA
BRANCH   7  11
ATOM      8  C   UNL     1      45.987  10.276  21.355  0.00  0.00    +0.000 A 
ATOM      9  C   UNL     1      46.537  10.293  20.073  0.00  0.00    +0.000 A 
ATOM     10  C   UNL     1      47.489   9.342  19.692  0.00  0.00    +0.000 A 
ATOM     11  C   UNL     1      47.967   8.416  20.623  0.00  0.00    +0.000 A 
ATOM     12  C   UNL     1      47.443   8.410  21.914  0.00  0.00    +0.000 A 
ATOM     13  C   UNL     1      46.476   9.352  22.284  0.00  0.00    +0.000 A 
BRANCH   8  14
ATOM     14  N   UNL     1      45.133  11.307  21.765  0.00  0.00    +0.000 N 
ATOM     15  H   UNL     1      44.415  11.007  22.417  0.00  0.00    +0.000 HD
ATOM     16  H   UNL     1      45.619  12.140  22.079  0.00  0.00    +0.000 HD
ENDBRANCH   8  14
ENDBRANCH   7  11
ENDBRANCH   1   7
BRANCH   4  17
ATOM     17  C   UNL     1      47.867   4.154  15.879  0.00  0.00    +0.000 C 
BRANCH  17  18
ATOM     18  N   UNL     1      46.916   4.772  14.993  0.00  0.00    +0.000 N 
ATOM     19  C   UNL     1      47.286   5.537  13.918  0.00  0.00    +0.000 C 
ATOM     20  O   UNL     1      48.461   5.722  13.616  0.00  0.00    +0.000 OA
ATOM     21  H   UNL     1      45.958   4.816  15.320  0.00  0.00    +0.000 HD
BRANCH  19  22
ATOM     22  C   UNL     1      46.187   6.057  13.095  0.00  0.00    +0.000 A 
ATOM     23  C   UNL     1      46.132   7.412  12.796  0.00  0.00    +0.000 A 
ATOM     24  S   UNL     1      44.839   7.834  11.767  0.00  0.00    +0.000 S 
ATOM     25  C   UNL     1      44.275   6.229  11.725  0.00  0.00    +0.000 A 
ATOM     26  N   UNL     1      43.167   5.894  11.012  0.00  0.00    +0.000 NA
ATOM     27  C   UNL     1      42.826   4.652  11.105  0.00  0.00    +0.000 A 
ATOM     28  N   UNL     1      43.497   3.712  11.843  0.00  0.00    +0.000 N 
ATOM     29  C   UNL     1      44.658   3.988  12.523  0.00  0.00    +0.000 A 
ATOM     30  O   UNL     1      45.299   3.101  13.077  0.00  0.00    +0.000 OA
ATOM     31  C   UNL     1      45.068   5.380  12.478  0.00  0.00    +0.000 A 
ATOM     32  H   UNL     1      43.189   2.751  11.859  0.00  0.00    +0.000 HD
ENDBRANCH  19  22
ENDBRANCH  17  18
ENDBRANCH   4  17
TORSDOF 6
ENDMDL
MODEL 9
REMARK VINA RESULT:    -6.381      4.549      8.202
REMARK INTER + INTRA:          -9.595
REMARK INTER:                  -8.676
REMARK INTRA:                  -0.919
REMARK UNBOUND:                -1.162
REMARK  Name = 
REMARK  6 active torsions:
REMARK  status: ('A' for Active; 'I' for Inactive)
REMARK    1  A    between atoms: N_1  and  C_2
REMARK    2  A    between atoms: C_5  and  O_6
REMARK    3  A    between atoms: O_6  and  C_7
REMARK    4  A    between atoms: C_10  and  C_11
REMARK    5  A    between atoms: C_11  and  N_12
REMARK    6  A    between atoms: C_13  and  C_15
REMARK                            x       y       z     vdW  Elec       q    Type
REMARK                         _______ _______ _______ _____ _____    ______ ____
ROOT
ATOM      1  C   UNL     1      50.014   6.664  17.166  0.00  0.00    +0.000 A 
ATOM      2  C   UNL     1      48.966   7.481  17.564  0.00  0.00    +0.000 A 
ATOM      3  C   UNL     1      48.279   8.198  16.586  0.00  0.00    +0.000 A 
ATOM      4  C   UNL     1      48.660   8.081  15.248  0.00  0.00    +0.000 A 
ATOM      5  C   UNL     1      49.694   7.200  14.950  0.00  0.00    +0.000 A 
ATOM      6  N   UNL     1      50.371   6.486  15.873  0.00  0.00    +0.000 NA
ENDROOT
BRANCH   1   7
ATOM      7  O   UNL     1      50.683   5.980  18.173  0.00  0.00    +0.000 OA
BRANCH   7  11
ATOM      8  C   UNL     1      51.570   1.932  17.564  0.00  0.00    +0.000 A 
ATOM      9  C   UNL     1      52.606   2.830  17.825  0.00  0.00    +0.000 A 
ATOM     10  C   UNL     1      52.336   4.182  18.062  0.00  0.00    +0.000 A 
ATOM     11  C   UNL     1      51.031   4.666  17.950  0.00  0.00    +0.000 A 
ATOM     12  C   UNL     1      49.994   3.781  17.661  0.00  0.00    +0.000 A 
ATOM     13  C   UNL     1      50.268   2.426  17.444  0.00  0.00    +0.000 A 
BRANCH   8  14
ATOM     14  N   UNL     1      51.862   0.611  17.203  0.00  0.00    +0.000 N 
ATOM     15  H   UNL     1      51.102  -0.037  17.381  0.00  0.00    +0.000 HD
ATOM     16  H   UNL     1      52.242   0.517  16.267  0.00  0.00    +0.000 HD
ENDBRANCH   8  14
ENDBRANCH   7  11
ENDBRANCH   1   7
BRANCH   4  17
ATOM     17  C   UNL     1      47.961   8.837  14.161  0.00  0.00    +0.000 C 
BRANCH  17  18
ATOM     18  N   UNL     1      46.837   8.095  13.651  0.00  0.00    +0.000 N 
ATOM     19  C   UNL     1      46.889   7.365  12.492  0.00  0.00    +0.000 C 
ATOM     20  O   UNL     1      47.913   7.267  11.823  0.00  0.00    +0.000 OA
ATOM     21  H   UNL     1      45.933   8.314  14.053  0.00  0.00    +0.000 HD
BRANCH  19  22
ATOM     22  C   UNL     1      45.664   6.636  12.141  0.00  0.00    +0.000 A 
ATOM     23  C   UNL     1      44.611   7.310  11.538  0.00  0.00    +0.000 A 
ATOM     24  S   UNL     1      43.300   6.300  11.124  0.00  0.00    +0.000 S 
ATOM     25  C   UNL     1      44.071   4.934  11.784  0.00  0.00    +0.000 A 
ATOM     26  N   UNL     1      43.472   3.714  11.766  0.00  0.00    +0.000 NA
ATOM     27  C   UNL     1      44.149   2.777  12.340  0.00  0.00    +0.000 A 
ATOM     28  N   UNL     1      45.375   2.948  12.927  0.00  0.00    +0.000 N 
ATOM     29  C   UNL     1      46.049   4.145  12.909  0.00  0.00    +0.000 A 
ATOM     30  O   UNL     1      47.195   4.238  13.338  0.00  0.00    +0.000 OA
ATOM     31  C   UNL     1      45.316   5.242  12.304  0.00  0.00    +0.000 A 
ATOM     32  H   UNL     1      45.863   2.169  13.344  0.00  0.00    +0.000 HD
ENDBRANCH  19  22
ENDBRANCH  17  18
ENDBRANCH   4  17
TORSDOF 6
ENDMDL
