MODEL 1
REMARK VINA RESULT:    -8.267      0.000      0.000
REMARK INTER + INTRA:         -12.516
REMARK INTER:                 -11.649
REMARK INTRA:                  -0.867
REMARK UNBOUND:                -0.867
REMARK  Name = 
REMARK  9 active torsions:
REMARK  status: ('A' for Active; 'I' for Inactive)
REMARK    1  A    between atoms: C_1  and  C_2
REMARK    2  A    between atoms: C_6  and  C_7
REMARK    3  A    between atoms: C_7  and  O_8
REMARK    4  A    between atoms: O_8  and  C_9
REMARK    5  A    between atoms: C_9  and  C_10
REMARK    6  A    between atoms: C_13  and  C_14
REMARK    7  A    between atoms: C_14  and  N_15
REMARK    8  A    between atoms: N_15  and  C_16
REMARK    9  A    between atoms: C_17  and  C_19
REMARK                            x       y       z     vdW  Elec       q    Type
REMARK                         _______ _______ _______ _____ _____    ______ ____
ROOT
ATOM      1  C   UNL     1      44.430   3.762  12.577  0.00  0.00    +0.000 A 
ATOM      2  C   UNL     1      44.231   5.124  12.775  0.00  0.00    +0.000 A 
ATOM      3  N   UNL     1      45.195   5.963  13.229  0.00  0.00    +0.000 NA
ATOM      4  C   UNL     1      46.408   5.398  13.463  0.00  0.00    +0.000 A 
ATOM      5  C   UNL     1      46.604   4.028  13.286  0.00  0.00    +0.000 A 
ATOM      6  N   UNL     1      45.625   3.183  12.864  0.00  0.00    +0.000 NA
ENDROOT
BRANCH   1   7
ATOM      7  C   UNL     1      43.317   2.922  11.998  0.00  0.00    +0.000 C 
BRANCH   7   8
ATOM      8  O   UNL     1      43.642   2.595  10.644  0.00  0.00    +0.000 OA
BRANCH   8   9
ATOM      9  C   UNL     1      44.102   3.722   9.902  0.00  0.00    +0.000 C 
BRANCH   9  15
ATOM     10  C   UNL     1      46.751   0.048   7.697  0.00  0.00    +0.000 C 
ATOM     11  C   UNL     1      46.436   1.511   7.826  0.00  0.00    +0.000 A 
ATOM     12  C   UNL     1      47.094   2.461   7.039  0.00  0.00    +0.000 A 
ATOM     13  C   UNL     1      46.788   3.815   7.174  0.00  0.00    +0.000 A 
ATOM     14  C   UNL     1      45.822   4.232   8.093  0.00  0.00    +0.000 A 
ATOM     15  C   UNL     1      45.135   3.296   8.880  0.00  0.00    +0.000 A 
ATOM     16  C   UNL     1      45.465   1.938   8.745  0.00  0.00    +0.000 A 
ENDBRANCH   9  15
ENDBRANCH   8   9
ENDBRANCH   7   8
ENDBRANCH   1   7
BRANCH   4  17
ATOM     17  C   UNL     1      47.542   6.316  13.859  0.00  0.00    +0.000 C 
BRANCH  17  18
ATOM     18  N   UNL     1      47.711   7.450  12.956  0.00  0.00    +0.000 N 
ATOM     19  C   UNL     1      47.961   7.151  11.551  0.00  0.00    +0.000 C 
ATOM     20  C   UNL     1      47.738   8.735  13.506  0.00  0.00    +0.000 C 
ATOM     21  O   UNL     1      47.605   8.895  14.723  0.00  0.00    +0.000 OA
BRANCH  20  22
ATOM     22  C   UNL     1      47.870   9.899  12.623  0.00  0.00    +0.000 A 
ATOM     23  C   UNL     1      49.069  10.521  12.312  0.00  0.00    +0.000 A 
ATOM     24  S   UNL     1      48.920  11.813  11.210  0.00  0.00    +0.000 S 
ATOM     25  C   UNL     1      47.267  11.492  10.993  0.00  0.00    +0.000 A 
ATOM     26  N   UNL     1      46.552  12.164  10.058  0.00  0.00    +0.000 NA
ATOM     27  C   UNL     1      45.326  11.769   9.954  0.00  0.00    +0.000 A 
ATOM     28  N   UNL     1      44.744  10.805  10.736  0.00  0.00    +0.000 N 
ATOM     29  C   UNL     1      45.394  10.191  11.790  0.00  0.00    +0.000 A 
ATOM     30  O   UNL     1      44.783   9.515  12.604  0.00  0.00    +0.000 OA
ATOM     31  C   UNL     1      46.813  10.497  11.843  0.00  0.00    +0.000 A 
ATOM     32  H   UNL     1      43.761  10.599  10.651  0.00  0.00    +0.000 HD
ENDBRANCH  20  22
ENDBRANCH  17  18
ENDBRANCH   4  17
TORSDOF 7
ENDMDL
MODEL 2
REMARK VINA RESULT:    -7.922      3.914      5.671
REMARK INTER + INTRA:         -12.031
REMARK INTER:                 -11.065
REMARK INTRA:                  -0.966
REMARK UNBOUND:                -0.867
REMARK  Name = 
REMARK  9 active torsions:
REMARK  status: ('A' for Active; 'I' for Inactive)
REMARK    1  A    between atoms: C_1  and  C_2
REMARK    2  A    between atoms: C_6  and  C_7
REMARK    3  A    between atoms: C_7  and  O_8
REMARK    4  A    between atoms: O_8  and  C_9
REMARK    5  A    between atoms: C_9  and  C_10
REMARK    6  A    between atoms: C_13  and  C_14
REMARK    7  A    between atoms: C_14  and  N_15
REMARK    8  A    between atoms: N_15  and  C_16
REMARK    9  A    between atoms: C_17  and  C_19
REMARK                            x       y       z     vdW  Elec       q    Type
REMARK                         _______ _______ _______ _____ _____    ______ ____
ROOT
ATOM      1  C   UNL     1      45.542   5.207  12.910  0.00  0.00    +0.000 A 
ATOM      2  C   UNL     1      46.647   4.641  13.538  0.00  0.00    +0.000 A 
ATOM      3  N   UNL     1      47.757   5.343  13.875  0.00  0.00    +0.000 NA
ATOM      4  C   UNL     1      47.727   6.670  13.585  0.00  0.00    +0.000 A 
ATOM      5  C   UNL     1      46.630   7.236  12.935  0.00  0.00    +0.000 A 
ATOM      6  N   UNL     1      45.532   6.521  12.567  0.00  0.00    +0.000 NA
ENDROOT
BRANCH   1   7
ATOM      7  C   UNL     1      44.322   4.359  12.641  0.00  0.00    +0.000 C 
BRANCH   7   8
ATOM      8  O   UNL     1      44.671   3.333  11.707  0.00  0.00    +0.000 OA
BRANCH   8   9
ATOM      9  C   UNL     1      44.002   3.478  10.456  0.00  0.00    +0.000 C 
BRANCH   9  15
ATOM     10  C   UNL     1      46.764   0.338   7.648  0.00  0.00    +0.000 C 
ATOM     11  C   UNL     1      46.329   1.740   7.963  0.00  0.00    +0.000 A 
ATOM     12  C   UNL     1      46.820   2.827   7.235  0.00  0.00    +0.000 A 
ATOM     13  C   UNL     1      46.403   4.123   7.544  0.00  0.00    +0.000 A 
ATOM     14  C   UNL     1      45.492   4.342   8.579  0.00  0.00    +0.000 A 
ATOM     15  C   UNL     1      44.970   3.266   9.311  0.00  0.00    +0.000 A 
ATOM     16  C   UNL     1      45.411   1.970   9.001  0.00  0.00    +0.000 A 
ENDBRANCH   9  15
ENDBRANCH   8   9
ENDBRANCH   7   8
ENDBRANCH   1   7
BRANCH   4  17
ATOM     17  C   UNL     1      48.895   7.513  14.046  0.00  0.00    +0.000 C 
BRANCH  17  18
ATOM     18  N   UNL     1      48.847   7.839  15.469  0.00  0.00    +0.000 N 
ATOM     19  C   UNL     1      48.074   9.012  15.857  0.00  0.00    +0.000 C 
ATOM     20  C   UNL     1      49.629   7.083  16.346  0.00  0.00    +0.000 C 
ATOM     21  O   UNL     1      50.325   6.157  15.921  0.00  0.00    +0.000 OA
BRANCH  20  22
ATOM     22  C   UNL     1      49.576   7.360  17.786  0.00  0.00    +0.000 A 
ATOM     23  C   UNL     1      50.273   8.378  18.419  0.00  0.00    +0.000 A 
ATOM     24  S   UNL     1      49.968   8.498  20.092  0.00  0.00    +0.000 S 
ATOM     25  C   UNL     1      48.778   7.289  20.003  0.00  0.00    +0.000 A 
ATOM     26  N   UNL     1      48.016   6.993  21.084  0.00  0.00    +0.000 NA
ATOM     27  C   UNL     1      47.105   6.105  20.854  0.00  0.00    +0.000 A 
ATOM     28  N   UNL     1      46.930   5.453  19.660  0.00  0.00    +0.000 N 
ATOM     29  C   UNL     1      47.769   5.623  18.575  0.00  0.00    +0.000 A 
ATOM     30  O   UNL     1      47.727   4.864  17.618  0.00  0.00    +0.000 OA
ATOM     31  C   UNL     1      48.708   6.719  18.744  0.00  0.00    +0.000 A 
ATOM     32  H   UNL     1      46.248   4.717  19.573  0.00  0.00    +0.000 HD
ENDBRANCH  20  22
ENDBRANCH  17  18
ENDBRANCH   4  17
TORSDOF 7
ENDMDL
MODEL 3
REMARK VINA RESULT:    -7.613      3.080      4.996
REMARK INTER + INTRA:         -11.595
REMARK INTER:                 -10.630
REMARK INTRA:                  -0.965
REMARK UNBOUND:                -0.867
REMARK  Name = 
REMARK  9 active torsions:
REMARK  status: ('A' for Active; 'I' for Inactive)
REMARK    1  A    between atoms: C_1  and  C_2
REMARK    2  A    between atoms: C_6  and  C_7
REMARK    3  A    between atoms: C_7  and  O_8
REMARK    4  A    between atoms: O_8  and  C_9
REMARK    5  A    between atoms: C_9  and  C_10
REMARK    6  A    between atoms: C_13  and  C_14
REMARK    7  A    between atoms: C_14  and  N_15
REMARK    8  A    between atoms: N_15  and  C_16
REMARK    9  A    between atoms: C_17  and  C_19
REMARK                            x       y       z     vdW  Elec       q    Type
REMARK                         _______ _______ _______ _____ _____    ______ ____
ROOT
ATOM      1  C   UNL     1      44.345   5.087  12.447  0.00  0.00    +0.000 A 
ATOM      2  C   UNL     1      45.402   4.957  13.341  0.00  0.00    +0.000 A 
ATOM      3  N   UNL     1      46.326   5.926  13.555  0.00  0.00    +0.000 NA
ATOM      4  C   UNL     1      46.151   7.074  12.849  0.00  0.00    +0.000 A 
ATOM      5  C   UNL     1      45.105   7.199  11.935  0.00  0.00    +0.000 A 
ATOM      6  N   UNL     1      44.200   6.211  11.698  0.00  0.00    +0.000 NA
ENDROOT
BRANCH   1   7
ATOM      7  C   UNL     1      43.324   3.981  12.332  0.00  0.00    +0.000 C 
BRANCH   7   8
ATOM      8  O   UNL     1      43.187   3.621  10.955  0.00  0.00    +0.000 OA
BRANCH   8   9
ATOM      9  C   UNL     1      43.985   2.495  10.599  0.00  0.00    +0.000 C 
BRANCH   9  15
ATOM     10  C   UNL     1      47.201   0.971   7.035  0.00  0.00    +0.000 C 
ATOM     11  C   UNL     1      46.463   2.090   7.710  0.00  0.00    +0.000 A 
ATOM     12  C   UNL     1      46.615   3.413   7.286  0.00  0.00    +0.000 A 
ATOM     13  C   UNL     1      45.921   4.439   7.928  0.00  0.00    +0.000 A 
ATOM     14  C   UNL     1      45.067   4.152   8.995  0.00  0.00    +0.000 A 
ATOM     15  C   UNL     1      44.883   2.831   9.427  0.00  0.00    +0.000 A 
ATOM     16  C   UNL     1      45.601   1.811   8.783  0.00  0.00    +0.000 A 
ENDBRANCH   9  15
ENDBRANCH   8   9
ENDBRANCH   7   8
ENDBRANCH   1   7
BRANCH   4  17
ATOM     17  C   UNL     1      47.091   8.223  13.140  0.00  0.00    +0.000 C 
BRANCH  17  18
ATOM     18  N   UNL     1      48.423   7.791  13.553  0.00  0.00    +0.000 N 
ATOM     19  C   UNL     1      49.184   6.983  12.607  0.00  0.00    +0.000 C 
ATOM     20  C   UNL     1      48.836   8.078  14.857  0.00  0.00    +0.000 C 
ATOM     21  O   UNL     1      48.091   8.693  15.625  0.00  0.00    +0.000 OA
BRANCH  20  22
ATOM     22  C   UNL     1      50.182   7.690  15.293  0.00  0.00    +0.000 A 
ATOM     23  C   UNL     1      51.327   8.441  15.081  0.00  0.00    +0.000 A 
ATOM     24  S   UNL     1      52.740   7.766  15.755  0.00  0.00    +0.000 S 
ATOM     25  C   UNL     1      51.847   6.520  16.484  0.00  0.00    +0.000 A 
ATOM     26  N   UNL     1      52.445   5.651  17.334  0.00  0.00    +0.000 NA
ATOM     27  C   UNL     1      51.633   4.799  17.869  0.00  0.00    +0.000 A 
ATOM     28  N   UNL     1      50.294   4.709  17.586  0.00  0.00    +0.000 N 
ATOM     29  C   UNL     1      49.670   5.483  16.626  0.00  0.00    +0.000 A 
ATOM     30  O   UNL     1      48.541   5.221  16.237  0.00  0.00    +0.000 OA
ATOM     31  C   UNL     1      50.513   6.549  16.114  0.00  0.00    +0.000 A 
ATOM     32  H   UNL     1      49.734   3.972  17.984  0.00  0.00    +0.000 HD
ENDBRANCH  20  22
ENDBRANCH  17  18
ENDBRANCH   4  17
TORSDOF 7
ENDMDL
MODEL 4
REMARK VINA RESULT:    -7.400      4.101      5.955
REMARK INTER + INTRA:         -11.295
REMARK INTER:                 -10.505
REMARK INTRA:                  -0.790
REMARK UNBOUND:                -0.867
REMARK  Name = 
REMARK  9 active torsions:
REMARK  status: ('A' for Active; 'I' for Inactive)
REMARK    1  A    between atoms: C_1  and  C_2
REMARK    2  A    between atoms: C_6  and  C_7
REMARK    3  A    between atoms: C_7  and  O_8
REMARK    4  A    between atoms: O_8  and  C_9
REMARK    5  A    between atoms: C_9  and  C_10
REMARK    6  A    between atoms: C_13  and  C_14
REMARK    7  A    between atoms: C_14  and  N_15
REMARK    8  A    between atoms: N_15  and  C_16
REMARK    9  A    between atoms: C_17  and  C_19
REMARK                            x       y       z     vdW  Elec       q    Type
REMARK                         _______ _______ _______ _____ _____    ______ ____
ROOT
ATOM      1  C   UNL     1      44.603   5.587  12.512  0.00  0.00    +0.000 A 
ATOM      2  C   UNL     1      45.188   6.832  12.313  0.00  0.00    +0.000 A 
ATOM      3  N   UNL     1      46.410   7.171  12.795  0.00  0.00    +0.000 NA
ATOM      4  C   UNL     1      47.064   6.198  13.482  0.00  0.00    +0.000 A 
ATOM      5  C   UNL     1      46.469   4.956  13.703  0.00  0.00    +0.000 A 
ATOM      6  N   UNL     1      45.229   4.632  13.247  0.00  0.00    +0.000 NA
ENDROOT
BRANCH   1   7
ATOM      7  C   UNL     1      43.270   5.279  11.873  0.00  0.00    +0.000 C 
BRANCH   7   8
ATOM      8  O   UNL     1      43.496   4.812  10.539  0.00  0.00    +0.000 OA
BRANCH   8   9
ATOM      9  C   UNL     1      43.960   3.465  10.499  0.00  0.00    +0.000 C 
BRANCH   9  15
ATOM     10  C   UNL     1      46.733   0.375   7.649  0.00  0.00    +0.000 C 
ATOM     11  C   UNL     1      46.292   1.770   7.981  0.00  0.00    +0.000 A 
ATOM     12  C   UNL     1      46.777   2.869   7.266  0.00  0.00    +0.000 A 
ATOM     13  C   UNL     1      46.354   4.159   7.592  0.00  0.00    +0.000 A 
ATOM     14  C   UNL     1      45.443   4.361   8.631  0.00  0.00    +0.000 A 
ATOM     15  C   UNL     1      44.928   3.273   9.351  0.00  0.00    +0.000 A 
ATOM     16  C   UNL     1      45.375   1.983   9.023  0.00  0.00    +0.000 A 
ENDBRANCH   9  15
ENDBRANCH   8   9
ENDBRANCH   7   8
ENDBRANCH   1   7
BRANCH   4  17
ATOM     17  C   UNL     1      48.475   6.493  13.939  0.00  0.00    +0.000 C 
BRANCH  17  18
ATOM     18  N   UNL     1      48.544   7.020  15.300  0.00  0.00    +0.000 N 
ATOM     19  C   UNL     1      48.515   8.469  15.455  0.00  0.00    +0.000 C 
ATOM     20  C   UNL     1      48.747   6.118  16.348  0.00  0.00    +0.000 C 
ATOM     21  O   UNL     1      48.848   4.909  16.119  0.00  0.00    +0.000 OA
BRANCH  20  22
ATOM     22  C   UNL     1      48.785   6.609  17.729  0.00  0.00    +0.000 A 
ATOM     23  C   UNL     1      47.667   6.861  18.509  0.00  0.00    +0.000 A 
ATOM     24  S   UNL     1      48.022   7.366  20.098  0.00  0.00    +0.000 S 
ATOM     25  C   UNL     1      49.684   7.122  19.848  0.00  0.00    +0.000 A 
ATOM     26  N   UNL     1      50.560   7.245  20.875  0.00  0.00    +0.000 NA
ATOM     27  C   UNL     1      51.780   6.963  20.558  0.00  0.00    +0.000 A 
ATOM     28  N   UNL     1      52.204   6.624  19.298  0.00  0.00    +0.000 N 
ATOM     29  C   UNL     1      51.372   6.619  18.195  0.00  0.00    +0.000 A 
ATOM     30  O   UNL     1      51.823   6.541  17.062  0.00  0.00    +0.000 OA
ATOM     31  C   UNL     1      49.969   6.783  18.537  0.00  0.00    +0.000 A 
ATOM     32  H   UNL     1      53.185   6.490  19.106  0.00  0.00    +0.000 HD
ENDBRANCH  20  22
ENDBRANCH  17  18
ENDBRANCH   4  17
TORSDOF 7
ENDMDL
MODEL 5
REMARK VINA RESULT:    -7.400      5.455      7.959
REMARK INTER + INTRA:         -11.295
REMARK INTER:                 -10.449
REMARK INTRA:                  -0.846
REMARK UNBOUND:                -0.867
REMARK  Name = 
REMARK  9 active torsions:
REMARK  status: ('A' for Active; 'I' for Inactive)
REMARK    1  A    between atoms: C_1  and  C_2
REMARK    2  A    between atoms: C_6  and  C_7
REMARK    3  A    between atoms: C_7  and  O_8
REMARK    4  A    between atoms: O_8  and  C_9
REMARK    5  A    between atoms: C_9  and  C_10
REMARK    6  A    between atoms: C_13  and  C_14
REMARK    7  A    between atoms: C_14  and  N_15
REMARK    8  A    between atoms: N_15  and  C_16
REMARK    9  A    between atoms: C_17  and  C_19
REMARK                            x       y       z     vdW  Elec       q    Type
REMARK                         _______ _______ _______ _____ _____    ______ ____
ROOT
ATOM      1  C   UNL     1      47.593   6.617  13.321  0.00  0.00    +0.000 A 
ATOM      2  C   UNL     1      47.687   5.443  14.061  0.00  0.00    +0.000 A 
ATOM      3  N   UNL     1      48.203   5.388  15.314  0.00  0.00    +0.000 NA
ATOM      4  C   UNL     1      48.612   6.573  15.837  0.00  0.00    +0.000 A 
ATOM      5  C   UNL     1      48.540   7.748  15.089  0.00  0.00    +0.000 A 
ATOM      6  N   UNL     1      48.054   7.794  13.819  0.00  0.00    +0.000 NA
ENDROOT
BRANCH   1   7
ATOM      7  C   UNL     1      46.936   6.592  11.962  0.00  0.00    +0.000 C 
BRANCH   7   8
ATOM      8  O   UNL     1      45.761   5.779  12.034  0.00  0.00    +0.000 OA
BRANCH   8   9
ATOM      9  C   UNL     1      44.938   5.898  10.875  0.00  0.00    +0.000 C 
BRANCH   9  15
ATOM     10  C   UNL     1      46.546   3.561   6.714  0.00  0.00    +0.000 C 
ATOM     11  C   UNL     1      45.781   3.512   8.004  0.00  0.00    +0.000 A 
ATOM     12  C   UNL     1      45.137   2.342   8.415  0.00  0.00    +0.000 A 
ATOM     13  C   UNL     1      44.430   2.317   9.618  0.00  0.00    +0.000 A 
ATOM     14  C   UNL     1      44.363   3.458  10.420  0.00  0.00    +0.000 A 
ATOM     15  C   UNL     1      45.017   4.639  10.039  0.00  0.00    +0.000 A 
ATOM     16  C   UNL     1      45.710   4.654   8.818  0.00  0.00    +0.000 A 
ENDBRANCH   9  15
ENDBRANCH   8   9
ENDBRANCH   7   8
ENDBRANCH   1   7
BRANCH   4  17
ATOM     17  C   UNL     1      49.087   6.576  17.273  0.00  0.00    +0.000 C 
BRANCH  17  18
ATOM     18  N   UNL     1      50.366   5.896  17.461  0.00  0.00    +0.000 N 
ATOM     19  C   UNL     1      51.471   6.308  16.605  0.00  0.00    +0.000 C 
ATOM     20  C   UNL     1      50.419   4.827  18.360  0.00  0.00    +0.000 C 
ATOM     21  O   UNL     1      49.410   4.485  18.982  0.00  0.00    +0.000 OA
BRANCH  20  22
ATOM     22  C   UNL     1      51.696   4.145  18.599  0.00  0.00    +0.000 A 
ATOM     23  C   UNL     1      52.713   4.634  19.404  0.00  0.00    +0.000 A 
ATOM     24  S   UNL     1      54.055   3.593  19.543  0.00  0.00    +0.000 S 
ATOM     25  C   UNL     1      53.262   2.384  18.653  0.00  0.00    +0.000 A 
ATOM     26  N   UNL     1      53.817   1.155  18.514  0.00  0.00    +0.000 NA
ATOM     27  C   UNL     1      53.074   0.315  17.873  0.00  0.00    +0.000 A 
ATOM     28  N   UNL     1      51.856   0.612  17.317  0.00  0.00    +0.000 N 
ATOM     29  C   UNL     1      51.314   1.883  17.315  0.00  0.00    +0.000 A 
ATOM     30  O   UNL     1      50.350   2.160  16.617  0.00  0.00    +0.000 OA
ATOM     31  C   UNL     1      52.046   2.817  18.153  0.00  0.00    +0.000 A 
ATOM     32  H   UNL     1      51.363  -0.073  16.765  0.00  0.00    +0.000 HD
ENDBRANCH  20  22
ENDBRANCH  17  18
ENDBRANCH   4  17
TORSDOF 7
ENDMDL
MODEL 6
REMARK VINA RESULT:    -7.166      5.459      7.857
REMARK INTER + INTRA:         -10.964
REMARK INTER:                 -10.474
REMARK INTRA:                  -0.490
REMARK UNBOUND:                -0.867
REMARK  Name = 
REMARK  9 active torsions:
REMARK  status: ('A' for Active; 'I' for Inactive)
REMARK    1  A    between atoms: C_1  and  C_2
REMARK    2  A    between atoms: C_6  and  C_7
REMARK    3  A    between atoms: C_7  and  O_8
REMARK    4  A    between atoms: O_8  and  C_9
REMARK    5  A    between atoms: C_9  and  C_10
REMARK    6  A    between atoms: C_13  and  C_14
REMARK    7  A    between atoms: C_14  and  N_15
REMARK    8  A    between atoms: N_15  and  C_16
REMARK    9  A    between atoms: C_17  and  C_19
REMARK                            x       y       z     vdW  Elec       q    Type
REMARK                         _______ _______ _______ _____ _____    ______ ____
ROOT
ATOM      1  C   UNL     1      47.345   5.505  13.749  0.00  0.00    +0.000 A 
ATOM      2  C   UNL     1      46.906   4.185  13.731  0.00  0.00    +0.000 A 
ATOM      3  N   UNL     1      47.057   3.333  14.775  0.00  0.00    +0.000 NA
ATOM      4  C   UNL     1      47.652   3.851  15.880  0.00  0.00    +0.000 A 
ATOM      5  C   UNL     1      48.113   5.168  15.893  0.00  0.00    +0.000 A 
ATOM      6  N   UNL     1      47.991   6.010  14.831  0.00  0.00    +0.000 NA
ENDROOT
BRANCH   1   7
ATOM      7  C   UNL     1      47.065   6.400  12.565  0.00  0.00    +0.000 C 
BRANCH   7   8
ATOM      8  O   UNL     1      45.654   6.612  12.470  0.00  0.00    +0.000 OA
BRANCH   8   9
ATOM      9  C   UNL     1      45.199   6.686  11.122  0.00  0.00    +0.000 C 
BRANCH   9  15
ATOM     10  C   UNL     1      45.782   3.334   7.409  0.00  0.00    +0.000 C 
ATOM     11  C   UNL     1      45.214   3.679   8.754  0.00  0.00    +0.000 A 
ATOM     12  C   UNL     1      44.451   2.754   9.473  0.00  0.00    +0.000 A 
ATOM     13  C   UNL     1      43.931   3.095  10.722  0.00  0.00    +0.000 A 
ATOM     14  C   UNL     1      44.169   4.360  11.264  0.00  0.00    +0.000 A 
ATOM     15  C   UNL     1      44.947   5.299  10.571  0.00  0.00    +0.000 A 
ATOM     16  C   UNL     1      45.450   4.948   9.308  0.00  0.00    +0.000 A 
ENDBRANCH   9  15
ENDBRANCH   8   9
ENDBRANCH   7   8
ENDBRANCH   1   7
BRANCH   4  17
ATOM     17  C   UNL     1      47.738   2.970  17.106  0.00  0.00    +0.000 C 
BRANCH  17  18
ATOM     18  N   UNL     1      49.082   2.893  17.671  0.00  0.00    +0.000 N 
ATOM     19  C   UNL     1      49.317   3.591  18.928  0.00  0.00    +0.000 C 
ATOM     20  C   UNL     1      50.078   2.259  16.922  0.00  0.00    +0.000 C 
ATOM     21  O   UNL     1      49.812   1.769  15.821  0.00  0.00    +0.000 OA
BRANCH  20  22
ATOM     22  C   UNL     1      51.430   2.132  17.475  0.00  0.00    +0.000 A 
ATOM     23  C   UNL     1      52.006   0.940  17.887  0.00  0.00    +0.000 A 
ATOM     24  S   UNL     1      53.615   1.092  18.430  0.00  0.00    +0.000 S 
ATOM     25  C   UNL     1      53.651   2.732  17.992  0.00  0.00    +0.000 A 
ATOM     26  N   UNL     1      54.803   3.440  18.070  0.00  0.00    +0.000 NA
ATOM     27  C   UNL     1      54.702   4.655  17.641  0.00  0.00    +0.000 A 
ATOM     28  N   UNL     1      53.541   5.233  17.194  0.00  0.00    +0.000 N 
ATOM     29  C   UNL     1      52.317   4.594  17.224  0.00  0.00    +0.000 A 
ATOM     30  O   UNL     1      51.277   5.209  17.040  0.00  0.00    +0.000 OA
ATOM     31  C   UNL     1      52.416   3.183  17.558  0.00  0.00    +0.000 A 
ATOM     32  H   UNL     1      53.518   6.209  16.943  0.00  0.00    +0.000 HD
ENDBRANCH  20  22
ENDBRANCH  17  18
ENDBRANCH   4  17
TORSDOF 7
ENDMDL
MODEL 7
REMARK VINA RESULT:    -7.025      3.732      5.805
REMARK INTER + INTRA:         -10.767
REMARK INTER:                  -9.777
REMARK INTRA:                  -0.990
REMARK UNBOUND:                -0.867
REMARK  Name = 
REMARK  9 active torsions:
REMARK  status: ('A' for Active; 'I' for Inactive)
REMARK    1  A    between atoms: C_1  and  C_2
REMARK    2  A    between atoms: C_6  and  C_7
REMARK    3  A    between atoms: C_7  and  O_8
REMARK    4  A    between atoms: O_8  and  C_9
REMARK    5  A    between atoms: C_9  and  C_10
REMARK    6  A    between atoms: C_13  and  C_14
REMARK    7  A    between atoms: C_14  and  N_15
REMARK    8  A    between atoms: N_15  and  C_16
REMARK    9  A    between atoms: C_17  and  C_19
REMARK                            x       y       z     vdW  Elec       q    Type
REMARK                         _______ _______ _______ _____ _____    ______ ____
ROOT
ATOM      1  C   UNL     1      45.699   6.673  11.907  0.00  0.00    +0.000 A 
ATOM      2  C   UNL     1      45.435   7.930  12.439  0.00  0.00    +0.000 A 
ATOM      3  N   UNL     1      46.341   8.649  13.147  0.00  0.00    +0.000 NA
ATOM      4  C   UNL     1      47.564   8.076  13.295  0.00  0.00    +0.000 A 
ATOM      5  C   UNL     1      47.825   6.806  12.782  0.00  0.00    +0.000 A 
ATOM      6  N   UNL     1      46.902   6.072  12.102  0.00  0.00    +0.000 NA
ENDROOT
BRANCH   1   7
ATOM      7  C   UNL     1      44.650   5.981  11.070  0.00  0.00    +0.000 C 
BRANCH   7   8
ATOM      8  O   UNL     1      45.225   4.808  10.488  0.00  0.00    +0.000 OA
BRANCH   8   9
ATOM      9  C   UNL     1      44.473   4.318   9.381  0.00  0.00    +0.000 C 
BRANCH   9  15
ATOM     10  C   UNL     1      47.225   3.187   5.318  0.00  0.00    +0.000 C 
ATOM     11  C   UNL     1      46.600   2.753   6.611  0.00  0.00    +0.000 A 
ATOM     12  C   UNL     1      46.738   1.440   7.073  0.00  0.00    +0.000 A 
ATOM     13  C   UNL     1      46.147   1.056   8.277  0.00  0.00    +0.000 A 
ATOM     14  C   UNL     1      45.418   1.978   9.031  0.00  0.00    +0.000 A 
ATOM     15  C   UNL     1      45.281   3.305   8.598  0.00  0.00    +0.000 A 
ATOM     16  C   UNL     1      45.866   3.673   7.376  0.00  0.00    +0.000 A 
ENDBRANCH   9  15
ENDBRANCH   8   9
ENDBRANCH   7   8
ENDBRANCH   1   7
BRANCH   4  17
ATOM     17  C   UNL     1      48.639   8.891  13.978  0.00  0.00    +0.000 C 
BRANCH  17  18
ATOM     18  N   UNL     1      48.901   8.469  15.351  0.00  0.00    +0.000 N 
ATOM     19  C   UNL     1      47.993   8.957  16.382  0.00  0.00    +0.000 C 
ATOM     20  C   UNL     1      50.057   7.725  15.605  0.00  0.00    +0.000 C 
ATOM     21  O   UNL     1      50.821   7.427  14.683  0.00  0.00    +0.000 OA
BRANCH  20  22
ATOM     22  C   UNL     1      50.331   7.254  16.967  0.00  0.00    +0.000 A 
ATOM     23  C   UNL     1      51.119   7.924  17.890  0.00  0.00    +0.000 A 
ATOM     24  S   UNL     1      51.207   7.166  19.414  0.00  0.00    +0.000 S 
ATOM     25  C   UNL     1      50.075   5.993  18.942  0.00  0.00    +0.000 A 
ATOM     26  N   UNL     1      49.596   5.097  19.839  0.00  0.00    +0.000 NA
ATOM     27  C   UNL     1      48.690   4.309  19.361  0.00  0.00    +0.000 A 
ATOM     28  N   UNL     1      48.266   4.305  18.056  0.00  0.00    +0.000 N 
ATOM     29  C   UNL     1      48.822   5.105  17.077  0.00  0.00    +0.000 A 
ATOM     30  O   UNL     1      48.586   4.913  15.893  0.00  0.00    +0.000 OA
ATOM     31  C   UNL     1      49.733   6.106  17.605  0.00  0.00    +0.000 A 
ATOM     32  H   UNL     1      47.609   3.612  17.733  0.00  0.00    +0.000 HD
ENDBRANCH  20  22
ENDBRANCH  17  18
ENDBRANCH   4  17
TORSDOF 7
ENDMDL
MODEL 8
REMARK VINA RESULT:    -6.764      3.938      5.369
REMARK INTER + INTRA:         -10.399
REMARK INTER:                  -9.600
REMARK INTRA:                  -0.798
REMARK UNBOUND:                -0.867
REMARK  Name = 
REMARK  9 active torsions:
REMARK  status: ('A' for Active; 'I' for Inactive)
REMARK    1  A    between atoms: C_1  and  C_2
REMARK    2  A    between atoms: C_6  and  C_7
REMARK    3  A    between atoms: C_7  and  O_8
REMARK    4  A    between atoms: O_8  and  C_9
REMARK    5  A    between atoms: C_9  and  C_10
REMARK    6  A    between atoms: C_13  and  C_14
REMARK    7  A    between atoms: C_14  and  N_15
REMARK    8  A    between atoms: N_15  and  C_16
REMARK    9  A    between atoms: C_17  and  C_19
REMARK                            x       y       z     vdW  Elec       q    Type
REMARK                         _______ _______ _______ _____ _____    ______ ____
ROOT
ATOM      1  C   UNL     1      45.223   4.930  13.196  0.00  0.00    +0.000 A 
ATOM      2  C   UNL     1      45.483   6.250  12.843  0.00  0.00    +0.000 A 
ATOM      3  N   UNL     1      46.602   6.918  13.217  0.00  0.00    +0.000 NA
ATOM      4  C   UNL     1      47.495   6.208  13.955  0.00  0.00    +0.000 A 
ATOM      5  C   UNL     1      47.227   4.891  14.329  0.00  0.00    +0.000 A 
ATOM      6  N   UNL     1      46.087   4.235  13.981  0.00  0.00    +0.000 NA
ENDROOT
BRANCH   1   7
ATOM      7  C   UNL     1      43.983   4.247  12.669  0.00  0.00    +0.000 C 
BRANCH   7   8
ATOM      8  O   UNL     1      44.369   3.042  12.003  0.00  0.00    +0.000 OA
BRANCH   8   9
ATOM      9  C   UNL     1      43.705   2.867  10.754  0.00  0.00    +0.000 C 
BRANCH   9  15
ATOM     10  C   UNL     1      46.913   0.886   7.415  0.00  0.00    +0.000 C 
ATOM     11  C   UNL     1      46.250   2.098   8.001  0.00  0.00    +0.000 A 
ATOM     12  C   UNL     1      46.535   3.379   7.519  0.00  0.00    +0.000 A 
ATOM     13  C   UNL     1      45.909   4.494   8.078  0.00  0.00    +0.000 A 
ATOM     14  C   UNL     1      44.992   4.338   9.120  0.00  0.00    +0.000 A 
ATOM     15  C   UNL     1      44.675   3.062   9.608  0.00  0.00    +0.000 A 
ATOM     16  C   UNL     1      45.325   1.952   9.047  0.00  0.00    +0.000 A 
ENDBRANCH   9  15
ENDBRANCH   8   9
ENDBRANCH   7   8
ENDBRANCH   1   7
BRANCH   4  17
ATOM     17  C   UNL     1      48.807   6.877  14.297  0.00  0.00    +0.000 C 
BRANCH  17  18
ATOM     18  N   UNL     1      48.942   7.196  15.716  0.00  0.00    +0.000 N 
ATOM     19  C   UNL     1      49.399   6.129  16.597  0.00  0.00    +0.000 C 
ATOM     20  C   UNL     1      48.520   8.455  16.152  0.00  0.00    +0.000 C 
ATOM     21  O   UNL     1      48.061   9.271  15.349  0.00  0.00    +0.000 OA
BRANCH  20  22
ATOM     22  C   UNL     1      48.674   8.821  17.564  0.00  0.00    +0.000 A 
ATOM     23  C   UNL     1      47.694   8.663  18.532  0.00  0.00    +0.000 A 
ATOM     24  S   UNL     1      48.181   9.120  20.101  0.00  0.00    +0.000 S 
ATOM     25  C   UNL     1      49.768   9.405  19.569  0.00  0.00    +0.000 A 
ATOM     26  N   UNL     1      50.749   9.701  20.457  0.00  0.00    +0.000 NA
ATOM     27  C   UNL     1      51.919   9.823  19.923  0.00  0.00    +0.000 A 
ATOM     28  N   UNL     1      52.180   9.730  18.579  0.00  0.00    +0.000 N 
ATOM     29  C   UNL     1      51.194   9.566  17.626  0.00  0.00    +0.000 A 
ATOM     30  O   UNL     1      51.431   9.719  16.437  0.00  0.00    +0.000 OA
ATOM     31  C   UNL     1      49.890   9.274  18.196  0.00  0.00    +0.000 A 
ATOM     32  H   UNL     1      53.106   9.911  18.223  0.00  0.00    +0.000 HD
ENDBRANCH  20  22
ENDBRANCH  17  18
ENDBRANCH   4  17
TORSDOF 7
ENDMDL
MODEL 9
REMARK VINA RESULT:    -6.635      4.815      6.939
REMARK INTER + INTRA:         -10.217
REMARK INTER:                  -9.161
REMARK INTRA:                  -1.055
REMARK UNBOUND:                -0.867
REMARK  Name = 
REMARK  9 active torsions:
REMARK  status: ('A' for Active; 'I' for Inactive)
REMARK    1  A    between atoms: C_1  and  C_2
REMARK    2  A    between atoms: C_6  and  C_7
REMARK    3  A    between atoms: C_7  and  O_8
REMARK    4  A    between atoms: O_8  and  C_9
REMARK    5  A    between atoms: C_9  and  C_10
REMARK    6  A    between atoms: C_13  and  C_14
REMARK    7  A    between atoms: C_14  and  N_15
REMARK    8  A    between atoms: N_15  and  C_16
REMARK    9  A    between atoms: C_17  and  C_19
REMARK                            x       y       z     vdW  Elec       q    Type
REMARK                         _______ _______ _______ _____ _____    ______ ____
ROOT
ATOM      1  C   UNL     1      46.998   7.408  13.362  0.00  0.00    +0.000 A 
ATOM      2  C   UNL     1      47.513   6.230  13.893  0.00  0.00    +0.000 A 
ATOM      3  N   UNL     1      48.721   6.150  14.504  0.00  0.00    +0.000 NA
ATOM      4  C   UNL     1      49.414   7.315  14.596  0.00  0.00    +0.000 A 
ATOM      5  C   UNL     1      48.910   8.493  14.044  0.00  0.00    +0.000 A 
ATOM      6  N   UNL     1      47.713   8.562  13.402  0.00  0.00    +0.000 NA
ENDROOT
BRANCH   1   7
ATOM      7  C   UNL     1      45.610   7.413  12.767  0.00  0.00    +0.000 C 
BRANCH   7   8
ATOM      8  O   UNL     1      45.386   6.162  12.109  0.00  0.00    +0.000 OA
BRANCH   8   9
ATOM      9  C   UNL     1      45.510   6.257  10.692  0.00  0.00    +0.000 C 
BRANCH   9  15
ATOM     10  C   UNL     1      46.123   3.176   6.755  0.00  0.00    +0.000 C 
ATOM     11  C   UNL     1      45.559   3.419   8.125  0.00  0.00    +0.000 A 
ATOM     12  C   UNL     1      44.818   2.433   8.784  0.00  0.00    +0.000 A 
ATOM     13  C   UNL     1      44.302   2.679  10.057  0.00  0.00    +0.000 A 
ATOM     14  C   UNL     1      44.523   3.908  10.682  0.00  0.00    +0.000 A 
ATOM     15  C   UNL     1      45.278   4.906  10.049  0.00  0.00    +0.000 A 
ATOM     16  C   UNL     1      45.777   4.651   8.762  0.00  0.00    +0.000 A 
ENDBRANCH   9  15
ENDBRANCH   8   9
ENDBRANCH   7   8
ENDBRANCH   1   7
BRANCH   4  17
ATOM     17  C   UNL     1      50.714   7.295  15.369  0.00  0.00    +0.000 C 
BRANCH  17  18
ATOM     18  N   UNL     1      50.526   7.206  16.815  0.00  0.00    +0.000 N 
ATOM     19  C   UNL     1      50.175   8.434  17.517  0.00  0.00    +0.000 C 
ATOM     20  C   UNL     1      50.803   5.988  17.443  0.00  0.00    +0.000 C 
ATOM     21  O   UNL     1      51.182   5.018  16.781  0.00  0.00    +0.000 OA
BRANCH  20  22
ATOM     22  C   UNL     1      50.591   5.854  18.888  0.00  0.00    +0.000 A 
ATOM     23  C   UNL     1      51.587   5.963  19.846  0.00  0.00    +0.000 A 
ATOM     24  S   UNL     1      51.031   5.822  21.451  0.00  0.00    +0.000 S 
ATOM     25  C   UNL     1      49.416   5.759  20.930  0.00  0.00    +0.000 A 
ATOM     26  N   UNL     1      48.402   5.770  21.829  0.00  0.00    +0.000 NA
ATOM     27  C   UNL     1      47.227   5.790  21.292  0.00  0.00    +0.000 A 
ATOM     28  N   UNL     1      46.981   5.744  19.943  0.00  0.00    +0.000 N 
ATOM     29  C   UNL     1      47.977   5.593  18.997  0.00  0.00    +0.000 A 
ATOM     30  O   UNL     1      47.712   5.324  17.835  0.00  0.00    +0.000 OA
ATOM     31  C   UNL     1      49.315   5.719  19.550  0.00  0.00    +0.000 A 
ATOM     32  H   UNL     1      46.037   5.686  19.595  0.00  0.00    +0.000 HD
ENDBRANCH  20  22
ENDBRANCH  17  18
ENDBRANCH   4  17
TORSDOF 7
ENDMDL
