MODEL 1
REMARK VINA RESULT:    -7.377      0.000      0.000
REMARK INTER + INTRA:         -10.570
REMARK INTER:                  -9.533
REMARK INTRA:                  -1.037
REMARK UNBOUND:                -1.037
REMARK  Name = 
REMARK  5 active torsions:
REMARK  status: ('A' for Active; 'I' for Inactive)
REMARK    1  A    between atoms: C_2  and  C_5
REMARK    2  A    between atoms: C_10  and  N_11
REMARK    3  A    between atoms: N_11  and  C_12
REMARK    4  A    between atoms: C_12  and  C_13
REMARK    5  A    between atoms: C_17  and  C_18
REMARK                            x       y       z     vdW  Elec       q    Type
REMARK                         _______ _______ _______ _____ _____    ______ ____
ROOT
ATOM      1  C   UNL     1      44.459   7.021  11.558  0.00  0.00    +0.000 C 
ENDROOT
BRANCH   1   2
ATOM      2  C   UNL     1      44.264   5.533  11.329  0.00  0.00    +0.000 A 
ATOM      3  C   UNL     1      43.358   4.824  12.114  0.00  0.00    +0.000 A 
ATOM      4  C   UNL     1      43.120   3.488  11.819  0.00  0.00    +0.000 A 
ATOM      5  C   UNL     1      43.793   2.894  10.756  0.00  0.00    +0.000 A 
ATOM      6  C   UNL     1      44.696   3.648  10.009  0.00  0.00    +0.000 A 
ATOM      7  N   UNL     1      44.936   4.955  10.298  0.00  0.00    +0.000 NA
BRANCH   6   8
ATOM      8  C   UNL     1      45.451   3.093   8.872  0.00  0.00    +0.000 A 
ATOM      9  C   UNL     1      45.962   3.922   7.868  0.00  0.00    +0.000 A 
ATOM     10  N   UNL     1      46.701   3.502   6.808  0.00  0.00    +0.000 NA
ATOM     11  C   UNL     1      46.941   2.175   6.727  0.00  0.00    +0.000 A 
ATOM     12  C   UNL     1      46.469   1.257   7.649  0.00  0.00    +0.000 A 
ATOM     13 CL   UNL     1      46.806  -0.417   7.481  0.00  0.00    +0.000 Cl
ATOM     14  C   UNL     1      45.715   1.721   8.726  0.00  0.00    +0.000 A 
ENDBRANCH   6   8
ENDBRANCH   1   2
BRANCH   1  15
ATOM     15  N   UNL     1      45.203   7.339  12.783  0.00  0.00    +0.000 N 
ATOM     16  H   UNL     1      44.709   7.913  13.453  0.00  0.00    +0.000 HD
BRANCH  15  22
ATOM     17  C   UNL     1      47.384   6.298  13.219  0.00  0.00    +0.000 A 
ATOM     18  C   UNL     1      48.774   6.391  13.097  0.00  0.00    +0.000 A 
ATOM     19  N   UNL     1      49.435   7.442  12.575  0.00  0.00    +0.000 NA
ATOM     20  C   UNL     1      48.679   8.454  12.124  0.00  0.00    +0.000 A 
ATOM     21  C   UNL     1      47.291   8.455  12.188  0.00  0.00    +0.000 A 
ATOM     22  C   UNL     1      46.601   7.378  12.770  0.00  0.00    +0.000 A 
BRANCH  17  24
ATOM     23  F   UNL     1      45.555   5.200  14.308  0.00  0.00    +0.000 F 
ATOM     24  C   UNL     1      46.827   5.053  13.830  0.00  0.00    +0.000 C 
ATOM     25  F   UNL     1      47.553   4.586  14.884  0.00  0.00    +0.000 F 
ATOM     26  F   UNL     1      46.754   4.017  12.942  0.00  0.00    +0.000 F 
ENDBRANCH  17  24
ENDBRANCH  15  22
ENDBRANCH   1  15
TORSDOF 5
ENDMDL
MODEL 2
REMARK VINA RESULT:    -7.186      1.802      2.378
REMARK INTER + INTRA:         -10.325
REMARK INTER:                  -9.100
REMARK INTRA:                  -1.225
REMARK UNBOUND:                -1.037
REMARK  Name = 
REMARK  5 active torsions:
REMARK  status: ('A' for Active; 'I' for Inactive)
REMARK    1  A    between atoms: C_2  and  C_5
REMARK    2  A    between atoms: C_10  and  N_11
REMARK    3  A    between atoms: N_11  and  C_12
REMARK    4  A    between atoms: C_12  and  C_13
REMARK    5  A    between atoms: C_17  and  C_18
REMARK                            x       y       z     vdW  Elec       q    Type
REMARK                         _______ _______ _______ _____ _____    ______ ____
ROOT
ATOM      1  C   UNL     1      46.192   4.857  13.846  0.00  0.00    +0.000 C 
ENDROOT
BRANCH   1   2
ATOM      2  C   UNL     1      45.193   4.596  12.732  0.00  0.00    +0.000 A 
ATOM      3  C   UNL     1      43.852   4.924  12.914  0.00  0.00    +0.000 A 
ATOM      4  C   UNL     1      42.976   4.775  11.847  0.00  0.00    +0.000 A 
ATOM      5  C   UNL     1      43.458   4.298  10.632  0.00  0.00    +0.000 A 
ATOM      6  C   UNL     1      44.808   3.976  10.508  0.00  0.00    +0.000 A 
ATOM      7  N   UNL     1      45.667   4.117  11.552  0.00  0.00    +0.000 NA
BRANCH   6   8
ATOM      8  C   UNL     1      45.395   3.462   9.258  0.00  0.00    +0.000 A 
ATOM      9  C   UNL     1      45.683   4.316   8.189  0.00  0.00    +0.000 A 
ATOM     10  N   UNL     1      46.259   3.935   7.018  0.00  0.00    +0.000 NA
ATOM     11  C   UNL     1      46.559   2.624   6.890  0.00  0.00    +0.000 A 
ATOM     12  C   UNL     1      46.300   1.684   7.872  0.00  0.00    +0.000 A 
ATOM     13 CL   UNL     1      46.702   0.032   7.639  0.00  0.00    +0.000 Cl
ATOM     14  C   UNL     1      45.710   2.107   9.062  0.00  0.00    +0.000 A 
ENDBRANCH   6   8
ENDBRANCH   1   2
BRANCH   1  15
ATOM     15  N   UNL     1      46.516   6.276  14.030  0.00  0.00    +0.000 N 
ATOM     16  H   UNL     1      45.783   6.838  14.442  0.00  0.00    +0.000 HD
BRANCH  15  22
ATOM     17  C   UNL     1      47.095   7.940  12.319  0.00  0.00    +0.000 A 
ATOM     18  C   UNL     1      48.108   8.561  11.582  0.00  0.00    +0.000 A 
ATOM     19  N   UNL     1      49.416   8.247  11.649  0.00  0.00    +0.000 NA
ATOM     20  C   UNL     1      49.749   7.275  12.511  0.00  0.00    +0.000 A 
ATOM     21  C   UNL     1      48.822   6.603  13.297  0.00  0.00    +0.000 A 
ATOM     22  C   UNL     1      47.452   6.901  13.199  0.00  0.00    +0.000 A 
BRANCH  17  24
ATOM     23  F   UNL     1      45.618   9.588  11.403  0.00  0.00    +0.000 F 
ATOM     24  C   UNL     1      45.695   8.421  12.110  0.00  0.00    +0.000 C 
ATOM     25  F   UNL     1      45.018   8.659  13.268  0.00  0.00    +0.000 F 
ATOM     26  F   UNL     1      44.931   7.532  11.410  0.00  0.00    +0.000 F 
ENDBRANCH  17  24
ENDBRANCH  15  22
ENDBRANCH   1  15
TORSDOF 5
ENDMDL
MODEL 3
REMARK VINA RESULT:    -6.874      3.778      7.164
REMARK INTER + INTRA:          -9.920
REMARK INTER:                  -9.465
REMARK INTRA:                  -0.455
REMARK UNBOUND:                -1.037
REMARK  Name = 
REMARK  5 active torsions:
REMARK  status: ('A' for Active; 'I' for Inactive)
REMARK    1  A    between atoms: C_2  and  C_5
REMARK    2  A    between atoms: C_10  and  N_11
REMARK    3  A    between atoms: N_11  and  C_12
REMARK    4  A    between atoms: C_12  and  C_13
REMARK    5  A    between atoms: C_17  and  C_18
REMARK                            x       y       z     vdW  Elec       q    Type
REMARK                         _______ _______ _______ _____ _____    ______ ____
ROOT
ATOM      1  C   UNL     1      45.474   7.185  11.426  0.00  0.00    +0.000 C 
ENDROOT
BRANCH   1   2
ATOM      2  C   UNL     1      46.796   7.073  12.164  0.00  0.00    +0.000 A 
ATOM      3  C   UNL     1      47.911   7.764  11.696  0.00  0.00    +0.000 A 
ATOM      4  C   UNL     1      49.081   7.730  12.444  0.00  0.00    +0.000 A 
ATOM      5  C   UNL     1      49.110   7.006  13.632  0.00  0.00    +0.000 A 
ATOM      6  C   UNL     1      47.967   6.326  14.049  0.00  0.00    +0.000 A 
ATOM      7  N   UNL     1      46.822   6.353  13.317  0.00  0.00    +0.000 NA
BRANCH   6   8
ATOM      8  C   UNL     1      47.917   5.535  15.291  0.00  0.00    +0.000 A 
ATOM      9  C   UNL     1      47.121   4.389  15.388  0.00  0.00    +0.000 A 
ATOM     10  N   UNL     1      47.044   3.580  16.477  0.00  0.00    +0.000 NA
ATOM     11  C   UNL     1      47.794   3.932  17.545  0.00  0.00    +0.000 A 
ATOM     12  C   UNL     1      48.601   5.056  17.572  0.00  0.00    +0.000 A 
ATOM     13 CL   UNL     1      49.522   5.448  18.966  0.00  0.00    +0.000 Cl
ATOM     14  C   UNL     1      48.658   5.864  16.437  0.00  0.00    +0.000 A 
ENDBRANCH   6   8
ENDBRANCH   1   2
BRANCH   1  15
ATOM     15  N   UNL     1      45.283   6.158  10.395  0.00  0.00    +0.000 N 
ATOM     16  H   UNL     1      45.274   6.498   9.442  0.00  0.00    +0.000 HD
BRANCH  15  22
ATOM     17  C   UNL     1      44.665   3.841   9.867  0.00  0.00    +0.000 A 
ATOM     18  C   UNL     1      44.005   2.679  10.280  0.00  0.00    +0.000 A 
ATOM     19  N   UNL     1      43.300   2.556  11.421  0.00  0.00    +0.000 NA
ATOM     20  C   UNL     1      43.259   3.637  12.213  0.00  0.00    +0.000 A 
ATOM     21  C   UNL     1      43.889   4.835  11.900  0.00  0.00    +0.000 A 
ATOM     22  C   UNL     1      44.592   4.979  10.692  0.00  0.00    +0.000 A 
BRANCH  17  24
ATOM     23  F   UNL     1      46.304   4.803   8.409  0.00  0.00    +0.000 F 
ATOM     24  C   UNL     1      45.397   3.792   8.565  0.00  0.00    +0.000 C 
ATOM     25  F   UNL     1      44.584   3.871   7.475  0.00  0.00    +0.000 F 
ATOM     26  F   UNL     1      46.118   2.643   8.408  0.00  0.00    +0.000 F 
ENDBRANCH  17  24
ENDBRANCH  15  22
ENDBRANCH   1  15
TORSDOF 5
ENDMDL
MODEL 4
REMARK VINA RESULT:    -6.856      3.538      6.876
REMARK INTER + INTRA:          -9.898
REMARK INTER:                  -9.061
REMARK INTRA:                  -0.837
REMARK UNBOUND:                -1.037
REMARK  Name = 
REMARK  5 active torsions:
REMARK  status: ('A' for Active; 'I' for Inactive)
REMARK    1  A    between atoms: C_2  and  C_5
REMARK    2  A    between atoms: C_10  and  N_11
REMARK    3  A    between atoms: N_11  and  C_12
REMARK    4  A    between atoms: C_12  and  C_13
REMARK    5  A    between atoms: C_17  and  C_18
REMARK                            x       y       z     vdW  Elec       q    Type
REMARK                         _______ _______ _______ _____ _____    ______ ____
ROOT
ATOM      1  C   UNL     1      45.686   7.020  11.057  0.00  0.00    +0.000 C 
ENDROOT
BRANCH   1   2
ATOM      2  C   UNL     1      46.951   6.954  11.893  0.00  0.00    +0.000 A 
ATOM      3  C   UNL     1      48.083   7.658  11.493  0.00  0.00    +0.000 A 
ATOM      4  C   UNL     1      49.194   7.667  12.326  0.00  0.00    +0.000 A 
ATOM      5  C   UNL     1      49.149   6.973  13.531  0.00  0.00    +0.000 A 
ATOM      6  C   UNL     1      47.992   6.277  13.878  0.00  0.00    +0.000 A 
ATOM      7  N   UNL     1      46.904   6.262  13.063  0.00  0.00    +0.000 NA
BRANCH   6   8
ATOM      8  C   UNL     1      47.865   5.515  15.133  0.00  0.00    +0.000 A 
ATOM      9  C   UNL     1      47.091   4.352  15.198  0.00  0.00    +0.000 A 
ATOM     10  N   UNL     1      46.950   3.568  16.299  0.00  0.00    +0.000 NA
ATOM     11  C   UNL     1      47.606   3.964  17.411  0.00  0.00    +0.000 A 
ATOM     12  C   UNL     1      48.383   5.107  17.471  0.00  0.00    +0.000 A 
ATOM     13 CL   UNL     1      49.185   5.556  18.921  0.00  0.00    +0.000 Cl
ATOM     14  C   UNL     1      48.509   5.890  16.324  0.00  0.00    +0.000 A 
ENDBRANCH   6   8
ENDBRANCH   1   2
BRANCH   1  15
ATOM     15  N   UNL     1      44.838   5.827  11.171  0.00  0.00    +0.000 N 
ATOM     16  H   UNL     1      44.488   5.631  12.100  0.00  0.00    +0.000 HD
BRANCH  15  22
ATOM     17  C   UNL     1      44.388   3.509  10.493  0.00  0.00    +0.000 A 
ATOM     18  C   UNL     1      44.528   2.528   9.507  0.00  0.00    +0.000 A 
ATOM     19  N   UNL     1      45.195   2.685   8.348  0.00  0.00    +0.000 NA
ATOM     20  C   UNL     1      45.741   3.893   8.137  0.00  0.00    +0.000 A 
ATOM     21  C   UNL     1      45.651   4.939   9.047  0.00  0.00    +0.000 A 
ATOM     22  C   UNL     1      44.990   4.763  10.275  0.00  0.00    +0.000 A 
BRANCH  17  24
ATOM     23  F   UNL     1      44.382   3.063  12.846  0.00  0.00    +0.000 F 
ATOM     24  C   UNL     1      43.613   3.151  11.719  0.00  0.00    +0.000 C 
ATOM     25  F   UNL     1      42.970   1.953  11.631  0.00  0.00    +0.000 F 
ATOM     26  F   UNL     1      42.648   4.069  12.020  0.00  0.00    +0.000 F 
ENDBRANCH  17  24
ENDBRANCH  15  22
ENDBRANCH   1  15
TORSDOF 5
ENDMDL
MODEL 5
REMARK VINA RESULT:    -6.811      3.096      4.967
REMARK INTER + INTRA:          -9.840
REMARK INTER:                  -9.029
REMARK INTRA:                  -0.811
REMARK UNBOUND:                -1.037
REMARK  Name = 
REMARK  5 active torsions:
REMARK  status: ('A' for Active; 'I' for Inactive)
REMARK    1  A    between atoms: C_2  and  C_5
REMARK    2  A    between atoms: C_10  and  N_11
REMARK    3  A    between atoms: N_11  and  C_12
REMARK    4  A    between atoms: C_12  and  C_13
REMARK    5  A    between atoms: C_17  and  C_18
REMARK                            x       y       z     vdW  Elec       q    Type
REMARK                         _______ _______ _______ _____ _____    ______ ____
ROOT
ATOM      1  C   UNL     1      48.732   7.010  14.602  0.00  0.00    +0.000 C 
ENDROOT
BRANCH   1   2
ATOM      2  C   UNL     1      47.480   7.234  13.773  0.00  0.00    +0.000 A 
ATOM      3  C   UNL     1      47.130   8.524  13.384  0.00  0.00    +0.000 A 
ATOM      4  C   UNL     1      46.040   8.695  12.540  0.00  0.00    +0.000 A 
ATOM      5  C   UNL     1      45.327   7.580  12.112  0.00  0.00    +0.000 A 
ATOM      6  C   UNL     1      45.717   6.312  12.540  0.00  0.00    +0.000 A 
ATOM      7  N   UNL     1      46.779   6.141  13.370  0.00  0.00    +0.000 NA
BRANCH   6   8
ATOM      8  C   UNL     1      45.013   5.082  12.137  0.00  0.00    +0.000 A 
ATOM      9  C   UNL     1      44.240   4.357  13.049  0.00  0.00    +0.000 A 
ATOM     10  N   UNL     1      43.528   3.237  12.755  0.00  0.00    +0.000 NA
ATOM     11  C   UNL     1      43.593   2.798  11.479  0.00  0.00    +0.000 A 
ATOM     12  C   UNL     1      44.342   3.421  10.496  0.00  0.00    +0.000 A 
ATOM     13 CL   UNL     1      44.384   2.804   8.895  0.00  0.00    +0.000 Cl
ATOM     14  C   UNL     1      45.060   4.568  10.830  0.00  0.00    +0.000 A 
ENDBRANCH   6   8
ENDBRANCH   1   2
BRANCH   1  15
ATOM     15  N   UNL     1      48.460   6.611  15.988  0.00  0.00    +0.000 N 
ATOM     16  H   UNL     1      47.948   7.286  16.541  0.00  0.00    +0.000 HD
BRANCH  15  22
ATOM     17  C   UNL     1      48.854   4.479  17.142  0.00  0.00    +0.000 A 
ATOM     18  C   UNL     1      49.787   3.610  17.715  0.00  0.00    +0.000 A 
ATOM     19  N   UNL     1      51.106   3.858  17.828  0.00  0.00    +0.000 NA
ATOM     20  C   UNL     1      51.535   5.026  17.327  0.00  0.00    +0.000 A 
ATOM     21  C   UNL     1      50.692   5.953  16.728  0.00  0.00    +0.000 A 
ATOM     22  C   UNL     1      49.310   5.714  16.645  0.00  0.00    +0.000 A 
BRANCH  17  24
ATOM     23  F   UNL     1      46.867   4.089  15.862  0.00  0.00    +0.000 F 
ATOM     24  C   UNL     1      47.427   4.033  17.107  0.00  0.00    +0.000 C 
ATOM     25  F   UNL     1      46.603   4.771  17.903  0.00  0.00    +0.000 F 
ATOM     26  F   UNL     1      47.270   2.738  17.509  0.00  0.00    +0.000 F 
ENDBRANCH  17  24
ENDBRANCH  15  22
ENDBRANCH   1  15
TORSDOF 5
ENDMDL
MODEL 6
REMARK VINA RESULT:    -6.407      1.768      2.283
REMARK INTER + INTRA:          -9.317
REMARK INTER:                  -8.983
REMARK INTRA:                  -0.334
REMARK UNBOUND:                -1.037
REMARK  Name = 
REMARK  5 active torsions:
REMARK  status: ('A' for Active; 'I' for Inactive)
REMARK    1  A    between atoms: C_2  and  C_5
REMARK    2  A    between atoms: C_10  and  N_11
REMARK    3  A    between atoms: N_11  and  C_12
REMARK    4  A    between atoms: C_12  and  C_13
REMARK    5  A    between atoms: C_17  and  C_18
REMARK                            x       y       z     vdW  Elec       q    Type
REMARK                         _______ _______ _______ _____ _____    ______ ____
ROOT
ATOM      1  C   UNL     1      45.967   4.633  13.995  0.00  0.00    +0.000 C 
ENDROOT
BRANCH   1   2
ATOM      2  C   UNL     1      45.018   4.493  12.818  0.00  0.00    +0.000 A 
ATOM      3  C   UNL     1      43.693   4.901  12.944  0.00  0.00    +0.000 A 
ATOM      4  C   UNL     1      42.871   4.860  11.826  0.00  0.00    +0.000 A 
ATOM      5  C   UNL     1      43.389   4.409  10.616  0.00  0.00    +0.000 A 
ATOM      6  C   UNL     1      44.721   4.003  10.548  0.00  0.00    +0.000 A 
ATOM      7  N   UNL     1      45.526   4.038  11.642  0.00  0.00    +0.000 NA
BRANCH   6   8
ATOM      8  C   UNL     1      45.343   3.510   9.307  0.00  0.00    +0.000 A 
ATOM      9  C   UNL     1      45.664   4.381   8.261  0.00  0.00    +0.000 A 
ATOM     10  N   UNL     1      46.273   4.020   7.102  0.00  0.00    +0.000 NA
ATOM     11  C   UNL     1      46.575   2.710   6.960  0.00  0.00    +0.000 A 
ATOM     12  C   UNL     1      46.286   1.754   7.918  0.00  0.00    +0.000 A 
ATOM     13 CL   UNL     1      46.691   0.105   7.669  0.00  0.00    +0.000 Cl
ATOM     14  C   UNL     1      45.661   2.158   9.097  0.00  0.00    +0.000 A 
ENDBRANCH   6   8
ENDBRANCH   1   2
BRANCH   1  15
ATOM     15  N   UNL     1      47.212   5.340  13.671  0.00  0.00    +0.000 N 
ATOM     16  H   UNL     1      48.060   4.892  13.990  0.00  0.00    +0.000 HD
BRANCH  15  22
ATOM     17  C   UNL     1      48.059   7.574  14.240  0.00  0.00    +0.000 A 
ATOM     18  C   UNL     1      48.050   8.941  13.948  0.00  0.00    +0.000 A 
ATOM     19  N   UNL     1      47.291   9.525  13.001  0.00  0.00    +0.000 NA
ATOM     20  C   UNL     1      46.507   8.707  12.283  0.00  0.00    +0.000 A 
ATOM     21  C   UNL     1      46.451   7.334  12.484  0.00  0.00    +0.000 A 
ATOM     22  C   UNL     1      47.212   6.729  13.499  0.00  0.00    +0.000 A 
BRANCH  17  24
ATOM     23  F   UNL     1      49.135   8.022  16.332  0.00  0.00    +0.000 F 
ATOM     24  C   UNL     1      48.968   7.107  15.331  0.00  0.00    +0.000 C 
ATOM     25  F   UNL     1      50.227   6.808  14.906  0.00  0.00    +0.000 F 
ATOM     26  F   UNL     1      48.509   5.981  15.953  0.00  0.00    +0.000 F 
ENDBRANCH  17  24
ENDBRANCH  15  22
ENDBRANCH   1  15
TORSDOF 5
ENDMDL
MODEL 7
REMARK VINA RESULT:    -6.327      3.159      4.761
REMARK INTER + INTRA:          -9.214
REMARK INTER:                  -8.478
REMARK INTRA:                  -0.735
REMARK UNBOUND:                -1.037
REMARK  Name = 
REMARK  5 active torsions:
REMARK  status: ('A' for Active; 'I' for Inactive)
REMARK    1  A    between atoms: C_2  and  C_5
REMARK    2  A    between atoms: C_10  and  N_11
REMARK    3  A    between atoms: N_11  and  C_12
REMARK    4  A    between atoms: C_12  and  C_13
REMARK    5  A    between atoms: C_17  and  C_18
REMARK                            x       y       z     vdW  Elec       q    Type
REMARK                         _______ _______ _______ _____ _____    ______ ____
ROOT
ATOM      1  C   UNL     1      48.389   6.875  14.026  0.00  0.00    +0.000 C 
ENDROOT
BRANCH   1   2
ATOM      2  C   UNL     1      47.096   7.052  13.251  0.00  0.00    +0.000 A 
ATOM      3  C   UNL     1      46.433   8.276  13.281  0.00  0.00    +0.000 A 
ATOM      4  C   UNL     1      45.309   8.447  12.483  0.00  0.00    +0.000 A 
ATOM      5  C   UNL     1      44.875   7.396  11.682  0.00  0.00    +0.000 A 
ATOM      6  C   UNL     1      45.572   6.189  11.698  0.00  0.00    +0.000 A 
ATOM      7  N   UNL     1      46.669   6.016  12.481  0.00  0.00    +0.000 NA
BRANCH   6   8
ATOM      8  C   UNL     1      45.175   5.027  10.883  0.00  0.00    +0.000 A 
ATOM      9  C   UNL     1      44.329   4.039  11.395  0.00  0.00    +0.000 A 
ATOM     10  N   UNL     1      43.881   2.957  10.704  0.00  0.00    +0.000 NA
ATOM     11  C   UNL     1      44.307   2.838   9.427  0.00  0.00    +0.000 A 
ATOM     12  C   UNL     1      45.162   3.742   8.822  0.00  0.00    +0.000 A 
ATOM     13 CL   UNL     1      45.669   3.524   7.196  0.00  0.00    +0.000 Cl
ATOM     14  C   UNL     1      45.602   4.841   9.558  0.00  0.00    +0.000 A 
ENDBRANCH   6   8
ENDBRANCH   1   2
BRANCH   1  15
ATOM     15  N   UNL     1      48.197   6.727  15.473  0.00  0.00    +0.000 N 
ATOM     16  H   UNL     1      48.334   7.570  16.017  0.00  0.00    +0.000 HD
BRANCH  15  22
ATOM     17  C   UNL     1      49.525   5.243  16.910  0.00  0.00    +0.000 A 
ATOM     18  C   UNL     1      49.615   4.004  17.551  0.00  0.00    +0.000 A 
ATOM     19  N   UNL     1      48.706   3.015  17.454  0.00  0.00    +0.000 NA
ATOM     20  C   UNL     1      47.631   3.271  16.694  0.00  0.00    +0.000 A 
ATOM     21  C   UNL     1      47.440   4.472  16.023  0.00  0.00    +0.000 A 
ATOM     22  C   UNL     1      48.407   5.490  16.092  0.00  0.00    +0.000 A 
BRANCH  17  24
ATOM     23  F   UNL     1      51.579   5.780  18.020  0.00  0.00    +0.000 F 
ATOM     24  C   UNL     1      50.635   6.219  17.135  0.00  0.00    +0.000 C 
ATOM     25  F   UNL     1      50.218   7.420  17.623  0.00  0.00    +0.000 F 
ATOM     26  F   UNL     1      51.326   6.502  15.992  0.00  0.00    +0.000 F 
ENDBRANCH  17  24
ENDBRANCH  15  22
ENDBRANCH   1  15
TORSDOF 5
ENDMDL
MODEL 8
REMARK VINA RESULT:    -6.230      3.587      5.657
REMARK INTER + INTRA:          -9.088
REMARK INTER:                  -8.675
REMARK INTRA:                  -0.413
REMARK UNBOUND:                -1.037
REMARK  Name = 
REMARK  5 active torsions:
REMARK  status: ('A' for Active; 'I' for Inactive)
REMARK    1  A    between atoms: C_2  and  C_5
REMARK    2  A    between atoms: C_10  and  N_11
REMARK    3  A    between atoms: N_11  and  C_12
REMARK    4  A    between atoms: C_12  and  C_13
REMARK    5  A    between atoms: C_17  and  C_18
REMARK                            x       y       z     vdW  Elec       q    Type
REMARK                         _______ _______ _______ _____ _____    ______ ____
ROOT
ATOM      1  C   UNL     1      49.035   6.809  15.449  0.00  0.00    +0.000 C 
ENDROOT
BRANCH   1   2
ATOM      2  C   UNL     1      48.601   7.070  14.018  0.00  0.00    +0.000 A 
ATOM      3  C   UNL     1      49.415   7.820  13.174  0.00  0.00    +0.000 A 
ATOM      4  C   UNL     1      49.050   7.959  11.841  0.00  0.00    +0.000 A 
ATOM      5  C   UNL     1      47.883   7.351  11.388  0.00  0.00    +0.000 A 
ATOM      6  C   UNL     1      47.101   6.618  12.279  0.00  0.00    +0.000 A 
ATOM      7  N   UNL     1      47.453   6.485  13.585  0.00  0.00    +0.000 NA
BRANCH   6   8
ATOM      8  C   UNL     1      45.851   5.948  11.879  0.00  0.00    +0.000 A 
ATOM      9  C   UNL     1      44.752   5.891  12.742  0.00  0.00    +0.000 A 
ATOM     10  N   UNL     1      43.551   5.331  12.443  0.00  0.00    +0.000 NA
ATOM     11  C   UNL     1      43.430   4.779  11.215  0.00  0.00    +0.000 A 
ATOM     12  C   UNL     1      44.456   4.757  10.286  0.00  0.00    +0.000 A 
ATOM     13 CL   UNL     1      44.237   4.032   8.746  0.00  0.00    +0.000 Cl
ATOM     14  C   UNL     1      45.676   5.342  10.624  0.00  0.00    +0.000 A 
ENDBRANCH   6   8
ENDBRANCH   1   2
BRANCH   1  15
ATOM     15  N   UNL     1      48.056   6.048  16.235  0.00  0.00    +0.000 N 
ATOM     16  H   UNL     1      47.086   6.237  16.020  0.00  0.00    +0.000 HD
BRANCH  15  22
ATOM     17  C   UNL     1      48.233   4.241  17.889  0.00  0.00    +0.000 A 
ATOM     18  C   UNL     1      48.655   3.856  19.165  0.00  0.00    +0.000 A 
ATOM     19  N   UNL     1      49.205   4.679  20.078  0.00  0.00    +0.000 NA
ATOM     20  C   UNL     1      49.367   5.956  19.703  0.00  0.00    +0.000 A 
ATOM     21  C   UNL     1      48.991   6.438  18.456  0.00  0.00    +0.000 A 
ATOM     22  C   UNL     1      48.381   5.590  17.517  0.00  0.00    +0.000 A 
BRANCH  17  24
ATOM     23  F   UNL     1      48.568   2.337  16.475  0.00  0.00    +0.000 F 
ATOM     24  C   UNL     1      47.641   3.186  17.010  0.00  0.00    +0.000 C 
ATOM     25  F   UNL     1      46.954   3.682  15.944  0.00  0.00    +0.000 F 
ATOM     26  F   UNL     1      46.763   2.378  17.675  0.00  0.00    +0.000 F 
ENDBRANCH  17  24
ENDBRANCH  15  22
ENDBRANCH   1  15
TORSDOF 5
ENDMDL
MODEL 9
REMARK VINA RESULT:    -5.991      3.503      6.996
REMARK INTER + INTRA:          -8.779
REMARK INTER:                  -7.664
REMARK INTRA:                  -1.115
REMARK UNBOUND:                -1.037
REMARK  Name = 
REMARK  5 active torsions:
REMARK  status: ('A' for Active; 'I' for Inactive)
REMARK    1  A    between atoms: C_2  and  C_5
REMARK    2  A    between atoms: C_10  and  N_11
REMARK    3  A    between atoms: N_11  and  C_12
REMARK    4  A    between atoms: C_12  and  C_13
REMARK    5  A    between atoms: C_17  and  C_18
REMARK                            x       y       z     vdW  Elec       q    Type
REMARK                         _______ _______ _______ _____ _____    ______ ____
ROOT
ATOM      1  C   UNL     1      45.505   8.097  12.545  0.00  0.00    +0.000 C 
ENDROOT
BRANCH   1   2
ATOM      2  C   UNL     1      46.937   8.500  12.843  0.00  0.00    +0.000 A 
ATOM      3  C   UNL     1      47.472   9.643  12.254  0.00  0.00    +0.000 A 
ATOM      4  C   UNL     1      48.748  10.050  12.621  0.00  0.00    +0.000 A 
ATOM      5  C   UNL     1      49.458   9.306  13.558  0.00  0.00    +0.000 A 
ATOM      6  C   UNL     1      48.878   8.165  14.109  0.00  0.00    +0.000 A 
ATOM      7  N   UNL     1      47.631   7.761  13.749  0.00  0.00    +0.000 NA
BRANCH   6   8
ATOM      8  C   UNL     1      49.564   7.321  15.103  0.00  0.00    +0.000 A 
ATOM      9  C   UNL     1      50.951   7.381  15.269  0.00  0.00    +0.000 A 
ATOM     10  N   UNL     1      51.660   6.670  16.186  0.00  0.00    +0.000 NA
ATOM     11  C   UNL     1      50.955   5.837  16.982  0.00  0.00    +0.000 A 
ATOM     12  C   UNL     1      49.583   5.679  16.893  0.00  0.00    +0.000 A 
ATOM     13 CL   UNL     1      48.750   4.596  17.932  0.00  0.00    +0.000 Cl
ATOM     14  C   UNL     1      48.885   6.424  15.943  0.00  0.00    +0.000 A 
ENDBRANCH   6   8
ENDBRANCH   1   2
BRANCH   1  15
ATOM     15  N   UNL     1      45.076   6.878  13.240  0.00  0.00    +0.000 N 
ATOM     16  H   UNL     1      45.455   6.753  14.170  0.00  0.00    +0.000 HD
BRANCH  15  22
ATOM     17  C   UNL     1      45.362   4.508  12.660  0.00  0.00    +0.000 A 
ATOM     18  C   UNL     1      44.874   3.407  11.951  0.00  0.00    +0.000 A 
ATOM     19  N   UNL     1      43.806   3.428  11.130  0.00  0.00    +0.000 NA
ATOM     20  C   UNL     1      43.168   4.603  11.017  0.00  0.00    +0.000 A 
ATOM     21  C   UNL     1      43.566   5.753  11.686  0.00  0.00    +0.000 A 
ATOM     22  C   UNL     1      44.703   5.743  12.512  0.00  0.00    +0.000 A 
BRANCH  17  24
ATOM     23  F   UNL     1      46.364   4.632  14.833  0.00  0.00    +0.000 F 
ATOM     24  C   UNL     1      46.564   4.295  13.523  0.00  0.00    +0.000 C 
ATOM     25  F   UNL     1      47.654   5.013  13.133  0.00  0.00    +0.000 F 
ATOM     26  F   UNL     1      46.969   2.992  13.550  0.00  0.00    +0.000 F 
ENDBRANCH  17  24
ENDBRANCH  15  22
ENDBRANCH   1  15
TORSDOF 5
ENDMDL
