MODEL 1
REMARK VINA RESULT:    -8.515      0.000      0.000
REMARK INTER + INTRA:         -13.642
REMARK INTER:                 -12.497
REMARK INTRA:                  -1.145
REMARK UNBOUND:                -1.145
REMARK  Name = 
REMARK  9 active torsions:
REMARK  status: ('A' for Active; 'I' for Inactive)
REMARK    1  A    between atoms: C_1  and  C_2
REMARK    2  A    between atoms: C_2  and  C_3
REMARK    3  A    between atoms: C_3  and  N_4
REMARK    4  A    between atoms: C_3  and  C_12
REMARK    5  A    between atoms: N_4  and  C_5
REMARK    6  A    between atoms: C_5  and  C_6
REMARK    7  A    between atoms: C_15  and  C_16
REMARK    8  A    between atoms: C_16  and  N_17
REMARK    9  A    between atoms: C_18  and  C_20
REMARK                            x       y       z     vdW  Elec       q    Type
REMARK                         _______ _______ _______ _____ _____    ______ ____
ROOT
ATOM      1  C   UNL     1      45.697   5.079  11.719  0.00  0.00    +0.000 A 
ATOM      2  C   UNL     1      46.019   4.586  12.998  0.00  0.00    +0.000 A 
ATOM      3  C   UNL     1      46.991   5.209  13.789  0.00  0.00    +0.000 A 
ATOM      4  C   UNL     1      47.622   6.374  13.341  0.00  0.00    +0.000 A 
ATOM      5  C   UNL     1      47.288   6.880  12.082  0.00  0.00    +0.000 A 
ATOM      6  C   UNL     1      46.360   6.230  11.273  0.00  0.00    +0.000 A 
ENDROOT
BRANCH   1   7
ATOM      7  C   UNL     1      44.708   4.323  10.828  0.00  0.00    +0.000 C 
BRANCH   7   9
ATOM      8  C   UNL     1      42.658   5.744  11.577  0.00  0.00    +0.000 C 
ATOM      9  C   UNL     1      43.279   4.362  11.435  0.00  0.00    +0.000 C 
ENDBRANCH   7   9
BRANCH   7  10
ATOM     10  N   UNL     1      44.696   4.839   9.444  0.00  0.00    +0.000 NA
ATOM     11  H   UNL     1      45.627   5.185   9.215  0.00  0.00    +0.000 HD
BRANCH  10  12
ATOM     12  C   UNL     1      44.320   3.819   8.458  0.00  0.00    +0.000 C 
BRANCH  12  13
ATOM     13  C   UNL     1      45.489   2.993   8.002  0.00  0.00    +0.000 A 
ATOM     14  C   UNL     1      46.444   3.491   7.115  0.00  0.00    +0.000 A 
ATOM     15  C   UNL     1      47.486   2.671   6.692  0.00  0.00    +0.000 A 
ATOM     16  C   UNL     1      47.535   1.370   7.167  0.00  0.00    +0.000 A 
ATOM     17  N   UNL     1      46.627   0.846   8.017  0.00  0.00    +0.000 NA
ATOM     18  C   UNL     1      45.629   1.668   8.414  0.00  0.00    +0.000 A 
ENDBRANCH  12  13
ENDBRANCH  10  12
ENDBRANCH   7  10
ENDBRANCH   1   7
BRANCH   4  19
ATOM     19  C   UNL     1      48.678   7.067  14.158  0.00  0.00    +0.000 C 
BRANCH  19  20
ATOM     20  N   UNL     1      48.331   7.138  15.556  0.00  0.00    +0.000 N 
ATOM     21  C   UNL     1      49.097   6.574  16.543  0.00  0.00    +0.000 C 
ATOM     22  O   UNL     1      50.115   5.929  16.298  0.00  0.00    +0.000 OA
ATOM     23  H   UNL     1      47.446   7.575  15.786  0.00  0.00    +0.000 HD
BRANCH  21  24
ATOM     24  C   UNL     1      48.687   6.832  17.931  0.00  0.00    +0.000 A 
ATOM     25  C   UNL     1      48.321   8.121  18.296  0.00  0.00    +0.000 A 
ATOM     26  S   UNL     1      47.805   8.256  19.914  0.00  0.00    +0.000 S 
ATOM     27  C   UNL     1      48.105   6.609  20.203  0.00  0.00    +0.000 A 
ATOM     28  N   UNL     1      47.887   6.066  21.432  0.00  0.00    +0.000 NA
ATOM     29  C   UNL     1      48.187   4.817  21.528  0.00  0.00    +0.000 A 
ATOM     30  N   UNL     1      48.677   4.053  20.500  0.00  0.00    +0.000 N 
ATOM     31  C   UNL     1      48.859   4.539  19.228  0.00  0.00    +0.000 A 
ATOM     32  O   UNL     1      49.216   3.804  18.313  0.00  0.00    +0.000 OA
ATOM     33  C   UNL     1      48.570   5.954  19.074  0.00  0.00    +0.000 A 
ATOM     34  H   UNL     1      48.878   3.073  20.637  0.00  0.00    +0.000 HD
ENDBRANCH  21  24
ENDBRANCH  19  20
ENDBRANCH   4  19
TORSDOF 8
ENDMDL
MODEL 2
REMARK VINA RESULT:    -8.437      1.249      1.866
REMARK INTER + INTRA:         -13.528
REMARK INTER:                 -12.168
REMARK INTRA:                  -1.360
REMARK UNBOUND:                -1.145
REMARK  Name = 
REMARK  9 active torsions:
REMARK  status: ('A' for Active; 'I' for Inactive)
REMARK    1  A    between atoms: C_1  and  C_2
REMARK    2  A    between atoms: C_2  and  C_3
REMARK    3  A    between atoms: C_3  and  N_4
REMARK    4  A    between atoms: C_3  and  C_12
REMARK    5  A    between atoms: N_4  and  C_5
REMARK    6  A    between atoms: C_5  and  C_6
REMARK    7  A    between atoms: C_15  and  C_16
REMARK    8  A    between atoms: C_16  and  N_17
REMARK    9  A    between atoms: C_18  and  C_20
REMARK                            x       y       z     vdW  Elec       q    Type
REMARK                         _______ _______ _______ _____ _____    ______ ____
ROOT
ATOM      1  C   UNL     1      45.645   4.997  11.869  0.00  0.00    +0.000 A 
ATOM      2  C   UNL     1      45.944   4.408  13.112  0.00  0.00    +0.000 A 
ATOM      3  C   UNL     1      46.869   4.991  13.984  0.00  0.00    +0.000 A 
ATOM      4  C   UNL     1      47.473   6.210  13.658  0.00  0.00    +0.000 A 
ATOM      5  C   UNL     1      47.161   6.810  12.435  0.00  0.00    +0.000 A 
ATOM      6  C   UNL     1      46.281   6.202  11.544  0.00  0.00    +0.000 A 
ENDROOT
BRANCH   1   7
ATOM      7  C   UNL     1      44.710   4.288  10.885  0.00  0.00    +0.000 C 
BRANCH   7   9
ATOM      8  C   UNL     1      42.642   5.711  11.578  0.00  0.00    +0.000 C 
ATOM      9  C   UNL     1      43.244   4.325  11.395  0.00  0.00    +0.000 C 
ENDBRANCH   7   9
BRANCH   7  10
ATOM     10  N   UNL     1      44.799   4.855   9.524  0.00  0.00    +0.000 NA
ATOM     11  H   UNL     1      45.765   5.126   9.343  0.00  0.00    +0.000 HD
BRANCH  10  12
ATOM     12  C   UNL     1      44.374   3.912   8.484  0.00  0.00    +0.000 C 
BRANCH  12  13
ATOM     13  C   UNL     1      45.493   3.029   8.008  0.00  0.00    +0.000 A 
ATOM     14  C   UNL     1      46.420   3.459   7.058  0.00  0.00    +0.000 A 
ATOM     15  C   UNL     1      47.414   2.588   6.621  0.00  0.00    +0.000 A 
ATOM     16  C   UNL     1      47.444   1.306   7.146  0.00  0.00    +0.000 A 
ATOM     17  N   UNL     1      46.562   0.847   8.058  0.00  0.00    +0.000 NA
ATOM     18  C   UNL     1      45.611   1.717   8.467  0.00  0.00    +0.000 A 
ENDBRANCH  12  13
ENDBRANCH  10  12
ENDBRANCH   7  10
ENDBRANCH   1   7
BRANCH   4  19
ATOM     19  C   UNL     1      48.479   6.864  14.565  0.00  0.00    +0.000 C 
BRANCH  19  20
ATOM     20  N   UNL     1      48.249   6.553  15.954  0.00  0.00    +0.000 N 
ATOM     21  C   UNL     1      49.210   6.008  16.765  0.00  0.00    +0.000 C 
ATOM     22  O   UNL     1      50.328   5.707  16.349  0.00  0.00    +0.000 OA
ATOM     23  H   UNL     1      47.308   6.694  16.305  0.00  0.00    +0.000 HD
BRANCH  21  24
ATOM     24  C   UNL     1      48.873   5.860  18.188  0.00  0.00    +0.000 A 
ATOM     25  C   UNL     1      49.111   4.641  18.812  0.00  0.00    +0.000 A 
ATOM     26  S   UNL     1      48.738   4.638  20.474  0.00  0.00    +0.000 S 
ATOM     27  C   UNL     1      48.192   6.246  20.411  0.00  0.00    +0.000 A 
ATOM     28  N   UNL     1      47.704   6.861  21.522  0.00  0.00    +0.000 NA
ATOM     29  C   UNL     1      47.293   8.066  21.331  0.00  0.00    +0.000 A 
ATOM     30  N   UNL     1      47.333   8.721  20.127  0.00  0.00    +0.000 N 
ATOM     31  C   UNL     1      47.868   8.165  18.990  0.00  0.00    +0.000 A 
ATOM     32  O   UNL     1      47.967   8.812  17.953  0.00  0.00    +0.000 OA
ATOM     33  C   UNL     1      48.315   6.791  19.143  0.00  0.00    +0.000 A 
ATOM     34  H   UNL     1      47.007   9.674  20.048  0.00  0.00    +0.000 HD
ENDBRANCH  21  24
ENDBRANCH  19  20
ENDBRANCH   4  19
TORSDOF 8
ENDMDL
MODEL 3
REMARK VINA RESULT:    -7.564      1.854      2.227
REMARK INTER + INTRA:         -12.247
REMARK INTER:                 -10.802
REMARK INTRA:                  -1.445
REMARK UNBOUND:                -1.145
REMARK  Name = 
REMARK  9 active torsions:
REMARK  status: ('A' for Active; 'I' for Inactive)
REMARK    1  A    between atoms: C_1  and  C_2
REMARK    2  A    between atoms: C_2  and  C_3
REMARK    3  A    between atoms: C_3  and  N_4
REMARK    4  A    between atoms: C_3  and  C_12
REMARK    5  A    between atoms: N_4  and  C_5
REMARK    6  A    between atoms: C_5  and  C_6
REMARK    7  A    between atoms: C_15  and  C_16
REMARK    8  A    between atoms: C_16  and  N_17
REMARK    9  A    between atoms: C_18  and  C_20
REMARK                            x       y       z     vdW  Elec       q    Type
REMARK                         _______ _______ _______ _____ _____    ______ ____
ROOT
ATOM      1  C   UNL     1      45.535   4.854  12.409  0.00  0.00    +0.000 A 
ATOM      2  C   UNL     1      46.171   4.559  13.630  0.00  0.00    +0.000 A 
ATOM      3  C   UNL     1      47.293   5.281  14.053  0.00  0.00    +0.000 A 
ATOM      4  C   UNL     1      47.767   6.354  13.292  0.00  0.00    +0.000 A 
ATOM      5  C   UNL     1      47.124   6.665  12.091  0.00  0.00    +0.000 A 
ATOM      6  C   UNL     1      46.041   5.913  11.644  0.00  0.00    +0.000 A 
ENDROOT
BRANCH   1   7
ATOM      7  C   UNL     1      44.376   3.985  11.915  0.00  0.00    +0.000 C 
BRANCH   7   9
ATOM      8  C   UNL     1      42.289   5.539  11.799  0.00  0.00    +0.000 C 
ATOM      9  C   UNL     1      43.396   4.818  11.043  0.00  0.00    +0.000 C 
ENDBRANCH   7   9
BRANCH   7  10
ATOM     10  N   UNL     1      44.845   2.797  11.173  0.00  0.00    +0.000 NA
ATOM     11  H   UNL     1      44.597   1.962  11.702  0.00  0.00    +0.000 HD
BRANCH  10  12
ATOM     12  C   UNL     1      44.261   2.694   9.832  0.00  0.00    +0.000 C 
BRANCH  12  13
ATOM     13  C   UNL     1      45.297   2.719   8.743  0.00  0.00    +0.000 A 
ATOM     14  C   UNL     1      46.015   1.578   8.380  0.00  0.00    +0.000 A 
ATOM     15  C   UNL     1      46.992   1.665   7.393  0.00  0.00    +0.000 A 
ATOM     16  C   UNL     1      47.225   2.896   6.802  0.00  0.00    +0.000 A 
ATOM     17  N   UNL     1      46.561   4.023   7.129  0.00  0.00    +0.000 NA
ATOM     18  C   UNL     1      45.614   3.909   8.088  0.00  0.00    +0.000 A 
ENDBRANCH  12  13
ENDBRANCH  10  12
ENDBRANCH   7  10
ENDBRANCH   1   7
BRANCH   4  19
ATOM     19  C   UNL     1      48.975   7.148  13.709  0.00  0.00    +0.000 C 
BRANCH  19  20
ATOM     20  N   UNL     1      49.242   7.041  15.122  0.00  0.00    +0.000 N 
ATOM     21  C   UNL     1      48.812   7.969  16.034  0.00  0.00    +0.000 C 
ATOM     22  O   UNL     1      48.201   8.984  15.702  0.00  0.00    +0.000 OA
ATOM     23  H   UNL     1      49.829   6.270  15.419  0.00  0.00    +0.000 HD
BRANCH  21  24
ATOM     24  C   UNL     1      49.050   7.667  17.452  0.00  0.00    +0.000 A 
ATOM     25  C   UNL     1      48.036   7.906  18.371  0.00  0.00    +0.000 A 
ATOM     26  S   UNL     1      48.428   7.444  19.963  0.00  0.00    +0.000 S 
ATOM     27  C   UNL     1      49.989   6.960  19.495  0.00  0.00    +0.000 A 
ATOM     28  N   UNL     1      50.872   6.474  20.409  0.00  0.00    +0.000 NA
ATOM     29  C   UNL     1      52.029   6.176  19.931  0.00  0.00    +0.000 A 
ATOM     30  N   UNL     1      52.386   6.309  18.614  0.00  0.00    +0.000 N 
ATOM     31  C   UNL     1      51.514   6.739  17.643  0.00  0.00    +0.000 A 
ATOM     32  O   UNL     1      51.842   6.762  16.461  0.00  0.00    +0.000 OA
ATOM     33  C   UNL     1      50.203   7.123  18.136  0.00  0.00    +0.000 A 
ATOM     34  H   UNL     1      53.309   6.042  18.300  0.00  0.00    +0.000 HD
ENDBRANCH  21  24
ENDBRANCH  19  20
ENDBRANCH   4  19
TORSDOF 8
ENDMDL
MODEL 4
REMARK VINA RESULT:    -7.542      4.618      6.635
REMARK INTER + INTRA:         -12.214
REMARK INTER:                 -10.596
REMARK INTRA:                  -1.618
REMARK UNBOUND:                -1.145
REMARK  Name = 
REMARK  9 active torsions:
REMARK  status: ('A' for Active; 'I' for Inactive)
REMARK    1  A    between atoms: C_1  and  C_2
REMARK    2  A    between atoms: C_2  and  C_3
REMARK    3  A    between atoms: C_3  and  N_4
REMARK    4  A    between atoms: C_3  and  C_12
REMARK    5  A    between atoms: N_4  and  C_5
REMARK    6  A    between atoms: C_5  and  C_6
REMARK    7  A    between atoms: C_15  and  C_16
REMARK    8  A    between atoms: C_16  and  N_17
REMARK    9  A    between atoms: C_18  and  C_20
REMARK                            x       y       z     vdW  Elec       q    Type
REMARK                         _______ _______ _______ _____ _____    ______ ____
ROOT
ATOM      1  C   UNL     1      45.570   4.794  12.180  0.00  0.00    +0.000 A 
ATOM      2  C   UNL     1      45.981   5.839  11.330  0.00  0.00    +0.000 A 
ATOM      3  C   UNL     1      46.988   6.730  11.715  0.00  0.00    +0.000 A 
ATOM      4  C   UNL     1      47.649   6.560  12.936  0.00  0.00    +0.000 A 
ATOM      5  C   UNL     1      47.259   5.511  13.773  0.00  0.00    +0.000 A 
ATOM      6  C   UNL     1      46.221   4.657  13.413  0.00  0.00    +0.000 A 
ENDROOT
BRANCH   1   7
ATOM      7  C   UNL     1      44.395   3.896  11.785  0.00  0.00    +0.000 C 
BRANCH   7   9
ATOM      8  C   UNL     1      42.342   5.498  11.817  0.00  0.00    +0.000 C 
ATOM      9  C   UNL     1      43.333   4.699  10.984  0.00  0.00    +0.000 C 
ENDBRANCH   7   9
BRANCH   7  10
ATOM     10  N   UNL     1      44.832   2.710  11.021  0.00  0.00    +0.000 NA
ATOM     11  H   UNL     1      44.495   1.873  11.495  0.00  0.00    +0.000 HD
BRANCH  10  12
ATOM     12  C   UNL     1      44.329   2.702   9.642  0.00  0.00    +0.000 C 
BRANCH  12  13
ATOM     13  C   UNL     1      45.431   2.634   8.622  0.00  0.00    +0.000 A 
ATOM     14  C   UNL     1      45.833   3.754   7.893  0.00  0.00    +0.000 A 
ATOM     15  C   UNL     1      46.830   3.627   6.931  0.00  0.00    +0.000 A 
ATOM     16  C   UNL     1      47.392   2.378   6.724  0.00  0.00    +0.000 A 
ATOM     17  N   UNL     1      47.026   1.269   7.400  0.00  0.00    +0.000 NA
ATOM     18  C   UNL     1      46.058   1.422   8.331  0.00  0.00    +0.000 A 
ENDBRANCH  12  13
ENDBRANCH  10  12
ENDBRANCH   7  10
ENDBRANCH   1   7
BRANCH   4  19
ATOM     19  C   UNL     1      48.730   7.503  13.389  0.00  0.00    +0.000 C 
BRANCH  19  20
ATOM     20  N   UNL     1      49.231   8.323  12.314  0.00  0.00    +0.000 N 
ATOM     21  C   UNL     1      49.153   9.691  12.322  0.00  0.00    +0.000 C 
ATOM     22  O   UNL     1      48.611  10.314  13.234  0.00  0.00    +0.000 OA
ATOM     23  H   UNL     1      49.592   7.838  11.500  0.00  0.00    +0.000 HD
BRANCH  21  24
ATOM     24  C   UNL     1      49.814  10.400  11.217  0.00  0.00    +0.000 A 
ATOM     25  C   UNL     1      49.105  11.372  10.522  0.00  0.00    +0.000 A 
ATOM     26  S   UNL     1      50.019  12.158   9.318  0.00  0.00    +0.000 S 
ATOM     27  C   UNL     1      51.378  11.190   9.641  0.00  0.00    +0.000 A 
ATOM     28  N   UNL     1      52.526  11.338   8.926  0.00  0.00    +0.000 NA
ATOM     29  C   UNL     1      53.467  10.522   9.247  0.00  0.00    +0.000 A 
ATOM     30  N   UNL     1      53.372   9.570  10.230  0.00  0.00    +0.000 N 
ATOM     31  C   UNL     1      52.256   9.419  11.018  0.00  0.00    +0.000 A 
ATOM     32  O   UNL     1      52.239   8.616  11.946  0.00  0.00    +0.000 OA
ATOM     33  C   UNL     1      51.150  10.294  10.673  0.00  0.00    +0.000 A 
ATOM     34  H   UNL     1      54.155   8.969  10.443  0.00  0.00    +0.000 HD
ENDBRANCH  21  24
ENDBRANCH  19  20
ENDBRANCH   4  19
TORSDOF 8
ENDMDL
MODEL 5
REMARK VINA RESULT:    -7.520      2.325      2.580
REMARK INTER + INTRA:         -12.182
REMARK INTER:                 -10.944
REMARK INTRA:                  -1.238
REMARK UNBOUND:                -1.145
REMARK  Name = 
REMARK  9 active torsions:
REMARK  status: ('A' for Active; 'I' for Inactive)
REMARK    1  A    between atoms: C_1  and  C_2
REMARK    2  A    between atoms: C_2  and  C_3
REMARK    3  A    between atoms: C_3  and  N_4
REMARK    4  A    between atoms: C_3  and  C_12
REMARK    5  A    between atoms: N_4  and  C_5
REMARK    6  A    between atoms: C_5  and  C_6
REMARK    7  A    between atoms: C_15  and  C_16
REMARK    8  A    between atoms: C_16  and  N_17
REMARK    9  A    between atoms: C_18  and  C_20
REMARK                            x       y       z     vdW  Elec       q    Type
REMARK                         _______ _______ _______ _____ _____    ______ ____
ROOT
ATOM      1  C   UNL     1      45.852   5.633  11.841  0.00  0.00    +0.000 A 
ATOM      2  C   UNL     1      46.840   5.164  12.728  0.00  0.00    +0.000 A 
ATOM      3  C   UNL     1      47.605   6.052  13.492  0.00  0.00    +0.000 A 
ATOM      4  C   UNL     1      47.357   7.427  13.431  0.00  0.00    +0.000 A 
ATOM      5  C   UNL     1      46.361   7.894  12.569  0.00  0.00    +0.000 A 
ATOM      6  C   UNL     1      45.637   7.015  11.769  0.00  0.00    +0.000 A 
ENDROOT
BRANCH   1   7
ATOM      7  C   UNL     1      45.100   4.652  10.937  0.00  0.00    +0.000 C 
BRANCH   7   9
ATOM      8  C   UNL     1      43.310   2.978  11.817  0.00  0.00    +0.000 C 
ATOM      9  C   UNL     1      43.657   4.416  11.461  0.00  0.00    +0.000 C 
ENDBRANCH   7   9
BRANCH   7  10
ATOM     10  N   UNL     1      45.073   5.099   9.529  0.00  0.00    +0.000 NA
ATOM     11  H   UNL     1      46.027   5.299   9.231  0.00  0.00    +0.000 HD
BRANCH  10  12
ATOM     12  C   UNL     1      44.499   4.098   8.624  0.00  0.00    +0.000 C 
BRANCH  12  13
ATOM     13  C   UNL     1      45.519   3.118   8.118  0.00  0.00    +0.000 A 
ATOM     14  C   UNL     1      46.486   3.478   7.178  0.00  0.00    +0.000 A 
ATOM     15  C   UNL     1      47.383   2.522   6.711  0.00  0.00    +0.000 A 
ATOM     16  C   UNL     1      47.280   1.228   7.198  0.00  0.00    +0.000 A 
ATOM     17  N   UNL     1      46.355   0.837   8.099  0.00  0.00    +0.000 NA
ATOM     18  C   UNL     1      45.500   1.788   8.538  0.00  0.00    +0.000 A 
ENDBRANCH  12  13
ENDBRANCH  10  12
ENDBRANCH   7  10
ENDBRANCH   1   7
BRANCH   4  19
ATOM     19  C   UNL     1      48.163   8.413  14.230  0.00  0.00    +0.000 C 
BRANCH  19  20
ATOM     20  N   UNL     1      49.310   7.805  14.858  0.00  0.00    +0.000 N 
ATOM     21  C   UNL     1      49.371   7.540  16.201  0.00  0.00    +0.000 C 
ATOM     22  O   UNL     1      48.463   7.842  16.973  0.00  0.00    +0.000 OA
ATOM     23  H   UNL     1      50.117   7.635  14.269  0.00  0.00    +0.000 HD
BRANCH  21  24
ATOM     24  C   UNL     1      50.551   6.805  16.681  0.00  0.00    +0.000 A 
ATOM     25  C   UNL     1      51.751   7.488  16.835  0.00  0.00    +0.000 A 
ATOM     26  S   UNL     1      53.010   6.528  17.463  0.00  0.00    +0.000 S 
ATOM     27  C   UNL     1      52.015   5.151  17.499  0.00  0.00    +0.000 A 
ATOM     28  N   UNL     1      52.499   3.951  17.923  0.00  0.00    +0.000 NA
ATOM     29  C   UNL     1      51.653   2.983  17.869  0.00  0.00    +0.000 A 
ATOM     30  N   UNL     1      50.357   3.102  17.437  0.00  0.00    +0.000 N 
ATOM     31  C   UNL     1      49.805   4.301  17.052  0.00  0.00    +0.000 A 
ATOM     32  O   UNL     1      48.618   4.386  16.755  0.00  0.00    +0.000 OA
ATOM     33  C   UNL     1      50.729   5.422  17.061  0.00  0.00    +0.000 A 
ATOM     34  H   UNL     1      49.739   2.304  17.432  0.00  0.00    +0.000 HD
ENDBRANCH  21  24
ENDBRANCH  19  20
ENDBRANCH   4  19
TORSDOF 8
ENDMDL
MODEL 6
REMARK VINA RESULT:    -7.510      4.738      7.153
REMARK INTER + INTRA:         -12.167
REMARK INTER:                 -10.832
REMARK INTRA:                  -1.335
REMARK UNBOUND:                -1.145
REMARK  Name = 
REMARK  9 active torsions:
REMARK  status: ('A' for Active; 'I' for Inactive)
REMARK    1  A    between atoms: C_1  and  C_2
REMARK    2  A    between atoms: C_2  and  C_3
REMARK    3  A    between atoms: C_3  and  N_4
REMARK    4  A    between atoms: C_3  and  C_12
REMARK    5  A    between atoms: N_4  and  C_5
REMARK    6  A    between atoms: C_5  and  C_6
REMARK    7  A    between atoms: C_15  and  C_16
REMARK    8  A    between atoms: C_16  and  N_17
REMARK    9  A    between atoms: C_18  and  C_20
REMARK                            x       y       z     vdW  Elec       q    Type
REMARK                         _______ _______ _______ _____ _____    ______ ____
ROOT
ATOM      1  C   UNL     1      45.520   4.917  12.188  0.00  0.00    +0.000 A 
ATOM      2  C   UNL     1      46.202   4.823  13.416  0.00  0.00    +0.000 A 
ATOM      3  C   UNL     1      47.284   5.660  13.708  0.00  0.00    +0.000 A 
ATOM      4  C   UNL     1      47.671   6.652  12.801  0.00  0.00    +0.000 A 
ATOM      5  C   UNL     1      46.982   6.764  11.590  0.00  0.00    +0.000 A 
ATOM      6  C   UNL     1      45.940   5.895  11.278  0.00  0.00    +0.000 A 
ENDROOT
BRANCH   1   7
ATOM      7  C   UNL     1      44.408   3.921  11.845  0.00  0.00    +0.000 C 
BRANCH   7   9
ATOM      8  C   UNL     1      42.390   5.567  11.822  0.00  0.00    +0.000 C 
ATOM      9  C   UNL     1      43.279   4.615  11.035  0.00  0.00    +0.000 C 
ENDBRANCH   7   9
BRANCH   7  10
ATOM     10  N   UNL     1      44.919   2.743  11.117  0.00  0.00    +0.000 NA
ATOM     11  H   UNL     1      44.701   1.905  11.655  0.00  0.00    +0.000 HD
BRANCH  10  12
ATOM     12  C   UNL     1      44.337   2.604   9.777  0.00  0.00    +0.000 C 
BRANCH  12  13
ATOM     13  C   UNL     1      45.370   2.654   8.687  0.00  0.00    +0.000 A 
ATOM     14  C   UNL     1      46.096   1.525   8.304  0.00  0.00    +0.000 A 
ATOM     15  C   UNL     1      47.070   1.635   7.317  0.00  0.00    +0.000 A 
ATOM     16  C   UNL     1      47.291   2.876   6.744  0.00  0.00    +0.000 A 
ATOM     17  N   UNL     1      46.619   3.994   7.090  0.00  0.00    +0.000 NA
ATOM     18  C   UNL     1      45.676   3.857   8.050  0.00  0.00    +0.000 A 
ENDBRANCH  12  13
ENDBRANCH  10  12
ENDBRANCH   7  10
ENDBRANCH   1   7
BRANCH   4  19
ATOM     19  C   UNL     1      48.834   7.566  13.075  0.00  0.00    +0.000 C 
BRANCH  19  20
ATOM     20  N   UNL     1      49.668   7.756  11.914  0.00  0.00    +0.000 N 
ATOM     21  C   UNL     1      50.980   8.145  11.996  0.00  0.00    +0.000 C 
ATOM     22  O   UNL     1      51.526   8.399  13.068  0.00  0.00    +0.000 OA
ATOM     23  H   UNL     1      49.223   7.653  11.009  0.00  0.00    +0.000 HD
BRANCH  21  24
ATOM     24  C   UNL     1      51.742   8.179  10.739  0.00  0.00    +0.000 A 
ATOM     25  C   UNL     1      52.116   6.980  10.146  0.00  0.00    +0.000 A 
ATOM     26  S   UNL     1      52.931   7.172   8.663  0.00  0.00    +0.000 S 
ATOM     27  C   UNL     1      52.866   8.866   8.785  0.00  0.00    +0.000 A 
ATOM     28  N   UNL     1      53.419   9.657   7.825  0.00  0.00    +0.000 NA
ATOM     29  C   UNL     1      53.331  10.920   8.055  0.00  0.00    +0.000 A 
ATOM     30  N   UNL     1      52.729  11.472   9.156  0.00  0.00    +0.000 N 
ATOM     31  C   UNL     1      52.106  10.720  10.124  0.00  0.00    +0.000 A 
ATOM     32  O   UNL     1      51.502  11.252  11.050  0.00  0.00    +0.000 OA
ATOM     33  C   UNL     1      52.208   9.284   9.930  0.00  0.00    +0.000 A 
ATOM     34  H   UNL     1      52.681  12.475   9.270  0.00  0.00    +0.000 HD
ENDBRANCH  21  24
ENDBRANCH  19  20
ENDBRANCH   4  19
TORSDOF 8
ENDMDL
MODEL 7
REMARK VINA RESULT:    -7.100      3.339      9.102
REMARK INTER + INTRA:         -11.566
REMARK INTER:                  -9.875
REMARK INTRA:                  -1.691
REMARK UNBOUND:                -1.145
REMARK  Name = 
REMARK  9 active torsions:
REMARK  status: ('A' for Active; 'I' for Inactive)
REMARK    1  A    between atoms: C_1  and  C_2
REMARK    2  A    between atoms: C_2  and  C_3
REMARK    3  A    between atoms: C_3  and  N_4
REMARK    4  A    between atoms: C_3  and  C_12
REMARK    5  A    between atoms: N_4  and  C_5
REMARK    6  A    between atoms: C_5  and  C_6
REMARK    7  A    between atoms: C_15  and  C_16
REMARK    8  A    between atoms: C_16  and  N_17
REMARK    9  A    between atoms: C_18  and  C_20
REMARK                            x       y       z     vdW  Elec       q    Type
REMARK                         _______ _______ _______ _____ _____    ______ ____
ROOT
ATOM      1  C   UNL     1      48.890   8.072  16.233  0.00  0.00    +0.000 A 
ATOM      2  C   UNL     1      48.977   6.856  15.530  0.00  0.00    +0.000 A 
ATOM      3  C   UNL     1      48.511   6.747  14.214  0.00  0.00    +0.000 A 
ATOM      4  C   UNL     1      48.003   7.870  13.553  0.00  0.00    +0.000 A 
ATOM      5  C   UNL     1      47.936   9.084  14.241  0.00  0.00    +0.000 A 
ATOM      6  C   UNL     1      48.349   9.179  15.566  0.00  0.00    +0.000 A 
ENDROOT
BRANCH   1   7
ATOM      7  C   UNL     1      49.307   8.143  17.705  0.00  0.00    +0.000 C 
BRANCH   7   9
ATOM      8  C   UNL     1      47.622   9.596  19.059  0.00  0.00    +0.000 C 
ATOM      9  C   UNL     1      48.059   8.203  18.628  0.00  0.00    +0.000 C 
ENDBRANCH   7   9
BRANCH   7  10
ATOM     10  N   UNL     1      50.182   7.018  18.092  0.00  0.00    +0.000 NA
ATOM     11  H   UNL     1      50.973   7.385  18.620  0.00  0.00    +0.000 HD
BRANCH  10  12
ATOM     12  C   UNL     1      49.494   6.015  18.912  0.00  0.00    +0.000 C 
BRANCH  12  13
ATOM     13  C   UNL     1      49.158   4.768  18.145  0.00  0.00    +0.000 A 
ATOM     14  C   UNL     1      47.842   4.329  17.989  0.00  0.00    +0.000 A 
ATOM     15  C   UNL     1      47.588   3.144  17.304  0.00  0.00    +0.000 A 
ATOM     16  C   UNL     1      48.663   2.431  16.798  0.00  0.00    +0.000 A 
ATOM     17  N   UNL     1      49.949   2.815  16.934  0.00  0.00    +0.000 NA
ATOM     18  C   UNL     1      50.166   3.972  17.601  0.00  0.00    +0.000 A 
ENDBRANCH  12  13
ENDBRANCH  10  12
ENDBRANCH   7  10
ENDBRANCH   1   7
BRANCH   4  19
ATOM     19  C   UNL     1      47.485   7.790  12.143  0.00  0.00    +0.000 C 
BRANCH  19  20
ATOM     20  N   UNL     1      46.828   6.536  11.868  0.00  0.00    +0.000 N 
ATOM     21  C   UNL     1      45.494   6.328  12.100  0.00  0.00    +0.000 C 
ATOM     22  O   UNL     1      44.771   7.188  12.600  0.00  0.00    +0.000 OA
ATOM     23  H   UNL     1      47.415   5.773  11.550  0.00  0.00    +0.000 HD
BRANCH  21  24
ATOM     24  C   UNL     1      44.936   5.042  11.658  0.00  0.00    +0.000 A 
ATOM     25  C   UNL     1      44.212   4.276  12.563  0.00  0.00    +0.000 A 
ATOM     26  S   UNL     1      43.567   2.848  11.892  0.00  0.00    +0.000 S 
ATOM     27  C   UNL     1      44.279   3.172  10.383  0.00  0.00    +0.000 A 
ATOM     28  N   UNL     1      44.131   2.308   9.343  0.00  0.00    +0.000 NA
ATOM     29  C   UNL     1      44.748   2.653   8.267  0.00  0.00    +0.000 A 
ATOM     30  N   UNL     1      45.495   3.794   8.129  0.00  0.00    +0.000 N 
ATOM     31  C   UNL     1      45.628   4.726   9.130  0.00  0.00    +0.000 A 
ATOM     32  O   UNL     1      46.232   5.778   8.942  0.00  0.00    +0.000 OA
ATOM     33  C   UNL     1      44.980   4.367  10.380  0.00  0.00    +0.000 A 
ATOM     34  H   UNL     1      45.943   4.015   7.251  0.00  0.00    +0.000 HD
ENDBRANCH  21  24
ENDBRANCH  19  20
ENDBRANCH   4  19
TORSDOF 8
ENDMDL
MODEL 8
REMARK VINA RESULT:    -6.873      4.108      9.600
REMARK INTER + INTRA:         -11.232
REMARK INTER:                  -9.700
REMARK INTRA:                  -1.532
REMARK UNBOUND:                -1.145
REMARK  Name = 
REMARK  9 active torsions:
REMARK  status: ('A' for Active; 'I' for Inactive)
REMARK    1  A    between atoms: C_1  and  C_2
REMARK    2  A    between atoms: C_2  and  C_3
REMARK    3  A    between atoms: C_3  and  N_4
REMARK    4  A    between atoms: C_3  and  C_12
REMARK    5  A    between atoms: N_4  and  C_5
REMARK    6  A    between atoms: C_5  and  C_6
REMARK    7  A    between atoms: C_15  and  C_16
REMARK    8  A    between atoms: C_16  and  N_17
REMARK    9  A    between atoms: C_18  and  C_20
REMARK                            x       y       z     vdW  Elec       q    Type
REMARK                         _______ _______ _______ _____ _____    ______ ____
ROOT
ATOM      1  C   UNL     1      51.445   3.143  17.795  0.00  0.00    +0.000 A 
ATOM      2  C   UNL     1      50.795   2.059  17.175  0.00  0.00    +0.000 A 
ATOM      3  C   UNL     1      49.424   2.102  16.896  0.00  0.00    +0.000 A 
ATOM      4  C   UNL     1      48.685   3.256  17.177  0.00  0.00    +0.000 A 
ATOM      5  C   UNL     1      49.332   4.342  17.771  0.00  0.00    +0.000 A 
ATOM      6  C   UNL     1      50.684   4.279  18.097  0.00  0.00    +0.000 A 
ENDROOT
BRANCH   1   7
ATOM      7  C   UNL     1      52.921   3.034  18.187  0.00  0.00    +0.000 C 
BRANCH   7   9
ATOM      8  C   UNL     1      54.678   1.331  17.294  0.00  0.00    +0.000 C 
ATOM      9  C   UNL     1      53.407   1.561  18.099  0.00  0.00    +0.000 C 
ENDBRANCH   7   9
BRANCH   7  10
ATOM     10  N   UNL     1      53.782   3.912  17.370  0.00  0.00    +0.000 NA
ATOM     11  H   UNL     1      53.271   4.185  16.531  0.00  0.00    +0.000 HD
BRANCH  10  12
ATOM     12  C   UNL     1      54.198   5.126  18.081  0.00  0.00    +0.000 C 
BRANCH  12  13
ATOM     13  C   UNL     1      53.536   6.366  17.550  0.00  0.00    +0.000 A 
ATOM     14  C   UNL     1      53.156   6.486  16.213  0.00  0.00    +0.000 A 
ATOM     15  C   UNL     1      52.584   7.672  15.762  0.00  0.00    +0.000 A 
ATOM     16  C   UNL     1      52.415   8.707  16.667  0.00  0.00    +0.000 A 
ATOM     17  N   UNL     1      52.776   8.637  17.965  0.00  0.00    +0.000 NA
ATOM     18  C   UNL     1      53.326   7.471  18.376  0.00  0.00    +0.000 A 
ENDBRANCH  12  13
ENDBRANCH  10  12
ENDBRANCH   7  10
ENDBRANCH   1   7
BRANCH   4  19
ATOM     19  C   UNL     1      47.209   3.337  16.900  0.00  0.00    +0.000 C 
BRANCH  19  20
ATOM     20  N   UNL     1      46.888   4.350  15.924  0.00  0.00    +0.000 N 
ATOM     21  C   UNL     1      46.931   4.122  14.573  0.00  0.00    +0.000 C 
ATOM     22  O   UNL     1      47.288   3.045  14.098  0.00  0.00    +0.000 OA
ATOM     23  H   UNL     1      46.688   5.278  16.278  0.00  0.00    +0.000 HD
BRANCH  21  24
ATOM     24  C   UNL     1      46.460   5.208  13.701  0.00  0.00    +0.000 A 
ATOM     25  C   UNL     1      47.280   6.311  13.498  0.00  0.00    +0.000 A 
ATOM     26  S   UNL     1      46.635   7.455  12.412  0.00  0.00    +0.000 S 
ATOM     27  C   UNL     1      45.212   6.546  12.217  0.00  0.00    +0.000 A 
ATOM     28  N   UNL     1      44.207   6.989  11.413  0.00  0.00    +0.000 NA
ATOM     29  C   UNL     1      43.172   6.225  11.379  0.00  0.00    +0.000 A 
ATOM     30  N   UNL     1      43.049   5.047  12.070  0.00  0.00    +0.000 N 
ATOM     31  C   UNL     1      44.056   4.529  12.849  0.00  0.00    +0.000 A 
ATOM     32  O   UNL     1      43.944   3.430  13.383  0.00  0.00    +0.000 OA
ATOM     33  C   UNL     1      45.235   5.371  12.950  0.00  0.00    +0.000 A 
ATOM     34  H   UNL     1      42.214   4.486  11.989  0.00  0.00    +0.000 HD
ENDBRANCH  21  24
ENDBRANCH  19  20
ENDBRANCH   4  19
TORSDOF 8
ENDMDL
MODEL 9
REMARK VINA RESULT:    -6.795      3.097      4.068
REMARK INTER + INTRA:         -11.118
REMARK INTER:                  -9.272
REMARK INTRA:                  -1.846
REMARK UNBOUND:                -1.145
REMARK  Name = 
REMARK  9 active torsions:
REMARK  status: ('A' for Active; 'I' for Inactive)
REMARK    1  A    between atoms: C_1  and  C_2
REMARK    2  A    between atoms: C_2  and  C_3
REMARK    3  A    between atoms: C_3  and  N_4
REMARK    4  A    between atoms: C_3  and  C_12
REMARK    5  A    between atoms: N_4  and  C_5
REMARK    6  A    between atoms: C_5  and  C_6
REMARK    7  A    between atoms: C_15  and  C_16
REMARK    8  A    between atoms: C_16  and  N_17
REMARK    9  A    between atoms: C_18  and  C_20
REMARK                            x       y       z     vdW  Elec       q    Type
REMARK                         _______ _______ _______ _____ _____    ______ ____
ROOT
ATOM      1  C   UNL     1      45.762   8.474  11.877  0.00  0.00    +0.000 A 
ATOM      2  C   UNL     1      46.501   9.525  12.452  0.00  0.00    +0.000 A 
ATOM      3  C   UNL     1      47.807   9.322  12.913  0.00  0.00    +0.000 A 
ATOM      4  C   UNL     1      48.424   8.077  12.753  0.00  0.00    +0.000 A 
ATOM      5  C   UNL     1      47.701   7.038  12.161  0.00  0.00    +0.000 A 
ATOM      6  C   UNL     1      46.384   7.225  11.753  0.00  0.00    +0.000 A 
ENDROOT
BRANCH   1   7
ATOM      7  C   UNL     1      44.299   8.690  11.478  0.00  0.00    +0.000 C 
BRANCH   7   9
ATOM      8  C   UNL     1      43.240  11.066  11.348  0.00  0.00    +0.000 C 
ATOM      9  C   UNL     1      44.133  10.021  10.695  0.00  0.00    +0.000 C 
ENDBRANCH   7   9
BRANCH   7  10
ATOM     10  N   UNL     1      43.762   7.558  10.695  0.00  0.00    +0.000 NA
ATOM     11  H   UNL     1      44.533   6.946  10.432  0.00  0.00    +0.000 HD
BRANCH  10  12
ATOM     12  C   UNL     1      42.771   6.771  11.437  0.00  0.00    +0.000 C 
BRANCH  12  13
ATOM     13  C   UNL     1      43.208   5.351  11.664  0.00  0.00    +0.000 A 
ATOM     14  C   UNL     1      43.570   4.513  10.609  0.00  0.00    +0.000 A 
ATOM     15  C   UNL     1      43.929   3.193  10.870  0.00  0.00    +0.000 A 
ATOM     16  C   UNL     1      43.908   2.752  12.183  0.00  0.00    +0.000 A 
ATOM     17  N   UNL     1      43.556   3.526  13.230  0.00  0.00    +0.000 NA
ATOM     18  C   UNL     1      43.216   4.804  12.947  0.00  0.00    +0.000 A 
ENDBRANCH  12  13
ENDBRANCH  10  12
ENDBRANCH   7  10
ENDBRANCH   1   7
BRANCH   4  19
ATOM     19  C   UNL     1      49.823   7.817  13.242  0.00  0.00    +0.000 C 
BRANCH  19  20
ATOM     20  N   UNL     1      49.854   6.905  14.358  0.00  0.00    +0.000 N 
ATOM     21  C   UNL     1      49.781   7.320  15.662  0.00  0.00    +0.000 C 
ATOM     22  O   UNL     1      49.724   8.509  15.972  0.00  0.00    +0.000 OA
ATOM     23  H   UNL     1      50.002   5.925  14.143  0.00  0.00    +0.000 HD
BRANCH  21  24
ATOM     24  C   UNL     1      49.700   6.271  16.689  0.00  0.00    +0.000 A 
ATOM     25  C   UNL     1      50.591   6.303  17.754  0.00  0.00    +0.000 A 
ATOM     26  S   UNL     1      50.335   5.070  18.901  0.00  0.00    +0.000 S 
ATOM     27  C   UNL     1      49.060   4.413  17.989  0.00  0.00    +0.000 A 
ATOM     28  N   UNL     1      48.403   3.298  18.410  0.00  0.00    +0.000 NA
ATOM     29  C   UNL     1      47.482   2.884  17.611  0.00  0.00    +0.000 A 
ATOM     30  N   UNL     1      47.147   3.489  16.428  0.00  0.00    +0.000 N 
ATOM     31  C   UNL     1      47.741   4.648  15.986  0.00  0.00    +0.000 A 
ATOM     32  O   UNL     1      47.355   5.209  14.966  0.00  0.00    +0.000 OA
ATOM     33  C   UNL     1      48.813   5.138  16.834  0.00  0.00    +0.000 A 
ATOM     34  H   UNL     1      46.403   3.121  15.853  0.00  0.00    +0.000 HD
ENDBRANCH  21  24
ENDBRANCH  19  20
ENDBRANCH   4  19
TORSDOF 8
ENDMDL
