MODEL 1
REMARK VINA RESULT:    -7.859      0.000      0.000
REMARK INTER + INTRA:         -12.632
REMARK INTER:                 -11.535
REMARK INTRA:                  -1.097
REMARK UNBOUND:                -1.097
REMARK  Name = 
REMARK  9 active torsions:
REMARK  status: ('A' for Active; 'I' for Inactive)
REMARK    1  A    between atoms: C_1  and  C_2
REMARK    2  A    between atoms: C_2  and  N_3
REMARK    3  A    between atoms: C_2  and  C_11
REMARK    4  A    between atoms: N_3  and  C_4
REMARK    5  A    between atoms: C_4  and  C_5
REMARK    6  A    between atoms: C_14  and  C_15
REMARK    7  A    between atoms: C_15  and  N_16
REMARK    8  A    between atoms: N_16  and  C_17
REMARK    9  A    between atoms: C_17  and  C_18
REMARK                            x       y       z     vdW  Elec       q    Type
REMARK                         _______ _______ _______ _____ _____    ______ ____
ROOT
ATOM      1  C   UNL     1      45.462   4.669  12.047  0.00  0.00    +0.000 A 
ATOM      2  C   UNL     1      46.008   4.225  13.265  0.00  0.00    +0.000 A 
ATOM      3  C   UNL     1      47.008   4.948  13.914  0.00  0.00    +0.000 A 
ATOM      4  C   UNL     1      47.472   6.155  13.378  0.00  0.00    +0.000 A 
ATOM      5  C   UNL     1      46.947   6.597  12.159  0.00  0.00    +0.000 A 
ATOM      6  C   UNL     1      45.963   5.857  11.495  0.00  0.00    +0.000 A 
ENDROOT
BRANCH   1   8
ATOM      7  C   UNL     1      43.579   4.643  10.336  0.00  0.00    +0.000 C 
ATOM      8  C   UNL     1      44.373   3.840  11.376  0.00  0.00    +0.000 C 
BRANCH   8   9
ATOM      9  N   UNL     1      44.883   2.622  10.726  0.00  0.00    +0.000 NA
ATOM     10  H   UNL     1      44.587   1.802  11.252  0.00  0.00    +0.000 HD
BRANCH   9  11
ATOM     11  C   UNL     1      44.429   2.485   9.343  0.00  0.00    +0.000 C 
BRANCH  11  12
ATOM     12  C   UNL     1      45.577   2.458   8.364  0.00  0.00    +0.000 A 
ATOM     13  C   UNL     1      46.279   1.266   8.127  0.00  0.00    +0.000 A 
ATOM     14  C   UNL     1      47.304   1.218   7.185  0.00  0.00    +0.000 A 
ATOM     15  C   UNL     1      47.641   2.366   6.469  0.00  0.00    +0.000 A 
ATOM     16  C   UNL     1      46.956   3.555   6.696  0.00  0.00    +0.000 A 
ATOM     17  C   UNL     1      45.930   3.607   7.640  0.00  0.00    +0.000 A 
ENDBRANCH  11  12
ENDBRANCH   9  11
ENDBRANCH   8   9
ENDBRANCH   1   8
BRANCH   4  18
ATOM     18  C   UNL     1      48.501   6.973  14.119  0.00  0.00    +0.000 C 
BRANCH  18  19
ATOM     19  N   UNL     1      48.125   7.136  15.519  0.00  0.00    +0.000 NA
ATOM     20  H   UNL     1      47.350   6.504  15.724  0.00  0.00    +0.000 HD
BRANCH  19  21
ATOM     21  C   UNL     1      49.244   6.797  16.405  0.00  0.00    +0.000 C 
BRANCH  21  22
ATOM     22  C   UNL     1      49.084   5.403  16.977  0.00  0.00    +0.000 A 
ATOM     23  C   UNL     1      47.837   4.958  17.378  0.00  0.00    +0.000 A 
ATOM     24  C   UNL     1      47.771   3.665  17.840  0.00  0.00    +0.000 A 
ATOM     25  N   UNL     1      48.839   2.852  17.925  0.00  0.00    +0.000 NA
ATOM     26  C   UNL     1      50.001   3.381  17.515  0.00  0.00    +0.000 A 
ATOM     27  N   UNL     1      50.185   4.622  17.038  0.00  0.00    +0.000 NA
ENDBRANCH  21  22
ENDBRANCH  19  21
ENDBRANCH  18  19
ENDBRANCH   4  18
TORSDOF 8
ENDMDL
MODEL 2
REMARK VINA RESULT:    -7.548      1.553      8.388
REMARK INTER + INTRA:         -12.174
REMARK INTER:                 -11.012
REMARK INTRA:                  -1.162
REMARK UNBOUND:                -1.097
REMARK  Name = 
REMARK  9 active torsions:
REMARK  status: ('A' for Active; 'I' for Inactive)
REMARK    1  A    between atoms: C_1  and  C_2
REMARK    2  A    between atoms: C_2  and  N_3
REMARK    3  A    between atoms: C_2  and  C_11
REMARK    4  A    between atoms: N_3  and  C_4
REMARK    5  A    between atoms: C_4  and  C_5
REMARK    6  A    between atoms: C_14  and  C_15
REMARK    7  A    between atoms: C_15  and  N_16
REMARK    8  A    between atoms: N_16  and  C_17
REMARK    9  A    between atoms: C_17  and  C_18
REMARK                            x       y       z     vdW  Elec       q    Type
REMARK                         _______ _______ _______ _____ _____    ______ ____
ROOT
ATOM      1  C   UNL     1      47.039   6.021  12.857  0.00  0.00    +0.000 A 
ATOM      2  C   UNL     1      46.868   6.520  11.554  0.00  0.00    +0.000 A 
ATOM      3  C   UNL     1      45.782   6.133  10.769  0.00  0.00    +0.000 A 
ATOM      4  C   UNL     1      44.817   5.256  11.277  0.00  0.00    +0.000 A 
ATOM      5  C   UNL     1      44.987   4.741  12.567  0.00  0.00    +0.000 A 
ATOM      6  C   UNL     1      46.091   5.109  13.343  0.00  0.00    +0.000 A 
ENDROOT
BRANCH   1   8
ATOM      7  C   UNL     1      49.121   7.483  12.915  0.00  0.00    +0.000 C 
ATOM      8  C   UNL     1      48.245   6.473  13.672  0.00  0.00    +0.000 C 
BRANCH   8   9
ATOM      9  N   UNL     1      47.886   7.059  14.973  0.00  0.00    +0.000 NA
ATOM     10  H   UNL     1      47.001   6.672  15.292  0.00  0.00    +0.000 HD
BRANCH   9  11
ATOM     11  C   UNL     1      48.900   6.827  15.999  0.00  0.00    +0.000 C 
BRANCH  11  12
ATOM     12  C   UNL     1      48.767   5.467  16.640  0.00  0.00    +0.000 A 
ATOM     13  C   UNL     1      49.878   4.853  17.239  0.00  0.00    +0.000 A 
ATOM     14  C   UNL     1      49.752   3.623  17.879  0.00  0.00    +0.000 A 
ATOM     15  C   UNL     1      48.511   2.989  17.926  0.00  0.00    +0.000 A 
ATOM     16  C   UNL     1      47.402   3.584  17.332  0.00  0.00    +0.000 A 
ATOM     17  C   UNL     1      47.525   4.816  16.689  0.00  0.00    +0.000 A 
ENDBRANCH  11  12
ENDBRANCH   9  11
ENDBRANCH   8   9
ENDBRANCH   1   8
BRANCH   4  18
ATOM     18  C   UNL     1      43.604   4.895  10.454  0.00  0.00    +0.000 C 
BRANCH  18  19
ATOM     19  N   UNL     1      43.998   4.280   9.192  0.00  0.00    +0.000 NA
ATOM     20  H   UNL     1      44.797   4.792   8.814  0.00  0.00    +0.000 HD
BRANCH  19  21
ATOM     21  C   UNL     1      44.398   2.883   9.392  0.00  0.00    +0.000 C 
BRANCH  21  22
ATOM     22  C   UNL     1      45.522   2.498   8.452  0.00  0.00    +0.000 A 
ATOM     23  C   UNL     1      46.153   3.466   7.692  0.00  0.00    +0.000 A 
ATOM     24  C   UNL     1      47.193   3.039   6.903  0.00  0.00    +0.000 A 
ATOM     25  N   UNL     1      47.596   1.757   6.835  0.00  0.00    +0.000 NA
ATOM     26  C   UNL     1      46.917   0.897   7.608  0.00  0.00    +0.000 A 
ATOM     27  N   UNL     1      45.895   1.199   8.424  0.00  0.00    +0.000 NA
ENDBRANCH  21  22
ENDBRANCH  19  21
ENDBRANCH  18  19
ENDBRANCH   4  18
TORSDOF 8
ENDMDL
MODEL 3
REMARK VINA RESULT:    -7.516      1.247      2.003
REMARK INTER + INTRA:         -12.129
REMARK INTER:                 -10.956
REMARK INTRA:                  -1.173
REMARK UNBOUND:                -1.097
REMARK  Name = 
REMARK  9 active torsions:
REMARK  status: ('A' for Active; 'I' for Inactive)
REMARK    1  A    between atoms: C_1  and  C_2
REMARK    2  A    between atoms: C_2  and  N_3
REMARK    3  A    between atoms: C_2  and  C_11
REMARK    4  A    between atoms: N_3  and  C_4
REMARK    5  A    between atoms: C_4  and  C_5
REMARK    6  A    between atoms: C_14  and  C_15
REMARK    7  A    between atoms: C_15  and  N_16
REMARK    8  A    between atoms: N_16  and  C_17
REMARK    9  A    between atoms: C_17  and  C_18
REMARK                            x       y       z     vdW  Elec       q    Type
REMARK                         _______ _______ _______ _____ _____    ______ ____
ROOT
ATOM      1  C   UNL     1      44.964   5.242  11.945  0.00  0.00    +0.000 A 
ATOM      2  C   UNL     1      45.274   6.488  11.372  0.00  0.00    +0.000 A 
ATOM      3  C   UNL     1      46.435   7.177  11.724  0.00  0.00    +0.000 A 
ATOM      4  C   UNL     1      47.337   6.623  12.640  0.00  0.00    +0.000 A 
ATOM      5  C   UNL     1      47.029   5.391  13.227  0.00  0.00    +0.000 A 
ATOM      6  C   UNL     1      45.851   4.715  12.894  0.00  0.00    +0.000 A 
ENDROOT
BRANCH   1   8
ATOM      7  C   UNL     1      42.432   5.400  11.748  0.00  0.00    +0.000 C 
ATOM      8  C   UNL     1      43.681   4.533  11.528  0.00  0.00    +0.000 C 
BRANCH   8   9
ATOM      9  N   UNL     1      43.688   4.086  10.126  0.00  0.00    +0.000 NA
ATOM     10  H   UNL     1      44.205   4.752   9.555  0.00  0.00    +0.000 HD
BRANCH   9  11
ATOM     11  C   UNL     1      44.280   2.760   9.956  0.00  0.00    +0.000 C 
BRANCH  11  12
ATOM     12  C   UNL     1      45.272   2.717   8.820  0.00  0.00    +0.000 A 
ATOM     13  C   UNL     1      45.643   3.897   8.156  0.00  0.00    +0.000 A 
ATOM     14  C   UNL     1      46.598   3.873   7.143  0.00  0.00    +0.000 A 
ATOM     15  C   UNL     1      47.194   2.667   6.780  0.00  0.00    +0.000 A 
ATOM     16  C   UNL     1      46.833   1.489   7.426  0.00  0.00    +0.000 A 
ATOM     17  C   UNL     1      45.875   1.508   8.441  0.00  0.00    +0.000 A 
ENDBRANCH  11  12
ENDBRANCH   9  11
ENDBRANCH   8   9
ENDBRANCH   1   8
BRANCH   4  18
ATOM     18  C   UNL     1      48.628   7.334  12.965  0.00  0.00    +0.000 C 
BRANCH  18  19
ATOM     19  N   UNL     1      49.427   6.555  13.905  0.00  0.00    +0.000 NA
ATOM     20  H   UNL     1      50.334   6.360  13.478  0.00  0.00    +0.000 HD
BRANCH  19  21
ATOM     21  C   UNL     1      49.652   7.303  15.146  0.00  0.00    +0.000 C 
BRANCH  21  22
ATOM     22  C   UNL     1      49.054   6.579  16.335  0.00  0.00    +0.000 A 
ATOM     23  C   UNL     1      48.676   7.289  17.460  0.00  0.00    +0.000 A 
ATOM     24  C   UNL     1      48.098   6.562  18.474  0.00  0.00    +0.000 A 
ATOM     25  N   UNL     1      47.905   5.232  18.417  0.00  0.00    +0.000 NA
ATOM     26  C   UNL     1      48.309   4.639  17.284  0.00  0.00    +0.000 A 
ATOM     27  N   UNL     1      48.875   5.243  16.228  0.00  0.00    +0.000 NA
ENDBRANCH  21  22
ENDBRANCH  19  21
ENDBRANCH  18  19
ENDBRANCH   4  18
TORSDOF 8
ENDMDL
MODEL 4
REMARK VINA RESULT:    -7.371      1.618      8.433
REMARK INTER + INTRA:         -11.915
REMARK INTER:                 -10.773
REMARK INTRA:                  -1.142
REMARK UNBOUND:                -1.097
REMARK  Name = 
REMARK  9 active torsions:
REMARK  status: ('A' for Active; 'I' for Inactive)
REMARK    1  A    between atoms: C_1  and  C_2
REMARK    2  A    between atoms: C_2  and  N_3
REMARK    3  A    between atoms: C_2  and  C_11
REMARK    4  A    between atoms: N_3  and  C_4
REMARK    5  A    between atoms: C_4  and  C_5
REMARK    6  A    between atoms: C_14  and  C_15
REMARK    7  A    between atoms: C_15  and  N_16
REMARK    8  A    between atoms: N_16  and  C_17
REMARK    9  A    between atoms: C_17  and  C_18
REMARK                            x       y       z     vdW  Elec       q    Type
REMARK                         _______ _______ _______ _____ _____    ______ ____
ROOT
ATOM      1  C   UNL     1      47.719   6.284  13.520  0.00  0.00    +0.000 A 
ATOM      2  C   UNL     1      46.948   5.133  13.763  0.00  0.00    +0.000 A 
ATOM      3  C   UNL     1      45.997   4.694  12.843  0.00  0.00    +0.000 A 
ATOM      4  C   UNL     1      45.808   5.377  11.636  0.00  0.00    +0.000 A 
ATOM      5  C   UNL     1      46.559   6.532  11.392  0.00  0.00    +0.000 A 
ATOM      6  C   UNL     1      47.494   6.988  12.328  0.00  0.00    +0.000 A 
ENDROOT
BRANCH   1   8
ATOM      7  C   UNL     1      49.695   7.805  14.027  0.00  0.00    +0.000 C 
ATOM      8  C   UNL     1      48.743   6.724  14.560  0.00  0.00    +0.000 C 
BRANCH   8   9
ATOM      9  N   UNL     1      48.136   7.219  15.805  0.00  0.00    +0.000 NA
ATOM     10  H   UNL     1      47.167   6.913  15.860  0.00  0.00    +0.000 HD
BRANCH   9  11
ATOM     11  C   UNL     1      48.843   6.764  17.001  0.00  0.00    +0.000 C 
BRANCH  11  12
ATOM     12  C   UNL     1      48.701   5.278  17.220  0.00  0.00    +0.000 A 
ATOM     13  C   UNL     1      47.428   4.688  17.282  0.00  0.00    +0.000 A 
ATOM     14  C   UNL     1      47.288   3.311  17.430  0.00  0.00    +0.000 A 
ATOM     15  C   UNL     1      48.422   2.504  17.520  0.00  0.00    +0.000 A 
ATOM     16  C   UNL     1      49.689   3.075  17.465  0.00  0.00    +0.000 A 
ATOM     17  C   UNL     1      49.833   4.455  17.318  0.00  0.00    +0.000 A 
ENDBRANCH  11  12
ENDBRANCH   9  11
ENDBRANCH   8   9
ENDBRANCH   1   8
BRANCH   4  18
ATOM     18  C   UNL     1      44.831   4.859  10.610  0.00  0.00    +0.000 C 
BRANCH  18  19
ATOM     19  N   UNL     1      45.392   4.953   9.266  0.00  0.00    +0.000 NA
ATOM     20  H   UNL     1      46.402   4.820   9.324  0.00  0.00    +0.000 HD
BRANCH  19  21
ATOM     21  C   UNL     1      44.838   3.913   8.393  0.00  0.00    +0.000 C 
BRANCH  21  22
ATOM     22  C   UNL     1      45.926   2.985   7.894  0.00  0.00    +0.000 A 
ATOM     23  C   UNL     1      45.915   1.648   8.251  0.00  0.00    +0.000 A 
ATOM     24  C   UNL     1      46.910   0.866   7.715  0.00  0.00    +0.000 A 
ATOM     25  N   UNL     1      47.867   1.340   6.897  0.00  0.00    +0.000 NA
ATOM     26  C   UNL     1      47.790   2.649   6.616  0.00  0.00    +0.000 A 
ATOM     27  N   UNL     1      46.862   3.506   7.070  0.00  0.00    +0.000 NA
ENDBRANCH  21  22
ENDBRANCH  19  21
ENDBRANCH  18  19
ENDBRANCH   4  18
TORSDOF 8
ENDMDL
MODEL 5
REMARK VINA RESULT:    -7.209      2.929      8.187
REMARK INTER + INTRA:         -11.677
REMARK INTER:                 -10.784
REMARK INTRA:                  -0.893
REMARK UNBOUND:                -1.097
REMARK  Name = 
REMARK  9 active torsions:
REMARK  status: ('A' for Active; 'I' for Inactive)
REMARK    1  A    between atoms: C_1  and  C_2
REMARK    2  A    between atoms: C_2  and  N_3
REMARK    3  A    between atoms: C_2  and  C_11
REMARK    4  A    between atoms: N_3  and  C_4
REMARK    5  A    between atoms: C_4  and  C_5
REMARK    6  A    between atoms: C_14  and  C_15
REMARK    7  A    between atoms: C_15  and  N_16
REMARK    8  A    between atoms: N_16  and  C_17
REMARK    9  A    between atoms: C_17  and  C_18
REMARK                            x       y       z     vdW  Elec       q    Type
REMARK                         _______ _______ _______ _____ _____    ______ ____
ROOT
ATOM      1  C   UNL     1      46.620   5.994  12.690  0.00  0.00    +0.000 A 
ATOM      2  C   UNL     1      45.879   6.310  11.538  0.00  0.00    +0.000 A 
ATOM      3  C   UNL     1      44.978   5.398  10.987  0.00  0.00    +0.000 A 
ATOM      4  C   UNL     1      44.769   4.153  11.591  0.00  0.00    +0.000 A 
ATOM      5  C   UNL     1      45.514   3.824  12.729  0.00  0.00    +0.000 A 
ATOM      6  C   UNL     1      46.438   4.728  13.264  0.00  0.00    +0.000 A 
ENDROOT
BRANCH   1   8
ATOM      7  C   UNL     1      48.755   7.319  12.288  0.00  0.00    +0.000 C 
ATOM      8  C   UNL     1      47.594   7.024  13.250  0.00  0.00    +0.000 C 
BRANCH   8   9
ATOM      9  N   UNL     1      46.956   8.301  13.606  0.00  0.00    +0.000 NA
ATOM     10  H   UNL     1      47.102   8.494  14.595  0.00  0.00    +0.000 HD
BRANCH   9  11
ATOM     11  C   UNL     1      47.464   9.427  12.824  0.00  0.00    +0.000 C 
BRANCH  11  12
ATOM     12  C   UNL     1      46.365  10.164  12.100  0.00  0.00    +0.000 A 
ATOM     13  C   UNL     1      46.659  11.308  11.341  0.00  0.00    +0.000 A 
ATOM     14  C   UNL     1      45.660  11.963  10.626  0.00  0.00    +0.000 A 
ATOM     15  C   UNL     1      44.351  11.483  10.663  0.00  0.00    +0.000 A 
ATOM     16  C   UNL     1      44.045  10.353  11.415  0.00  0.00    +0.000 A 
ATOM     17  C   UNL     1      45.043   9.695  12.133  0.00  0.00    +0.000 A 
ENDBRANCH  11  12
ENDBRANCH   9  11
ENDBRANCH   8   9
ENDBRANCH   1   8
BRANCH   4  18
ATOM     18  C   UNL     1      43.741   3.198  11.037  0.00  0.00    +0.000 C 
BRANCH  18  19
ATOM     19  N   UNL     1      44.332   2.328  10.027  0.00  0.00    +0.000 NA
ATOM     20  H   UNL     1      43.648   1.616   9.768  0.00  0.00    +0.000 HD
BRANCH  19  21
ATOM     21  C   UNL     1      44.686   3.088   8.823  0.00  0.00    +0.000 C 
BRANCH  21  22
ATOM     22  C   UNL     1      45.830   2.430   8.080  0.00  0.00    +0.000 A 
ATOM     23  C   UNL     1      46.647   3.185   7.257  0.00  0.00    +0.000 A 
ATOM     24  C   UNL     1      47.690   2.520   6.658  0.00  0.00    +0.000 A 
ATOM     25  N   UNL     1      47.928   1.207   6.827  0.00  0.00    +0.000 NA
ATOM     26  C   UNL     1      47.077   0.566   7.641  0.00  0.00    +0.000 A 
ATOM     27  N   UNL     1      46.033   1.109   8.286  0.00  0.00    +0.000 NA
ENDBRANCH  21  22
ENDBRANCH  19  21
ENDBRANCH  18  19
ENDBRANCH   4  18
TORSDOF 8
ENDMDL
MODEL 6
REMARK VINA RESULT:    -7.104      2.700      4.630
REMARK INTER + INTRA:         -11.524
REMARK INTER:                 -10.470
REMARK INTRA:                  -1.054
REMARK UNBOUND:                -1.097
REMARK  Name = 
REMARK  9 active torsions:
REMARK  status: ('A' for Active; 'I' for Inactive)
REMARK    1  A    between atoms: C_1  and  C_2
REMARK    2  A    between atoms: C_2  and  N_3
REMARK    3  A    between atoms: C_2  and  C_11
REMARK    4  A    between atoms: N_3  and  C_4
REMARK    5  A    between atoms: C_4  and  C_5
REMARK    6  A    between atoms: C_14  and  C_15
REMARK    7  A    between atoms: C_15  and  N_16
REMARK    8  A    between atoms: N_16  and  C_17
REMARK    9  A    between atoms: C_17  and  C_18
REMARK                            x       y       z     vdW  Elec       q    Type
REMARK                         _______ _______ _______ _____ _____    ______ ____
ROOT
ATOM      1  C   UNL     1      45.028   4.959  11.983  0.00  0.00    +0.000 A 
ATOM      2  C   UNL     1      45.631   6.129  11.489  0.00  0.00    +0.000 A 
ATOM      3  C   UNL     1      46.769   6.665  12.092  0.00  0.00    +0.000 A 
ATOM      4  C   UNL     1      47.355   6.029  13.192  0.00  0.00    +0.000 A 
ATOM      5  C   UNL     1      46.753   4.873  13.701  0.00  0.00    +0.000 A 
ATOM      6  C   UNL     1      45.596   4.352  13.112  0.00  0.00    +0.000 A 
ENDROOT
BRANCH   1   8
ATOM      7  C   UNL     1      42.580   5.362  11.418  0.00  0.00    +0.000 C 
ATOM      8  C   UNL     1      43.784   4.417  11.290  0.00  0.00    +0.000 C 
BRANCH   8   9
ATOM      9  N   UNL     1      43.989   4.125   9.863  0.00  0.00    +0.000 NA
ATOM     10  H   UNL     1      44.713   4.735   9.488  0.00  0.00    +0.000 HD
BRANCH   9  11
ATOM     11  C   UNL     1      44.370   2.735   9.616  0.00  0.00    +0.000 C 
BRANCH  11  12
ATOM     12  C   UNL     1      45.426   2.611   8.546  0.00  0.00    +0.000 A 
ATOM     13  C   UNL     1      46.073   1.385   8.326  0.00  0.00    +0.000 A 
ATOM     14  C   UNL     1      47.010   1.248   7.305  0.00  0.00    +0.000 A 
ATOM     15  C   UNL     1      47.313   2.338   6.491  0.00  0.00    +0.000 A 
ATOM     16  C   UNL     1      46.684   3.561   6.700  0.00  0.00    +0.000 A 
ATOM     17  C   UNL     1      45.746   3.702   7.723  0.00  0.00    +0.000 A 
ENDBRANCH  11  12
ENDBRANCH   9  11
ENDBRANCH   8   9
ENDBRANCH   1   8
BRANCH   4  18
ATOM     18  C   UNL     1      48.628   6.569  13.797  0.00  0.00    +0.000 C 
BRANCH  18  19
ATOM     19  N   UNL     1      49.594   6.905  12.758  0.00  0.00    +0.000 NA
ATOM     20  H   UNL     1      49.090   7.090  11.890  0.00  0.00    +0.000 HD
BRANCH  19  21
ATOM     21  C   UNL     1      50.352   8.109  13.117  0.00  0.00    +0.000 C 
BRANCH  21  22
ATOM     22  C   UNL     1      50.121   9.218  12.112  0.00  0.00    +0.000 A 
ATOM     23  C   UNL     1      48.851   9.736  11.931  0.00  0.00    +0.000 A 
ATOM     24  C   UNL     1      48.737  10.773  11.036  0.00  0.00    +0.000 A 
ATOM     25  N   UNL     1      49.777  11.274  10.345  0.00  0.00    +0.000 NA
ATOM     26  C   UNL     1      50.964  10.700  10.590  0.00  0.00    +0.000 A 
ATOM     27  N   UNL     1      51.197   9.693  11.446  0.00  0.00    +0.000 NA
ENDBRANCH  21  22
ENDBRANCH  19  21
ENDBRANCH  18  19
ENDBRANCH   4  18
TORSDOF 8
ENDMDL
MODEL 7
REMARK VINA RESULT:    -6.975      1.556      2.082
REMARK INTER + INTRA:         -11.333
REMARK INTER:                 -10.518
REMARK INTRA:                  -0.815
REMARK UNBOUND:                -1.097
REMARK  Name = 
REMARK  9 active torsions:
REMARK  status: ('A' for Active; 'I' for Inactive)
REMARK    1  A    between atoms: C_1  and  C_2
REMARK    2  A    between atoms: C_2  and  N_3
REMARK    3  A    between atoms: C_2  and  C_11
REMARK    4  A    between atoms: N_3  and  C_4
REMARK    5  A    between atoms: C_4  and  C_5
REMARK    6  A    between atoms: C_14  and  C_15
REMARK    7  A    between atoms: C_15  and  N_16
REMARK    8  A    between atoms: N_16  and  C_17
REMARK    9  A    between atoms: C_17  and  C_18
REMARK                            x       y       z     vdW  Elec       q    Type
REMARK                         _______ _______ _______ _____ _____    ______ ____
ROOT
ATOM      1  C   UNL     1      45.530   4.566  12.011  0.00  0.00    +0.000 A 
ATOM      2  C   UNL     1      46.083   4.360  13.287  0.00  0.00    +0.000 A 
ATOM      3  C   UNL     1      46.978   5.275  13.842  0.00  0.00    +0.000 A 
ATOM      4  C   UNL     1      47.325   6.439  13.147  0.00  0.00    +0.000 A 
ATOM      5  C   UNL     1      46.793   6.644  11.870  0.00  0.00    +0.000 A 
ATOM      6  C   UNL     1      45.917   5.713  11.303  0.00  0.00    +0.000 A 
ENDROOT
BRANCH   1   8
ATOM      7  C   UNL     1      43.181   3.594  12.124  0.00  0.00    +0.000 C 
ATOM      8  C   UNL     1      44.560   3.535  11.448  0.00  0.00    +0.000 C 
BRANCH   8   9
ATOM      9  N   UNL     1      44.364   3.646   9.994  0.00  0.00    +0.000 NA
ATOM     10  H   UNL     1      45.018   4.327   9.611  0.00  0.00    +0.000 HD
BRANCH   9  11
ATOM     11  C   UNL     1      44.544   2.374   9.297  0.00  0.00    +0.000 C 
BRANCH  11  12
ATOM     12  C   UNL     1      45.684   2.418   8.310  0.00  0.00    +0.000 A 
ATOM     13  C   UNL     1      46.415   1.256   8.019  0.00  0.00    +0.000 A 
ATOM     14  C   UNL     1      47.433   1.274   7.068  0.00  0.00    +0.000 A 
ATOM     15  C   UNL     1      47.734   2.459   6.398  0.00  0.00    +0.000 A 
ATOM     16  C   UNL     1      47.020   3.620   6.680  0.00  0.00    +0.000 A 
ATOM     17  C   UNL     1      46.001   3.605   7.632  0.00  0.00    +0.000 A 
ENDBRANCH  11  12
ENDBRANCH   9  11
ENDBRANCH   8   9
ENDBRANCH   1   8
BRANCH   4  18
ATOM     18  C   UNL     1      48.236   7.463  13.780  0.00  0.00    +0.000 C 
BRANCH  18  19
ATOM     19  N   UNL     1      49.630   7.045  13.686  0.00  0.00    +0.000 NA
ATOM     20  H   UNL     1      49.963   7.227  12.738  0.00  0.00    +0.000 HD
BRANCH  19  21
ATOM     21  C   UNL     1      50.468   7.802  14.622  0.00  0.00    +0.000 C 
BRANCH  21  22
ATOM     22  C   UNL     1      51.039   6.899  15.696  0.00  0.00    +0.000 A 
ATOM     23  C   UNL     1      52.390   6.940  15.989  0.00  0.00    +0.000 A 
ATOM     24  C   UNL     1      52.817   6.124  17.010  0.00  0.00    +0.000 A 
ATOM     25  N   UNL     1      52.000   5.308  17.699  0.00  0.00    +0.000 NA
ATOM     26  C   UNL     1      50.710   5.341  17.334  0.00  0.00    +0.000 A 
ATOM     27  N   UNL     1      50.177   6.100  16.364  0.00  0.00    +0.000 NA
ENDBRANCH  21  22
ENDBRANCH  19  21
ENDBRANCH  18  19
ENDBRANCH   4  18
TORSDOF 8
ENDMDL
MODEL 8
REMARK VINA RESULT:    -6.508      3.923      8.311
REMARK INTER + INTRA:         -10.649
REMARK INTER:                 -10.042
REMARK INTRA:                  -0.606
REMARK UNBOUND:                -1.097
REMARK  Name = 
REMARK  9 active torsions:
REMARK  status: ('A' for Active; 'I' for Inactive)
REMARK    1  A    between atoms: C_1  and  C_2
REMARK    2  A    between atoms: C_2  and  N_3
REMARK    3  A    between atoms: C_2  and  C_11
REMARK    4  A    between atoms: N_3  and  C_4
REMARK    5  A    between atoms: C_4  and  C_5
REMARK    6  A    between atoms: C_14  and  C_15
REMARK    7  A    between atoms: C_15  and  N_16
REMARK    8  A    between atoms: N_16  and  C_17
REMARK    9  A    between atoms: C_17  and  C_18
REMARK                            x       y       z     vdW  Elec       q    Type
REMARK                         _______ _______ _______ _____ _____    ______ ____
ROOT
ATOM      1  C   UNL     1      45.007   6.923  12.128  0.00  0.00    +0.000 A 
ATOM      2  C   UNL     1      43.750   6.761  11.519  0.00  0.00    +0.000 A 
ATOM      3  C   UNL     1      43.288   5.499  11.143  0.00  0.00    +0.000 A 
ATOM      4  C   UNL     1      44.060   4.358  11.391  0.00  0.00    +0.000 A 
ATOM      5  C   UNL     1      45.319   4.512  11.981  0.00  0.00    +0.000 A 
ATOM      6  C   UNL     1      45.793   5.780  12.333  0.00  0.00    +0.000 A 
ENDROOT
BRANCH   1   8
ATOM      7  C   UNL     1      46.969   8.383  12.835  0.00  0.00    +0.000 C 
ATOM      8  C   UNL     1      45.467   8.324  12.516  0.00  0.00    +0.000 C 
BRANCH   8   9
ATOM      9  N   UNL     1      45.173   9.341  11.494  0.00  0.00    +0.000 NA
ATOM     10  H   UNL     1      44.173   9.360  11.306  0.00  0.00    +0.000 HD
BRANCH   9  11
ATOM     11  C   UNL     1      45.606  10.681  11.886  0.00  0.00    +0.000 C 
BRANCH  11  12
ATOM     12  C   UNL     1      46.389  11.371  10.797  0.00  0.00    +0.000 A 
ATOM     13  C   UNL     1      47.791  11.410  10.847  0.00  0.00    +0.000 A 
ATOM     14  C   UNL     1      48.524  11.998   9.819  0.00  0.00    +0.000 A 
ATOM     15  C   UNL     1      47.862  12.557   8.727  0.00  0.00    +0.000 A 
ATOM     16  C   UNL     1      46.472  12.530   8.666  0.00  0.00    +0.000 A 
ATOM     17  C   UNL     1      45.735  11.943   9.695  0.00  0.00    +0.000 A 
ENDBRANCH  11  12
ENDBRANCH   9  11
ENDBRANCH   8   9
ENDBRANCH   1   8
BRANCH   4  18
ATOM     18  C   UNL     1      43.527   2.988  11.051  0.00  0.00    +0.000 C 
BRANCH  18  19
ATOM     19  N   UNL     1      44.426   2.295  10.134  0.00  0.00    +0.000 NA
ATOM     20  H   UNL     1      43.964   1.447   9.803  0.00  0.00    +0.000 HD
BRANCH  19  21
ATOM     21  C   UNL     1      44.737   3.134   8.972  0.00  0.00    +0.000 C 
BRANCH  21  22
ATOM     22  C   UNL     1      45.807   2.496   8.110  0.00  0.00    +0.000 A 
ATOM     23  C   UNL     1      46.478   3.253   7.166  0.00  0.00    +0.000 A 
ATOM     24  C   UNL     1      47.466   2.609   6.460  0.00  0.00    +0.000 A 
ATOM     25  N   UNL     1      47.784   1.315   6.639  0.00  0.00    +0.000 NA
ATOM     26  C   UNL     1      47.072   0.670   7.575  0.00  0.00    +0.000 A 
ATOM     27  N   UNL     1      46.094   1.194   8.331  0.00  0.00    +0.000 NA
ENDBRANCH  21  22
ENDBRANCH  19  21
ENDBRANCH  18  19
ENDBRANCH   4  18
TORSDOF 8
ENDMDL
MODEL 9
REMARK VINA RESULT:    -6.326      1.590      2.482
REMARK INTER + INTRA:         -10.382
REMARK INTER:                  -9.242
REMARK INTRA:                  -1.140
REMARK UNBOUND:                -1.097
REMARK  Name = 
REMARK  9 active torsions:
REMARK  status: ('A' for Active; 'I' for Inactive)
REMARK    1  A    between atoms: C_1  and  C_2
REMARK    2  A    between atoms: C_2  and  N_3
REMARK    3  A    between atoms: C_2  and  C_11
REMARK    4  A    between atoms: N_3  and  C_4
REMARK    5  A    between atoms: C_4  and  C_5
REMARK    6  A    between atoms: C_14  and  C_15
REMARK    7  A    between atoms: C_15  and  N_16
REMARK    8  A    between atoms: N_16  and  C_17
REMARK    9  A    between atoms: C_17  and  C_18
REMARK                            x       y       z     vdW  Elec       q    Type
REMARK                         _______ _______ _______ _____ _____    ______ ____
ROOT
ATOM      1  C   UNL     1      46.201   6.334  12.307  0.00  0.00    +0.000 A 
ATOM      2  C   UNL     1      47.583   6.203  12.526  0.00  0.00    +0.000 A 
ATOM      3  C   UNL     1      48.332   7.251  13.062  0.00  0.00    +0.000 A 
ATOM      4  C   UNL     1      47.712   8.453  13.423  0.00  0.00    +0.000 A 
ATOM      5  C   UNL     1      46.340   8.598  13.194  0.00  0.00    +0.000 A 
ATOM      6  C   UNL     1      45.595   7.557  12.630  0.00  0.00    +0.000 A 
ENDROOT
BRANCH   1   8
ATOM      7  C   UNL     1      44.511   4.482  12.743  0.00  0.00    +0.000 C 
ATOM      8  C   UNL     1      45.430   5.160  11.715  0.00  0.00    +0.000 C 
BRANCH   8   9
ATOM      9  N   UNL     1      44.618   5.524  10.543  0.00  0.00    +0.000 NA
ATOM     10  H   UNL     1      45.202   5.992   9.853  0.00  0.00    +0.000 HD
BRANCH   9  11
ATOM     11  C   UNL     1      43.978   4.370   9.915  0.00  0.00    +0.000 C 
BRANCH  11  12
ATOM     12  C   UNL     1      44.920   3.612   9.013  0.00  0.00    +0.000 A 
ATOM     13  C   UNL     1      45.685   4.293   8.053  0.00  0.00    +0.000 A 
ATOM     14  C   UNL     1      46.597   3.609   7.253  0.00  0.00    +0.000 A 
ATOM     15  C   UNL     1      46.754   2.231   7.403  0.00  0.00    +0.000 A 
ATOM     16  C   UNL     1      45.999   1.543   8.348  0.00  0.00    +0.000 A 
ATOM     17  C   UNL     1      45.084   2.225   9.150  0.00  0.00    +0.000 A 
ENDBRANCH  11  12
ENDBRANCH   9  11
ENDBRANCH   8   9
ENDBRANCH   1   8
BRANCH   4  18
ATOM     18  C   UNL     1      48.510   9.559  14.071  0.00  0.00    +0.000 C 
BRANCH  18  19
ATOM     19  N   UNL     1      49.309   9.042  15.176  0.00  0.00    +0.000 NA
ATOM     20  H   UNL     1      50.017   9.737  15.420  0.00  0.00    +0.000 HD
BRANCH  19  21
ATOM     21  C   UNL     1      48.474   8.800  16.358  0.00  0.00    +0.000 C 
BRANCH  21  22
ATOM     22  C   UNL     1      48.863   7.507  17.044  0.00  0.00    +0.000 A 
ATOM     23  C   UNL     1      49.684   6.600  16.399  0.00  0.00    +0.000 A 
ATOM     24  C   UNL     1      50.028   5.475  17.111  0.00  0.00    +0.000 A 
ATOM     25  N   UNL     1      49.599   5.229  18.362  0.00  0.00    +0.000 NA
ATOM     26  C   UNL     1      48.805   6.169  18.896  0.00  0.00    +0.000 A 
ATOM     27  N   UNL     1      48.412   7.307  18.303  0.00  0.00    +0.000 NA
ENDBRANCH  21  22
ENDBRANCH  19  21
ENDBRANCH  18  19
ENDBRANCH   4  18
TORSDOF 8
ENDMDL
