MODEL 1
REMARK VINA RESULT:    -8.567      0.000      0.000
REMARK INTER + INTRA:         -13.609
REMARK INTER:                 -12.573
REMARK INTRA:                  -1.036
REMARK UNBOUND:                -1.036
REMARK  Name = 
REMARK  9 active torsions:
REMARK  status: ('A' for Active; 'I' for Inactive)
REMARK    1  A    between atoms: C_1  and  C_2
REMARK    2  A    between atoms: C_2  and  C_3
REMARK    3  A    between atoms: C_3  and  N_4
REMARK    4  A    between atoms: C_3  and  C_12
REMARK    5  A    between atoms: N_4  and  C_5
REMARK    6  A    between atoms: C_5  and  C_6
REMARK    7  A    between atoms: C_15  and  C_16
REMARK    8  A    between atoms: C_16  and  N_17
REMARK    9  A    between atoms: C_18  and  C_20
REMARK                            x       y       z     vdW  Elec       q    Type
REMARK                         _______ _______ _______ _____ _____    ______ ____
ROOT
ATOM      1  C   UNL     1      45.386   4.875  11.692  0.00  0.00    +0.000 A 
ATOM      2  C   UNL     1      45.782   4.419  12.960  0.00  0.00    +0.000 A 
ATOM      3  C   UNL     1      46.809   5.057  13.671  0.00  0.00    +0.000 A 
ATOM      4  C   UNL     1      47.458   6.181  13.146  0.00  0.00    +0.000 A 
ATOM      5  C   UNL     1      47.038   6.668  11.903  0.00  0.00    +0.000 A 
ATOM      6  C   UNL     1      46.000   6.039  11.200  0.00  0.00    +0.000 A 
ENDROOT
BRANCH   1   7
ATOM      7  C   UNL     1      44.367   4.070  10.877  0.00  0.00    +0.000 C 
BRANCH   7   9
ATOM      8  C   UNL     1      42.496   5.598  11.769  0.00  0.00    +0.000 C 
ATOM      9  C   UNL     1      42.931   4.173  11.456  0.00  0.00    +0.000 C 
ENDBRANCH   7   9
BRANCH   7  10
ATOM     10  N   UNL     1      44.806   2.669  10.731  0.00  0.00    +0.000 NA
ATOM     11  H   UNL     1      45.821   2.627  10.844  0.00  0.00    +0.000 HD
BRANCH  10  12
ATOM     12  C   UNL     1      44.501   2.115   9.389  0.00  0.00    +0.000 C 
BRANCH  12  13
ATOM     13  C   UNL     1      45.660   2.156   8.403  0.00  0.00    +0.000 A 
ATOM     14  N   UNL     1      46.318   0.998   8.171  0.00  0.00    +0.000 NA
ATOM     15  C   UNL     1      47.338   1.050   7.297  0.00  0.00    +0.000 A 
ATOM     16  C   UNL     1      47.715   2.195   6.641  0.00  0.00    +0.000 A 
ATOM     17  C   UNL     1      46.967   3.315   6.926  0.00  0.00    +0.000 A 
ATOM     18  N   UNL     1      45.935   3.328   7.793  0.00  0.00    +0.000 NA
ENDBRANCH  12  13
ENDBRANCH  10  12
ENDBRANCH   7  10
ENDBRANCH   1   7
BRANCH   4  19
ATOM     19  C   UNL     1      48.586   6.836  13.904  0.00  0.00    +0.000 C 
BRANCH  19  20
ATOM     20  N   UNL     1      48.250   7.081  15.288  0.00  0.00    +0.000 N 
ATOM     21  C   UNL     1      49.092   6.680  16.296  0.00  0.00    +0.000 C 
ATOM     22  O   UNL     1      50.163   6.125  16.051  0.00  0.00    +0.000 OA
ATOM     23  H   UNL     1      47.509   7.749  15.484  0.00  0.00    +0.000 HD
BRANCH  21  24
ATOM     24  C   UNL     1      48.634   6.856  17.685  0.00  0.00    +0.000 A 
ATOM     25  C   UNL     1      48.320   8.121  18.165  0.00  0.00    +0.000 A 
ATOM     26  S   UNL     1      48.081   8.168  19.857  0.00  0.00    +0.000 S 
ATOM     27  C   UNL     1      48.340   6.491  19.988  0.00  0.00    +0.000 A 
ATOM     28  N   UNL     1      48.387   5.873  21.199  0.00  0.00    +0.000 NA
ATOM     29  C   UNL     1      48.558   4.594  21.135  0.00  0.00    +0.000 A 
ATOM     30  N   UNL     1      48.638   3.870  19.975  0.00  0.00    +0.000 N 
ATOM     31  C   UNL     1      48.539   4.449  18.731  0.00  0.00    +0.000 A 
ATOM     32  O   UNL     1      48.464   3.775  17.711  0.00  0.00    +0.000 OA
ATOM     33  C   UNL     1      48.484   5.896  18.749  0.00  0.00    +0.000 A 
ATOM     34  H   UNL     1      48.681   2.863  19.991  0.00  0.00    +0.000 HD
ENDBRANCH  21  24
ENDBRANCH  19  20
ENDBRANCH   4  19
TORSDOF 8
ENDMDL
MODEL 2
REMARK VINA RESULT:    -8.563      1.603      2.016
REMARK INTER + INTRA:         -13.605
REMARK INTER:                 -12.417
REMARK INTRA:                  -1.188
REMARK UNBOUND:                -1.036
REMARK  Name = 
REMARK  9 active torsions:
REMARK  status: ('A' for Active; 'I' for Inactive)
REMARK    1  A    between atoms: C_1  and  C_2
REMARK    2  A    between atoms: C_2  and  C_3
REMARK    3  A    between atoms: C_3  and  N_4
REMARK    4  A    between atoms: C_3  and  C_12
REMARK    5  A    between atoms: N_4  and  C_5
REMARK    6  A    between atoms: C_5  and  C_6
REMARK    7  A    between atoms: C_15  and  C_16
REMARK    8  A    between atoms: C_16  and  N_17
REMARK    9  A    between atoms: C_18  and  C_20
REMARK                            x       y       z     vdW  Elec       q    Type
REMARK                         _______ _______ _______ _____ _____    ______ ____
ROOT
ATOM      1  C   UNL     1      44.697   5.914  11.128  0.00  0.00    +0.000 A 
ATOM      2  C   UNL     1      44.362   7.205  11.565  0.00  0.00    +0.000 A 
ATOM      3  C   UNL     1      45.277   7.987  12.285  0.00  0.00    +0.000 A 
ATOM      4  C   UNL     1      46.562   7.510  12.573  0.00  0.00    +0.000 A 
ATOM      5  C   UNL     1      46.919   6.242  12.101  0.00  0.00    +0.000 A 
ATOM      6  C   UNL     1      46.008   5.467  11.368  0.00  0.00    +0.000 A 
ENDROOT
BRANCH   1   7
ATOM      7  C   UNL     1      43.628   5.028  10.477  0.00  0.00    +0.000 C 
BRANCH   7   9
ATOM      8  C   UNL     1      43.133   4.280  12.891  0.00  0.00    +0.000 C 
ATOM      9  C   UNL     1      43.144   3.893  11.419  0.00  0.00    +0.000 C 
ENDBRANCH   7   9
BRANCH   7  10
ATOM     10  N   UNL     1      44.102   4.507   9.180  0.00  0.00    +0.000 NA
ATOM     11  H   UNL     1      43.380   4.670   8.475  0.00  0.00    +0.000 HD
BRANCH  10  12
ATOM     12  C   UNL     1      44.347   3.044   9.211  0.00  0.00    +0.000 C 
BRANCH  12  13
ATOM     13  C   UNL     1      45.536   2.579   8.383  0.00  0.00    +0.000 A 
ATOM     14  N   UNL     1      45.845   1.263   8.425  0.00  0.00    +0.000 NA
ATOM     15  C   UNL     1      46.896   0.867   7.687  0.00  0.00    +0.000 A 
ATOM     16  C   UNL     1      47.634   1.719   6.904  0.00  0.00    +0.000 A 
ATOM     17  C   UNL     1      47.226   3.033   6.908  0.00  0.00    +0.000 A 
ATOM     18  N   UNL     1      46.182   3.492   7.628  0.00  0.00    +0.000 NA
ENDBRANCH  12  13
ENDBRANCH  10  12
ENDBRANCH   7  10
ENDBRANCH   1   7
BRANCH   4  19
ATOM     19  C   UNL     1      47.524   8.346  13.378  0.00  0.00    +0.000 C 
BRANCH  19  20
ATOM     20  N   UNL     1      47.691   7.852  14.726  0.00  0.00    +0.000 N 
ATOM     21  C   UNL     1      48.747   7.037  15.051  0.00  0.00    +0.000 C 
ATOM     22  O   UNL     1      49.594   6.725  14.213  0.00  0.00    +0.000 OA
ATOM     23  H   UNL     1      47.152   8.300  15.464  0.00  0.00    +0.000 HD
BRANCH  21  24
ATOM     24  C   UNL     1      48.790   6.475  16.411  0.00  0.00    +0.000 A 
ATOM     25  C   UNL     1      49.445   7.155  17.430  0.00  0.00    +0.000 A 
ATOM     26  S   UNL     1      49.632   6.230  18.856  0.00  0.00    +0.000 S 
ATOM     27  C   UNL     1      48.799   4.914  18.169  0.00  0.00    +0.000 A 
ATOM     28  N   UNL     1      48.688   3.727  18.822  0.00  0.00    +0.000 NA
ATOM     29  C   UNL     1      48.000   2.835  18.186  0.00  0.00    +0.000 A 
ATOM     30  N   UNL     1      47.374   3.036  16.985  0.00  0.00    +0.000 N 
ATOM     31  C   UNL     1      47.415   4.239  16.319  0.00  0.00    +0.000 A 
ATOM     32  O   UNL     1      46.732   4.449  15.325  0.00  0.00    +0.000 OA
ATOM     33  C   UNL     1      48.286   5.226  16.923  0.00  0.00    +0.000 A 
ATOM     34  H   UNL     1      46.778   2.330  16.584  0.00  0.00    +0.000 HD
ENDBRANCH  21  24
ENDBRANCH  19  20
ENDBRANCH   4  19
TORSDOF 8
ENDMDL
MODEL 3
REMARK VINA RESULT:    -8.426      2.136      2.790
REMARK INTER + INTRA:         -13.402
REMARK INTER:                 -12.175
REMARK INTRA:                  -1.227
REMARK UNBOUND:                -1.036
REMARK  Name = 
REMARK  9 active torsions:
REMARK  status: ('A' for Active; 'I' for Inactive)
REMARK    1  A    between atoms: C_1  and  C_2
REMARK    2  A    between atoms: C_2  and  C_3
REMARK    3  A    between atoms: C_3  and  N_4
REMARK    4  A    between atoms: C_3  and  C_12
REMARK    5  A    between atoms: N_4  and  C_5
REMARK    6  A    between atoms: C_5  and  C_6
REMARK    7  A    between atoms: C_15  and  C_16
REMARK    8  A    between atoms: C_16  and  N_17
REMARK    9  A    between atoms: C_18  and  C_20
REMARK                            x       y       z     vdW  Elec       q    Type
REMARK                         _______ _______ _______ _____ _____    ______ ____
ROOT
ATOM      1  C   UNL     1      45.662   4.786  12.146  0.00  0.00    +0.000 A 
ATOM      2  C   UNL     1      46.214   6.020  11.768  0.00  0.00    +0.000 A 
ATOM      3  C   UNL     1      47.108   6.701  12.606  0.00  0.00    +0.000 A 
ATOM      4  C   UNL     1      47.495   6.160  13.839  0.00  0.00    +0.000 A 
ATOM      5  C   UNL     1      46.985   4.908  14.201  0.00  0.00    +0.000 A 
ATOM      6  C   UNL     1      46.102   4.221  13.354  0.00  0.00    +0.000 A 
ENDROOT
BRANCH   1   7
ATOM      7  C   UNL     1      44.575   4.139  11.278  0.00  0.00    +0.000 C 
BRANCH   7   9
ATOM      8  C   UNL     1      42.457   5.522  11.760  0.00  0.00    +0.000 C 
ATOM      9  C   UNL     1      43.175   4.192  11.946  0.00  0.00    +0.000 C 
ENDBRANCH   7   9
BRANCH   7  10
ATOM     10  N   UNL     1      44.957   2.765  10.902  0.00  0.00    +0.000 NA
ATOM     11  H   UNL     1      45.977   2.703  10.867  0.00  0.00    +0.000 HD
BRANCH  10  12
ATOM     12  C   UNL     1      44.459   2.385   9.557  0.00  0.00    +0.000 C 
BRANCH  12  13
ATOM     13  C   UNL     1      45.524   2.341   8.471  0.00  0.00    +0.000 A 
ATOM     14  N   UNL     1      45.756   3.481   7.783  0.00  0.00    +0.000 NA
ATOM     15  C   UNL     1      46.701   3.427   6.828  0.00  0.00    +0.000 A 
ATOM     16  C   UNL     1      47.426   2.296   6.545  0.00  0.00    +0.000 A 
ATOM     17  C   UNL     1      47.134   1.195   7.317  0.00  0.00    +0.000 A 
ATOM     18  N   UNL     1      46.197   1.186   8.287  0.00  0.00    +0.000 NA
ENDBRANCH  12  13
ENDBRANCH  10  12
ENDBRANCH   7  10
ENDBRANCH   1   7
BRANCH   4  19
ATOM     19  C   UNL     1      48.429   6.918  14.747  0.00  0.00    +0.000 C 
BRANCH  19  20
ATOM     20  N   UNL     1      49.280   6.041  15.520  0.00  0.00    +0.000 N 
ATOM     21  C   UNL     1      49.297   6.108  16.891  0.00  0.00    +0.000 C 
ATOM     22  O   UNL     1      48.574   6.897  17.501  0.00  0.00    +0.000 OA
ATOM     23  H   UNL     1      49.680   5.234  15.048  0.00  0.00    +0.000 HD
BRANCH  21  24
ATOM     24  C   UNL     1      50.271   5.270  17.609  0.00  0.00    +0.000 A 
ATOM     25  C   UNL     1      51.192   5.848  18.473  0.00  0.00    +0.000 A 
ATOM     26  S   UNL     1      52.411   4.768  18.993  0.00  0.00    +0.000 S 
ATOM     27  C   UNL     1      51.715   3.485  18.118  0.00  0.00    +0.000 A 
ATOM     28  N   UNL     1      52.322   2.271  18.036  0.00  0.00    +0.000 NA
ATOM     29  C   UNL     1      51.656   1.390  17.364  0.00  0.00    +0.000 A 
ATOM     30  N   UNL     1      50.420   1.595  16.810  0.00  0.00    +0.000 N 
ATOM     31  C   UNL     1      49.748   2.790  16.919  0.00  0.00    +0.000 A 
ATOM     32  O   UNL     1      48.587   2.913  16.549  0.00  0.00    +0.000 OA
ATOM     33  C   UNL     1      50.511   3.850  17.544  0.00  0.00    +0.000 A 
ATOM     34  H   UNL     1      49.913   0.841  16.376  0.00  0.00    +0.000 HD
ENDBRANCH  21  24
ENDBRANCH  19  20
ENDBRANCH   4  19
TORSDOF 8
ENDMDL
MODEL 4
REMARK VINA RESULT:    -8.095      1.568      2.506
REMARK INTER + INTRA:         -12.918
REMARK INTER:                 -11.694
REMARK INTRA:                  -1.224
REMARK UNBOUND:                -1.036
REMARK  Name = 
REMARK  9 active torsions:
REMARK  status: ('A' for Active; 'I' for Inactive)
REMARK    1  A    between atoms: C_1  and  C_2
REMARK    2  A    between atoms: C_2  and  C_3
REMARK    3  A    between atoms: C_3  and  N_4
REMARK    4  A    between atoms: C_3  and  C_12
REMARK    5  A    between atoms: N_4  and  C_5
REMARK    6  A    between atoms: C_5  and  C_6
REMARK    7  A    between atoms: C_15  and  C_16
REMARK    8  A    between atoms: C_16  and  N_17
REMARK    9  A    between atoms: C_18  and  C_20
REMARK                            x       y       z     vdW  Elec       q    Type
REMARK                         _______ _______ _______ _____ _____    ______ ____
ROOT
ATOM      1  C   UNL     1      45.445   4.998  11.726  0.00  0.00    +0.000 A 
ATOM      2  C   UNL     1      45.872   4.606  13.005  0.00  0.00    +0.000 A 
ATOM      3  C   UNL     1      46.920   5.275  13.655  0.00  0.00    +0.000 A 
ATOM      4  C   UNL     1      47.559   6.367  13.056  0.00  0.00    +0.000 A 
ATOM      5  C   UNL     1      47.108   6.792  11.801  0.00  0.00    +0.000 A 
ATOM      6  C   UNL     1      46.049   6.132  11.158  0.00  0.00    +0.000 A 
ENDROOT
BRANCH   1   7
ATOM      7  C   UNL     1      44.402   4.157  10.980  0.00  0.00    +0.000 C 
BRANCH   7   9
ATOM      8  C   UNL     1      42.428   5.603  11.785  0.00  0.00    +0.000 C 
ATOM      9  C   UNL     1      43.008   4.200  11.662  0.00  0.00    +0.000 C 
ENDBRANCH   7   9
BRANCH   7  10
ATOM     10  N   UNL     1      44.883   2.775  10.792  0.00  0.00    +0.000 NA
ATOM     11  H   UNL     1      45.905   2.774  10.828  0.00  0.00    +0.000 HD
BRANCH  10  12
ATOM     12  C   UNL     1      44.501   2.215   9.473  0.00  0.00    +0.000 C 
BRANCH  12  13
ATOM     13  C   UNL     1      45.619   2.188   8.442  0.00  0.00    +0.000 A 
ATOM     14  N   UNL     1      46.206   0.996   8.193  0.00  0.00    +0.000 NA
ATOM     15  C   UNL     1      47.191   0.988   7.279  0.00  0.00    +0.000 A 
ATOM     16  C   UNL     1      47.601   2.108   6.598  0.00  0.00    +0.000 A 
ATOM     17  C   UNL     1      46.926   3.267   6.904  0.00  0.00    +0.000 A 
ATOM     18  N   UNL     1      45.931   3.340   7.812  0.00  0.00    +0.000 NA
ENDBRANCH  12  13
ENDBRANCH  10  12
ENDBRANCH   7  10
ENDBRANCH   1   7
BRANCH   4  19
ATOM     19  C   UNL     1      48.708   7.055  13.750  0.00  0.00    +0.000 C 
BRANCH  19  20
ATOM     20  N   UNL     1      48.390   7.423  15.111  0.00  0.00    +0.000 N 
ATOM     21  C   UNL     1      49.007   6.802  16.169  0.00  0.00    +0.000 C 
ATOM     22  O   UNL     1      49.863   5.936  15.990  0.00  0.00    +0.000 OA
ATOM     23  H   UNL     1      47.884   8.292  15.260  0.00  0.00    +0.000 HD
BRANCH  21  24
ATOM     24  C   UNL     1      48.551   7.142  17.527  0.00  0.00    +0.000 A 
ATOM     25  C   UNL     1      48.303   6.139  18.455  0.00  0.00    +0.000 A 
ATOM     26  S   UNL     1      47.521   6.696  19.869  0.00  0.00    +0.000 S 
ATOM     27  C   UNL     1      47.536   8.301  19.303  0.00  0.00    +0.000 A 
ATOM     28  N   UNL     1      46.917   9.300  19.987  0.00  0.00    +0.000 NA
ATOM     29  C   UNL     1      47.043  10.468  19.448  0.00  0.00    +0.000 A 
ATOM     30  N   UNL     1      47.769  10.737  18.319  0.00  0.00    +0.000 N 
ATOM     31  C   UNL     1      48.456   9.765  17.629  0.00  0.00    +0.000 A 
ATOM     32  O   UNL     1      49.219  10.042  16.712  0.00  0.00    +0.000 OA
ATOM     33  C   UNL     1      48.234   8.419  18.115  0.00  0.00    +0.000 A 
ATOM     34  H   UNL     1      47.904  11.683  17.999  0.00  0.00    +0.000 HD
ENDBRANCH  21  24
ENDBRANCH  19  20
ENDBRANCH   4  19
TORSDOF 8
ENDMDL
MODEL 5
REMARK VINA RESULT:    -7.902      1.476      1.786
REMARK INTER + INTRA:         -12.634
REMARK INTER:                 -11.456
REMARK INTRA:                  -1.178
REMARK UNBOUND:                -1.036
REMARK  Name = 
REMARK  9 active torsions:
REMARK  status: ('A' for Active; 'I' for Inactive)
REMARK    1  A    between atoms: C_1  and  C_2
REMARK    2  A    between atoms: C_2  and  C_3
REMARK    3  A    between atoms: C_3  and  N_4
REMARK    4  A    between atoms: C_3  and  C_12
REMARK    5  A    between atoms: N_4  and  C_5
REMARK    6  A    between atoms: C_5  and  C_6
REMARK    7  A    between atoms: C_15  and  C_16
REMARK    8  A    between atoms: C_16  and  N_17
REMARK    9  A    between atoms: C_18  and  C_20
REMARK                            x       y       z     vdW  Elec       q    Type
REMARK                         _______ _______ _______ _____ _____    ______ ____
ROOT
ATOM      1  C   UNL     1      45.495   5.113  11.863  0.00  0.00    +0.000 A 
ATOM      2  C   UNL     1      46.009   4.662  13.089  0.00  0.00    +0.000 A 
ATOM      3  C   UNL     1      47.041   5.353  13.741  0.00  0.00    +0.000 A 
ATOM      4  C   UNL     1      47.577   6.527  13.198  0.00  0.00    +0.000 A 
ATOM      5  C   UNL     1      47.037   7.008  11.999  0.00  0.00    +0.000 A 
ATOM      6  C   UNL     1      45.995   6.324  11.356  0.00  0.00    +0.000 A 
ENDROOT
BRANCH   1   7
ATOM      7  C   UNL     1      44.475   4.257  11.103  0.00  0.00    +0.000 C 
BRANCH   7   9
ATOM      8  C   UNL     1      42.392   5.613  11.781  0.00  0.00    +0.000 C 
ATOM      9  C   UNL     1      43.080   4.254  11.784  0.00  0.00    +0.000 C 
ENDBRANCH   7   9
BRANCH   7  10
ATOM     10  N   UNL     1      44.992   2.892  10.894  0.00  0.00    +0.000 NA
ATOM     11  H   UNL     1      46.012   2.929  10.843  0.00  0.00    +0.000 HD
BRANCH  10  12
ATOM     12  C   UNL     1      44.520   2.294   9.621  0.00  0.00    +0.000 C 
BRANCH  12  13
ATOM     13  C   UNL     1      45.536   2.322   8.488  0.00  0.00    +0.000 A 
ATOM     14  N   UNL     1      46.235   1.189   8.253  0.00  0.00    +0.000 NA
ATOM     15  C   UNL     1      47.127   1.229   7.248  0.00  0.00    +0.000 A 
ATOM     16  C   UNL     1      47.337   2.338   6.466  0.00  0.00    +0.000 A 
ATOM     17  C   UNL     1      46.559   3.432   6.768  0.00  0.00    +0.000 A 
ATOM     18  N   UNL     1      45.649   3.455   7.763  0.00  0.00    +0.000 NA
ENDBRANCH  12  13
ENDBRANCH  10  12
ENDBRANCH   7  10
ENDBRANCH   1   7
BRANCH   4  19
ATOM     19  C   UNL     1      48.710   7.241  13.890  0.00  0.00    +0.000 C 
BRANCH  19  20
ATOM     20  N   UNL     1      48.958   6.727  15.218  0.00  0.00    +0.000 N 
ATOM     21  C   UNL     1      50.198   6.840  15.795  0.00  0.00    +0.000 C 
ATOM     22  O   UNL     1      51.125   7.402  15.211  0.00  0.00    +0.000 OA
ATOM     23  H   UNL     1      48.152   6.495  15.793  0.00  0.00    +0.000 HD
BRANCH  21  24
ATOM     24  C   UNL     1      50.412   6.190  17.099  0.00  0.00    +0.000 A 
ATOM     25  C   UNL     1      51.521   5.379  17.305  0.00  0.00    +0.000 A 
ATOM     26  S   UNL     1      51.457   4.496  18.767  0.00  0.00    +0.000 S 
ATOM     27  C   UNL     1      49.970   5.209  19.189  0.00  0.00    +0.000 A 
ATOM     28  N   UNL     1      49.284   4.815  20.295  0.00  0.00    +0.000 NA
ATOM     29  C   UNL     1      48.189   5.471  20.500  0.00  0.00    +0.000 A 
ATOM     30  N   UNL     1      47.743   6.514  19.732  0.00  0.00    +0.000 N 
ATOM     31  C   UNL     1      48.437   6.980  18.639  0.00  0.00    +0.000 A 
ATOM     32  O   UNL     1      48.104   8.002  18.053  0.00  0.00    +0.000 OA
ATOM     33  C   UNL     1      49.598   6.189  18.288  0.00  0.00    +0.000 A 
ATOM     34  H   UNL     1      46.929   7.044  19.997  0.00  0.00    +0.000 HD
ENDBRANCH  21  24
ENDBRANCH  19  20
ENDBRANCH   4  19
TORSDOF 8
ENDMDL
MODEL 6
REMARK VINA RESULT:    -7.013      2.219      2.633
REMARK INTER + INTRA:         -11.329
REMARK INTER:                 -10.433
REMARK INTRA:                  -0.895
REMARK UNBOUND:                -1.036
REMARK  Name = 
REMARK  9 active torsions:
REMARK  status: ('A' for Active; 'I' for Inactive)
REMARK    1  A    between atoms: C_1  and  C_2
REMARK    2  A    between atoms: C_2  and  C_3
REMARK    3  A    between atoms: C_3  and  N_4
REMARK    4  A    between atoms: C_3  and  C_12
REMARK    5  A    between atoms: N_4  and  C_5
REMARK    6  A    between atoms: C_5  and  C_6
REMARK    7  A    between atoms: C_15  and  C_16
REMARK    8  A    between atoms: C_16  and  N_17
REMARK    9  A    between atoms: C_18  and  C_20
REMARK                            x       y       z     vdW  Elec       q    Type
REMARK                         _______ _______ _______ _____ _____    ______ ____
ROOT
ATOM      1  C   UNL     1      45.299   6.124  11.780  0.00  0.00    +0.000 A 
ATOM      2  C   UNL     1      46.236   5.394  12.529  0.00  0.00    +0.000 A 
ATOM      3  C   UNL     1      47.282   6.038  13.207  0.00  0.00    +0.000 A 
ATOM      4  C   UNL     1      47.411   7.431  13.174  0.00  0.00    +0.000 A 
ATOM      5  C   UNL     1      46.454   8.169  12.468  0.00  0.00    +0.000 A 
ATOM      6  C   UNL     1      45.400   7.525  11.803  0.00  0.00    +0.000 A 
ENDROOT
BRANCH   1   7
ATOM      7  C   UNL     1      44.259   5.384  10.930  0.00  0.00    +0.000 C 
BRANCH   7   9
ATOM      8  C   UNL     1      43.178   3.965  12.788  0.00  0.00    +0.000 C 
ATOM      9  C   UNL     1      42.974   5.042  11.731  0.00  0.00    +0.000 C 
ENDBRANCH   7   9
BRANCH   7  10
ATOM     10  N   UNL     1      44.854   4.190  10.302  0.00  0.00    +0.000 NA
ATOM     11  H   UNL     1      45.866   4.208  10.449  0.00  0.00    +0.000 HD
BRANCH  10  12
ATOM     12  C   UNL     1      44.635   4.150   8.835  0.00  0.00    +0.000 C 
BRANCH  12  13
ATOM     13  C   UNL     1      45.589   3.244   8.071  0.00  0.00    +0.000 A 
ATOM     14  N   UNL     1      46.223   3.773   7.001  0.00  0.00    +0.000 NA
ATOM     15  C   UNL     1      47.064   2.961   6.337  0.00  0.00    +0.000 A 
ATOM     16  C   UNL     1      47.307   1.660   6.703  0.00  0.00    +0.000 A 
ATOM     17  C   UNL     1      46.632   1.223   7.820  0.00  0.00    +0.000 A 
ATOM     18  N   UNL     1      45.776   1.988   8.527  0.00  0.00    +0.000 NA
ENDBRANCH  12  13
ENDBRANCH  10  12
ENDBRANCH   7  10
ENDBRANCH   1   7
BRANCH   4  19
ATOM     19  C   UNL     1      48.561   8.109  13.878  0.00  0.00    +0.000 C 
BRANCH  19  20
ATOM     20  N   UNL     1      49.221   7.236  14.822  0.00  0.00    +0.000 N 
ATOM     21  C   UNL     1      50.356   7.642  15.479  0.00  0.00    +0.000 C 
ATOM     22  O   UNL     1      50.829   8.765  15.302  0.00  0.00    +0.000 OA
ATOM     23  H   UNL     1      48.706   6.425  15.156  0.00  0.00    +0.000 HD
BRANCH  21  24
ATOM     24  C   UNL     1      51.043   6.661  16.336  0.00  0.00    +0.000 A 
ATOM     25  C   UNL     1      52.399   6.793  16.605  0.00  0.00    +0.000 A 
ATOM     26  S   UNL     1      53.077   5.426  17.375  0.00  0.00    +0.000 S 
ATOM     27  C   UNL     1      51.568   4.640  17.416  0.00  0.00    +0.000 A 
ATOM     28  N   UNL     1      51.447   3.360  17.857  0.00  0.00    +0.000 NA
ATOM     29  C   UNL     1      50.234   2.912  17.858  0.00  0.00    +0.000 A 
ATOM     30  N   UNL     1      49.129   3.640  17.508  0.00  0.00    +0.000 N 
ATOM     31  C   UNL     1      49.202   4.955  17.111  0.00  0.00    +0.000 A 
ATOM     32  O   UNL     1      48.197   5.635  16.943  0.00  0.00    +0.000 OA
ATOM     33  C   UNL     1      50.552   5.459  16.961  0.00  0.00    +0.000 A 
ATOM     34  H   UNL     1      48.201   3.263  17.617  0.00  0.00    +0.000 HD
ENDBRANCH  21  24
ENDBRANCH  19  20
ENDBRANCH   4  19
TORSDOF 8
ENDMDL
MODEL 7
REMARK VINA RESULT:    -6.923      2.201      3.640
REMARK INTER + INTRA:         -11.197
REMARK INTER:                  -9.833
REMARK INTRA:                  -1.364
REMARK UNBOUND:                -1.036
REMARK  Name = 
REMARK  9 active torsions:
REMARK  status: ('A' for Active; 'I' for Inactive)
REMARK    1  A    between atoms: C_1  and  C_2
REMARK    2  A    between atoms: C_2  and  C_3
REMARK    3  A    between atoms: C_3  and  N_4
REMARK    4  A    between atoms: C_3  and  C_12
REMARK    5  A    between atoms: N_4  and  C_5
REMARK    6  A    between atoms: C_5  and  C_6
REMARK    7  A    between atoms: C_15  and  C_16
REMARK    8  A    between atoms: C_16  and  N_17
REMARK    9  A    between atoms: C_18  and  C_20
REMARK                            x       y       z     vdW  Elec       q    Type
REMARK                         _______ _______ _______ _____ _____    ______ ____
ROOT
ATOM      1  C   UNL     1      46.795   5.535  13.171  0.00  0.00    +0.000 A 
ATOM      2  C   UNL     1      46.360   4.545  14.067  0.00  0.00    +0.000 A 
ATOM      3  C   UNL     1      46.980   4.372  15.312  0.00  0.00    +0.000 A 
ATOM      4  C   UNL     1      48.040   5.196  15.710  0.00  0.00    +0.000 A 
ATOM      5  C   UNL     1      48.449   6.215  14.842  0.00  0.00    +0.000 A 
ATOM      6  C   UNL     1      47.818   6.397  13.602  0.00  0.00    +0.000 A 
ENDROOT
BRANCH   1   7
ATOM      7  C   UNL     1      46.198   5.603  11.760  0.00  0.00    +0.000 C 
BRANCH   7   9
ATOM      8  C   UNL     1      44.860   7.712  12.388  0.00  0.00    +0.000 C 
ATOM      9  C   UNL     1      45.768   7.041  11.366  0.00  0.00    +0.000 C 
ENDBRANCH   7   9
BRANCH   7  10
ATOM     10  N   UNL     1      45.094   4.635  11.614  0.00  0.00    +0.000 NA
ATOM     11  H   UNL     1      45.461   3.692  11.754  0.00  0.00    +0.000 HD
BRANCH  10  12
ATOM     12  C   UNL     1      44.488   4.664  10.261  0.00  0.00    +0.000 C 
BRANCH  12  13
ATOM     13  C   UNL     1      45.220   3.833   9.217  0.00  0.00    +0.000 A 
ATOM     14  N   UNL     1      45.846   4.498   8.220  0.00  0.00    +0.000 NA
ATOM     15  C   UNL     1      46.488   3.751   7.307  0.00  0.00    +0.000 A 
ATOM     16  C   UNL     1      46.544   2.380   7.355  0.00  0.00    +0.000 A 
ATOM     17  C   UNL     1      45.897   1.797   8.421  0.00  0.00    +0.000 A 
ATOM     18  N   UNL     1      45.234   2.492   9.368  0.00  0.00    +0.000 NA
ENDBRANCH  12  13
ENDBRANCH  10  12
ENDBRANCH   7  10
ENDBRANCH   1   7
BRANCH   4  19
ATOM     19  C   UNL     1      48.722   4.976  17.037  0.00  0.00    +0.000 C 
BRANCH  19  20
ATOM     20  N   UNL     1      48.693   6.155  17.874  0.00  0.00    +0.000 N 
ATOM     21  C   UNL     1      47.633   6.395  18.713  0.00  0.00    +0.000 C 
ATOM     22  O   UNL     1      46.692   5.605  18.795  0.00  0.00    +0.000 OA
ATOM     23  H   UNL     1      49.562   6.668  17.997  0.00  0.00    +0.000 HD
BRANCH  21  24
ATOM     24  C   UNL     1      47.613   7.670  19.448  0.00  0.00    +0.000 A 
ATOM     25  C   UNL     1      47.469   7.682  20.830  0.00  0.00    +0.000 A 
ATOM     26  S   UNL     1      47.188   9.240  21.473  0.00  0.00    +0.000 S 
ATOM     27  C   UNL     1      47.300   9.950  19.930  0.00  0.00    +0.000 A 
ATOM     28  N   UNL     1      47.049  11.273  19.738  0.00  0.00    +0.000 NA
ATOM     29  C   UNL     1      47.206  11.670  18.518  0.00  0.00    +0.000 A 
ATOM     30  N   UNL     1      47.639  10.881  17.485  0.00  0.00    +0.000 N 
ATOM     31  C   UNL     1      47.958   9.553  17.650  0.00  0.00    +0.000 A 
ATOM     32  O   UNL     1      48.482   8.901  16.755  0.00  0.00    +0.000 OA
ATOM     33  C   UNL     1      47.666   9.028  18.967  0.00  0.00    +0.000 A 
ATOM     34  H   UNL     1      47.829  11.272  16.576  0.00  0.00    +0.000 HD
ENDBRANCH  21  24
ENDBRANCH  19  20
ENDBRANCH   4  19
TORSDOF 8
ENDMDL
MODEL 8
REMARK VINA RESULT:    -6.642      2.025      2.535
REMARK INTER + INTRA:         -10.784
REMARK INTER:                  -9.782
REMARK INTRA:                  -1.002
REMARK UNBOUND:                -1.036
REMARK  Name = 
REMARK  9 active torsions:
REMARK  status: ('A' for Active; 'I' for Inactive)
REMARK    1  A    between atoms: C_1  and  C_2
REMARK    2  A    between atoms: C_2  and  C_3
REMARK    3  A    between atoms: C_3  and  N_4
REMARK    4  A    between atoms: C_3  and  C_12
REMARK    5  A    between atoms: N_4  and  C_5
REMARK    6  A    between atoms: C_5  and  C_6
REMARK    7  A    between atoms: C_15  and  C_16
REMARK    8  A    between atoms: C_16  and  N_17
REMARK    9  A    between atoms: C_18  and  C_20
REMARK                            x       y       z     vdW  Elec       q    Type
REMARK                         _______ _______ _______ _____ _____    ______ ____
ROOT
ATOM      1  C   UNL     1      45.575   6.363  11.889  0.00  0.00    +0.000 A 
ATOM      2  C   UNL     1      45.575   7.723  12.239  0.00  0.00    +0.000 A 
ATOM      3  C   UNL     1      46.486   8.229  13.176  0.00  0.00    +0.000 A 
ATOM      4  C   UNL     1      47.439   7.398  13.777  0.00  0.00    +0.000 A 
ATOM      5  C   UNL     1      47.475   6.051  13.398  0.00  0.00    +0.000 A 
ATOM      6  C   UNL     1      46.573   5.548  12.449  0.00  0.00    +0.000 A 
ENDROOT
BRANCH   1   7
ATOM      7  C   UNL     1      44.473   5.811  10.977  0.00  0.00    +0.000 C 
BRANCH   7   9
ATOM      8  C   UNL     1      42.890   5.042  12.858  0.00  0.00    +0.000 C 
ATOM      9  C   UNL     1      43.064   5.913  11.621  0.00  0.00    +0.000 C 
ENDBRANCH   7   9
BRANCH   7  10
ATOM     10  N   UNL     1      44.788   4.433  10.552  0.00  0.00    +0.000 NA
ATOM     11  H   UNL     1      45.800   4.296  10.601  0.00  0.00    +0.000 HD
BRANCH  10  12
ATOM     12  C   UNL     1      44.386   4.165   9.150  0.00  0.00    +0.000 C 
BRANCH  12  13
ATOM     13  C   UNL     1      45.379   3.335   8.349  0.00  0.00    +0.000 A 
ATOM     14  N   UNL     1      46.044   3.956   7.350  0.00  0.00    +0.000 NA
ATOM     15  C   UNL     1      46.919   3.210   6.653  0.00  0.00    +0.000 A 
ATOM     16  C   UNL     1      47.165   1.886   6.920  0.00  0.00    +0.000 A 
ATOM     17  C   UNL     1      46.457   1.352   7.972  0.00  0.00    +0.000 A 
ATOM     18  N   UNL     1      45.565   2.047   8.707  0.00  0.00    +0.000 NA
ENDBRANCH  12  13
ENDBRANCH  10  12
ENDBRANCH   7  10
ENDBRANCH   1   7
BRANCH   4  19
ATOM     19  C   UNL     1      48.391   7.947  14.810  0.00  0.00    +0.000 C 
BRANCH  19  20
ATOM     20  N   UNL     1      48.586   7.040  15.919  0.00  0.00    +0.000 N 
ATOM     21  C   UNL     1      48.938   7.512  17.159  0.00  0.00    +0.000 C 
ATOM     22  O   UNL     1      49.074   8.718  17.369  0.00  0.00    +0.000 OA
ATOM     23  H   UNL     1      48.235   6.091  15.820  0.00  0.00    +0.000 HD
BRANCH  21  24
ATOM     24  C   UNL     1      49.235   6.526  18.211  0.00  0.00    +0.000 A 
ATOM     25  C   UNL     1      48.212   5.773  18.775  0.00  0.00    +0.000 A 
ATOM     26  S   UNL     1      48.697   4.894  20.159  0.00  0.00    +0.000 S 
ATOM     27  C   UNL     1      50.297   5.455  20.014  0.00  0.00    +0.000 A 
ATOM     28  N   UNL     1      51.237   5.168  20.954  0.00  0.00    +0.000 NA
ATOM     29  C   UNL     1      52.412   5.637  20.689  0.00  0.00    +0.000 A 
ATOM     30  N   UNL     1      52.745   6.321  19.551  0.00  0.00    +0.000 N 
ATOM     31  C   UNL     1      51.838   6.583  18.550  0.00  0.00    +0.000 A 
ATOM     32  O   UNL     1      52.183   7.063  17.477  0.00  0.00    +0.000 OA
ATOM     33  C   UNL     1      50.478   6.198  18.862  0.00  0.00    +0.000 A 
ATOM     34  H   UNL     1      53.700   6.582  19.360  0.00  0.00    +0.000 HD
ENDBRANCH  21  24
ENDBRANCH  19  20
ENDBRANCH   4  19
TORSDOF 8
ENDMDL
MODEL 9
REMARK VINA RESULT:    -6.576      1.880      2.343
REMARK INTER + INTRA:         -10.688
REMARK INTER:                  -9.673
REMARK INTRA:                  -1.015
REMARK UNBOUND:                -1.036
REMARK  Name = 
REMARK  9 active torsions:
REMARK  status: ('A' for Active; 'I' for Inactive)
REMARK    1  A    between atoms: C_1  and  C_2
REMARK    2  A    between atoms: C_2  and  C_3
REMARK    3  A    between atoms: C_3  and  N_4
REMARK    4  A    between atoms: C_3  and  C_12
REMARK    5  A    between atoms: N_4  and  C_5
REMARK    6  A    between atoms: C_5  and  C_6
REMARK    7  A    between atoms: C_15  and  C_16
REMARK    8  A    between atoms: C_16  and  N_17
REMARK    9  A    between atoms: C_18  and  C_20
REMARK                            x       y       z     vdW  Elec       q    Type
REMARK                         _______ _______ _______ _____ _____    ______ ____
ROOT
ATOM      1  C   UNL     1      45.599   6.490  12.380  0.00  0.00    +0.000 A 
ATOM      2  C   UNL     1      45.454   7.880  12.516  0.00  0.00    +0.000 A 
ATOM      3  C   UNL     1      46.404   8.643  13.210  0.00  0.00    +0.000 A 
ATOM      4  C   UNL     1      47.539   8.044  13.770  0.00  0.00    +0.000 A 
ATOM      5  C   UNL     1      47.714   6.666  13.598  0.00  0.00    +0.000 A 
ATOM      6  C   UNL     1      46.770   5.906  12.891  0.00  0.00    +0.000 A 
ENDROOT
BRANCH   1   7
ATOM      7  C   UNL     1      44.472   5.665  11.748  0.00  0.00    +0.000 C 
BRANCH   7   9
ATOM      8  C   UNL     1      43.396   3.832  13.204  0.00  0.00    +0.000 C 
ATOM      9  C   UNL     1      43.365   5.292  12.771  0.00  0.00    +0.000 C 
ENDBRANCH   7   9
BRANCH   7  10
ATOM     10  N   UNL     1      45.016   4.476  11.064  0.00  0.00    +0.000 NA
ATOM     11  H   UNL     1      46.019   4.607  10.922  0.00  0.00    +0.000 HD
BRANCH  10  12
ATOM     12  C   UNL     1      44.417   4.268   9.723  0.00  0.00    +0.000 C 
BRANCH  12  13
ATOM     13  C   UNL     1      45.299   3.513   8.740  0.00  0.00    +0.000 A 
ATOM     14  N   UNL     1      45.878   4.229   7.750  0.00  0.00    +0.000 NA
ATOM     15  C   UNL     1      46.656   3.548   6.891  0.00  0.00    +0.000 A 
ATOM     16  C   UNL     1      46.889   2.198   6.987  0.00  0.00    +0.000 A 
ATOM     17  C   UNL     1      46.275   1.564   8.042  0.00  0.00    +0.000 A 
ATOM     18  N   UNL     1      45.482   2.191   8.936  0.00  0.00    +0.000 NA
ENDBRANCH  12  13
ENDBRANCH  10  12
ENDBRANCH   7  10
ENDBRANCH   1   7
BRANCH   4  19
ATOM     19  C   UNL     1      48.536   8.870  14.544  0.00  0.00    +0.000 C 
BRANCH  19  20
ATOM     20  N   UNL     1      49.150   8.127  15.621  0.00  0.00    +0.000 N 
ATOM     21  C   UNL     1      48.863   8.421  16.931  0.00  0.00    +0.000 C 
ATOM     22  O   UNL     1      48.059   9.306  17.226  0.00  0.00    +0.000 OA
ATOM     23  H   UNL     1      49.608   7.249  15.389  0.00  0.00    +0.000 HD
BRANCH  21  24
ATOM     24  C   UNL     1      49.612   7.705  17.977  0.00  0.00    +0.000 A 
ATOM     25  C   UNL     1      50.984   7.885  18.104  0.00  0.00    +0.000 A 
ATOM     26  S   UNL     1      51.721   6.775  19.174  0.00  0.00    +0.000 S 
ATOM     27  C   UNL     1      50.222   6.055  19.536  0.00  0.00    +0.000 A 
ATOM     28  N   UNL     1      50.138   4.948  20.322  0.00  0.00    +0.000 NA
ATOM     29  C   UNL     1      48.930   4.538  20.532  0.00  0.00    +0.000 A 
ATOM     30  N   UNL     1      47.800   5.157  20.071  0.00  0.00    +0.000 N 
ATOM     31  C   UNL     1      47.839   6.310  19.320  0.00  0.00    +0.000 A 
ATOM     32  O   UNL     1      46.822   6.932  19.042  0.00  0.00    +0.000 OA
ATOM     33  C   UNL     1      49.172   6.731  18.944  0.00  0.00    +0.000 A 
ATOM     34  H   UNL     1      46.883   4.840  20.344  0.00  0.00    +0.000 HD
ENDBRANCH  21  24
ENDBRANCH  19  20
ENDBRANCH   4  19
TORSDOF 8
ENDMDL
