MODEL 1
REMARK VINA RESULT:    -9.063      0.000      0.000
REMARK INTER + INTRA:         -11.762
REMARK INTER:                 -11.182
REMARK INTRA:                  -0.580
REMARK UNBOUND:                -0.580
REMARK  Name = 
REMARK  4 active torsions:
REMARK  status: ('A' for Active; 'I' for Inactive)
REMARK    1  A    between atoms: C_2  and  C_5
REMARK    2  A    between atoms: N_9  and  C_10
REMARK    3  A    between atoms: C_10  and  C_11
REMARK    4  A    between atoms: C_15  and  C_16
REMARK                            x       y       z     vdW  Elec       q    Type
REMARK                         _______ _______ _______ _____ _____    ______ ____
ROOT
ATOM      1  C   UNL     1      43.549   4.668  11.174  0.00  0.00    +0.000 C 
ENDROOT
BRANCH   1   6
ATOM      2  C   UNL     1      46.182   2.251   7.836  0.00  0.00    +0.000 A 
ATOM      3  C   UNL     1      45.296   1.894   8.820  0.00  0.00    +0.000 A 
ATOM      4  N   UNL     1      44.514   2.772   9.477  0.00  0.00    +0.000 NA
ATOM      5  C   UNL     1      44.612   4.066   9.137  0.00  0.00    +0.000 A 
ATOM      6  N   UNL     1      43.833   5.010   9.791  0.00  0.00    +0.000 N 
ATOM      7  N   UNL     1      45.444   4.515   8.190  0.00  0.00    +0.000 NA
ATOM      8  C   UNL     1      46.209   3.596   7.552  0.00  0.00    +0.000 A 
ATOM      9  H   UNL     1      44.263   5.914   9.638  0.00  0.00    +0.000 HD
BRANCH   2  11
ATOM     10  F   UNL     1      46.893  -0.008   7.616  0.00  0.00    +0.000 F 
ATOM     11  C   UNL     1      47.049   1.263   7.148  0.00  0.00    +0.000 C 
ATOM     12  F   UNL     1      48.373   1.545   7.285  0.00  0.00    +0.000 F 
ATOM     13  F   UNL     1      46.816   1.196   5.809  0.00  0.00    +0.000 F 
ENDBRANCH   2  11
ENDBRANCH   1   6
BRANCH   1  14
ATOM     14  C   UNL     1      44.763   4.900  12.032  0.00  0.00    +0.000 A 
ATOM     15  C   UNL     1      45.026   4.107  13.142  0.00  0.00    +0.000 A 
ATOM     16  N   UNL     1      46.078   4.293  13.966  0.00  0.00    +0.000 NA
ATOM     17  C   UNL     1      46.916   5.317  13.663  0.00  0.00    +0.000 A 
ATOM     18  C   UNL     1      46.764   6.196  12.587  0.00  0.00    +0.000 A 
ATOM     19  C   UNL     1      45.644   5.961  11.775  0.00  0.00    +0.000 A 
BRANCH  18  20
ATOM     20  C   UNL     1      47.729   7.283  12.310  0.00  0.00    +0.000 A 
ATOM     21  C   UNL     1      49.115   7.039  12.226  0.00  0.00    +0.000 A 
ATOM     22  C   UNL     1      50.021   8.058  11.920  0.00  0.00    +0.000 A 
ATOM     23  C   UNL     1      49.565   9.354  11.703  0.00  0.00    +0.000 A 
ATOM     24  C   UNL     1      48.204   9.624  11.796  0.00  0.00    +0.000 A 
ATOM     25 CL   UNL     1      47.633  11.225  11.533  0.00  0.00    +0.000 Cl
ATOM     26  C   UNL     1      47.297   8.605  12.093  0.00  0.00    +0.000 A 
ENDBRANCH  18  20
ENDBRANCH   1  14
TORSDOF 4
ENDMDL
MODEL 2
REMARK VINA RESULT:    -8.416      2.694      3.924
REMARK INTER + INTRA:         -10.964
REMARK INTER:                 -10.433
REMARK INTRA:                  -0.530
REMARK UNBOUND:                -0.580
REMARK  Name = 
REMARK  4 active torsions:
REMARK  status: ('A' for Active; 'I' for Inactive)
REMARK    1  A    between atoms: C_2  and  C_5
REMARK    2  A    between atoms: N_9  and  C_10
REMARK    3  A    between atoms: C_10  and  C_11
REMARK    4  A    between atoms: C_15  and  C_16
REMARK                            x       y       z     vdW  Elec       q    Type
REMARK                         _______ _______ _______ _____ _____    ______ ____
ROOT
ATOM      1  C   UNL     1      44.308   4.963  11.666  0.00  0.00    +0.000 C 
ENDROOT
BRANCH   1   6
ATOM      2  C   UNL     1      46.221   2.395   7.970  0.00  0.00    +0.000 A 
ATOM      3  C   UNL     1      45.527   2.086   9.112  0.00  0.00    +0.000 A 
ATOM      4  N   UNL     1      44.900   3.000   9.876  0.00  0.00    +0.000 NA
ATOM      5  C   UNL     1      44.960   4.282   9.486  0.00  0.00    +0.000 A 
ATOM      6  N   UNL     1      44.337   5.263  10.245  0.00  0.00    +0.000 N 
ATOM      7  N   UNL     1      45.611   4.685   8.388  0.00  0.00    +0.000 NA
ATOM      8  C   UNL     1      46.223   3.731   7.647  0.00  0.00    +0.000 A 
ATOM      9  H   UNL     1      44.750   6.151   9.988  0.00  0.00    +0.000 HD
BRANCH   2  11
ATOM     10  F   UNL     1      46.638   1.442   5.831  0.00  0.00    +0.000 F 
ATOM     11  C   UNL     1      46.923   1.368   7.162  0.00  0.00    +0.000 C 
ATOM     12  F   UNL     1      46.603   0.099   7.536  0.00  0.00    +0.000 F 
ATOM     13  F   UNL     1      48.278   1.455   7.256  0.00  0.00    +0.000 F 
ENDBRANCH   2  11
ENDBRANCH   1   6
BRANCH   1  14
ATOM     14  C   UNL     1      45.562   5.459  12.333  0.00  0.00    +0.000 A 
ATOM     15  C   UNL     1      46.368   6.421  11.739  0.00  0.00    +0.000 A 
ATOM     16  N   UNL     1      47.519   6.874  12.275  0.00  0.00    +0.000 NA
ATOM     17  C   UNL     1      47.883   6.346  13.472  0.00  0.00    +0.000 A 
ATOM     18  C   UNL     1      47.174   5.367  14.174  0.00  0.00    +0.000 A 
ATOM     19  C   UNL     1      45.993   4.926  13.558  0.00  0.00    +0.000 A 
BRANCH  18  20
ATOM     20  C   UNL     1      47.626   4.850  15.484  0.00  0.00    +0.000 A 
ATOM     21  C   UNL     1      47.295   3.551  15.921  0.00  0.00    +0.000 A 
ATOM     22  C   UNL     1      47.759   3.046  17.138  0.00  0.00    +0.000 A 
ATOM     23  C   UNL     1      48.557   3.835  17.961  0.00  0.00    +0.000 A 
ATOM     24  C   UNL     1      48.884   5.126  17.560  0.00  0.00    +0.000 A 
ATOM     25 CL   UNL     1      49.868   6.109  18.573  0.00  0.00    +0.000 Cl
ATOM     26  C   UNL     1      48.428   5.628  16.339  0.00  0.00    +0.000 A 
ENDBRANCH  18  20
ENDBRANCH   1  14
TORSDOF 4
ENDMDL
MODEL 3
REMARK VINA RESULT:    -8.106      5.666      8.187
REMARK INTER + INTRA:         -10.582
REMARK INTER:                 -10.097
REMARK INTRA:                  -0.485
REMARK UNBOUND:                -0.580
REMARK  Name = 
REMARK  4 active torsions:
REMARK  status: ('A' for Active; 'I' for Inactive)
REMARK    1  A    between atoms: C_2  and  C_5
REMARK    2  A    between atoms: N_9  and  C_10
REMARK    3  A    between atoms: C_10  and  C_11
REMARK    4  A    between atoms: C_15  and  C_16
REMARK                            x       y       z     vdW  Elec       q    Type
REMARK                         _______ _______ _______ _____ _____    ______ ____
ROOT
ATOM      1  C   UNL     1      45.308   4.642  13.650  0.00  0.00    +0.000 C 
ENDROOT
BRANCH   1   6
ATOM      2  C   UNL     1      48.578   4.599  17.286  0.00  0.00    +0.000 A 
ATOM      3  C   UNL     1      47.584   3.754  16.862  0.00  0.00    +0.000 A 
ATOM      4  N   UNL     1      46.951   3.877  15.679  0.00  0.00    +0.000 NA
ATOM      5  C   UNL     1      47.327   4.884  14.877  0.00  0.00    +0.000 A 
ATOM      6  N   UNL     1      46.700   5.058  13.650  0.00  0.00    +0.000 N 
ATOM      7  N   UNL     1      48.287   5.760  15.198  0.00  0.00    +0.000 NA
ATOM      8  C   UNL     1      48.899   5.596  16.395  0.00  0.00    +0.000 A 
ATOM      9  H   UNL     1      46.878   6.009  13.353  0.00  0.00    +0.000 HD
BRANCH   2  11
ATOM     10  F   UNL     1      48.600   3.576  19.433  0.00  0.00    +0.000 F 
ATOM     11  C   UNL     1      49.238   4.452  18.606  0.00  0.00    +0.000 C 
ATOM     12  F   UNL     1      49.301   5.626  19.292  0.00  0.00    +0.000 F 
ATOM     13  F   UNL     1      50.519   4.005  18.510  0.00  0.00    +0.000 F 
ENDBRANCH   2  11
ENDBRANCH   1   6
BRANCH   1  14
ATOM     14  C   UNL     1      44.759   4.646  12.249  0.00  0.00    +0.000 A 
ATOM     15  C   UNL     1      43.554   5.264  11.945  0.00  0.00    +0.000 A 
ATOM     16  N   UNL     1      42.998   5.266  10.715  0.00  0.00    +0.000 NA
ATOM     17  C   UNL     1      43.685   4.624   9.736  0.00  0.00    +0.000 A 
ATOM     18  C   UNL     1      44.899   3.954   9.905  0.00  0.00    +0.000 A 
ATOM     19  C   UNL     1      45.419   3.975  11.208  0.00  0.00    +0.000 A 
BRANCH  18  20
ATOM     20  C   UNL     1      45.599   3.288   8.783  0.00  0.00    +0.000 A 
ATOM     21  C   UNL     1      46.157   4.024   7.719  0.00  0.00    +0.000 A 
ATOM     22  C   UNL     1      46.858   3.398   6.684  0.00  0.00    +0.000 A 
ATOM     23  C   UNL     1      47.004   2.015   6.678  0.00  0.00    +0.000 A 
ATOM     24  C   UNL     1      46.448   1.265   7.709  0.00  0.00    +0.000 A 
ATOM     25 CL   UNL     1      46.622  -0.446   7.707  0.00  0.00    +0.000 Cl
ATOM     26  C   UNL     1      45.756   1.890   8.749  0.00  0.00    +0.000 A 
ENDBRANCH  18  20
ENDBRANCH   1  14
TORSDOF 4
ENDMDL
MODEL 4
REMARK VINA RESULT:    -7.694      2.639      3.294
REMARK INTER + INTRA:         -10.073
REMARK INTER:                  -9.508
REMARK INTRA:                  -0.565
REMARK UNBOUND:                -0.580
REMARK  Name = 
REMARK  4 active torsions:
REMARK  status: ('A' for Active; 'I' for Inactive)
REMARK    1  A    between atoms: C_2  and  C_5
REMARK    2  A    between atoms: N_9  and  C_10
REMARK    3  A    between atoms: C_10  and  C_11
REMARK    4  A    between atoms: C_15  and  C_16
REMARK                            x       y       z     vdW  Elec       q    Type
REMARK                         _______ _______ _______ _____ _____    ______ ____
ROOT
ATOM      1  C   UNL     1      44.496   5.228  11.336  0.00  0.00    +0.000 C 
ENDROOT
BRANCH   1   6
ATOM      2  C   UNL     1      46.267   2.265   7.872  0.00  0.00    +0.000 A 
ATOM      3  C   UNL     1      45.686   2.085   9.101  0.00  0.00    +0.000 A 
ATOM      4  N   UNL     1      45.066   3.065   9.786  0.00  0.00    +0.000 NA
ATOM      5  C   UNL     1      45.014   4.280   9.221  0.00  0.00    +0.000 A 
ATOM      6  N   UNL     1      44.392   5.325   9.890  0.00  0.00    +0.000 N 
ATOM      7  N   UNL     1      45.548   4.557   8.025  0.00  0.00    +0.000 NA
ATOM      8  C   UNL     1      46.158   3.540   7.370  0.00  0.00    +0.000 A 
ATOM      9  H   UNL     1      44.727   6.188   9.479  0.00  0.00    +0.000 HD
BRANCH   2  11
ATOM     10  F   UNL     1      46.650  -0.069   7.623  0.00  0.00    +0.000 F 
ATOM     11  C   UNL     1      46.966   1.171   7.153  0.00  0.00    +0.000 C 
ATOM     12  F   UNL     1      48.320   1.266   7.248  0.00  0.00    +0.000 F 
ATOM     13  F   UNL     1      46.684   1.147   5.823  0.00  0.00    +0.000 F 
ENDBRANCH   2  11
ENDBRANCH   1   6
BRANCH   1  14
ATOM     14  C   UNL     1      45.131   6.469  11.902  0.00  0.00    +0.000 A 
ATOM     15  C   UNL     1      46.130   6.397  12.864  0.00  0.00    +0.000 A 
ATOM     16  N   UNL     1      46.707   7.477  13.431  0.00  0.00    +0.000 NA
ATOM     17  C   UNL     1      46.271   8.691  13.010  0.00  0.00    +0.000 A 
ATOM     18  C   UNL     1      45.270   8.908  12.061  0.00  0.00    +0.000 A 
ATOM     19  C   UNL     1      44.698   7.747  11.518  0.00  0.00    +0.000 A 
BRANCH  18  20
ATOM     20  C   UNL     1      44.858  10.266  11.640  0.00  0.00    +0.000 A 
ATOM     21  C   UNL     1      45.693  11.385  11.830  0.00  0.00    +0.000 A 
ATOM     22  C   UNL     1      45.322  12.659  11.392  0.00  0.00    +0.000 A 
ATOM     23  C   UNL     1      44.096  12.850  10.762  0.00  0.00    +0.000 A 
ATOM     24  C   UNL     1      43.247  11.764  10.577  0.00  0.00    +0.000 A 
ATOM     25 CL   UNL     1      41.728  11.993   9.803  0.00  0.00    +0.000 Cl
ATOM     26  C   UNL     1      43.621  10.489  11.007  0.00  0.00    +0.000 A 
ENDBRANCH  18  20
ENDBRANCH   1  14
TORSDOF 4
ENDMDL
MODEL 5
REMARK VINA RESULT:    -7.424      4.717      7.420
REMARK INTER + INTRA:          -9.740
REMARK INTER:                  -9.101
REMARK INTRA:                  -0.639
REMARK UNBOUND:                -0.580
REMARK  Name = 
REMARK  4 active torsions:
REMARK  status: ('A' for Active; 'I' for Inactive)
REMARK    1  A    between atoms: C_2  and  C_5
REMARK    2  A    between atoms: N_9  and  C_10
REMARK    3  A    between atoms: C_10  and  C_11
REMARK    4  A    between atoms: C_15  and  C_16
REMARK                            x       y       z     vdW  Elec       q    Type
REMARK                         _______ _______ _______ _____ _____    ______ ____
ROOT
ATOM      1  C   UNL     1      44.777   6.247  12.947  0.00  0.00    +0.000 C 
ENDROOT
BRANCH   1   6
ATOM      2  C   UNL     1      48.195   9.587  11.909  0.00  0.00    +0.000 A 
ATOM      3  C   UNL     1      48.167   8.218  11.996  0.00  0.00    +0.000 A 
ATOM      4  N   UNL     1      47.033   7.497  12.080  0.00  0.00    +0.000 NA
ATOM      5  C   UNL     1      45.870   8.165  12.073  0.00  0.00    +0.000 A 
ATOM      6  N   UNL     1      44.674   7.467  12.166  0.00  0.00    +0.000 N 
ATOM      7  N   UNL     1      45.791   9.499  11.990  0.00  0.00    +0.000 NA
ATOM      8  C   UNL     1      46.956  10.184  11.903  0.00  0.00    +0.000 A 
ATOM      9  H   UNL     1      43.964   8.124  12.463  0.00  0.00    +0.000 HD
BRANCH   2  11
ATOM     10  F   UNL     1      49.964  10.669  13.071  0.00  0.00    +0.000 F 
ATOM     11  C   UNL     1      49.461  10.356  11.843  0.00  0.00    +0.000 C 
ATOM     12  F   UNL     1      49.320  11.541  11.190  0.00  0.00    +0.000 F 
ATOM     13  F   UNL     1      50.454   9.687  11.196  0.00  0.00    +0.000 F 
ENDBRANCH   2  11
ENDBRANCH   1   6
BRANCH   1  14
ATOM     14  C   UNL     1      44.371   5.057  12.121  0.00  0.00    +0.000 A 
ATOM     15  C   UNL     1      43.292   4.260  12.479  0.00  0.00    +0.000 A 
ATOM     16  N   UNL     1      42.908   3.163  11.795  0.00  0.00    +0.000 NA
ATOM     17  C   UNL     1      43.633   2.848  10.692  0.00  0.00    +0.000 A 
ATOM     18  C   UNL     1      44.745   3.553  10.225  0.00  0.00    +0.000 A 
ATOM     19  C   UNL     1      45.104   4.676  10.987  0.00  0.00    +0.000 A 
BRANCH  18  20
ATOM     20  C   UNL     1      45.478   3.157   9.002  0.00  0.00    +0.000 A 
ATOM     21  C   UNL     1      45.913   4.111   8.059  0.00  0.00    +0.000 A 
ATOM     22  C   UNL     1      46.645   3.741   6.928  0.00  0.00    +0.000 A 
ATOM     23  C   UNL     1      46.949   2.402   6.701  0.00  0.00    +0.000 A 
ATOM     24  C   UNL     1      46.518   1.441   7.609  0.00  0.00    +0.000 A 
ATOM     25 CL   UNL     1      46.887  -0.217   7.335  0.00  0.00    +0.000 Cl
ATOM     26  C   UNL     1      45.794   1.810   8.745  0.00  0.00    +0.000 A 
ENDBRANCH  18  20
ENDBRANCH   1  14
TORSDOF 4
ENDMDL
MODEL 6
REMARK VINA RESULT:    -7.345      2.142      2.963
REMARK INTER + INTRA:          -9.642
REMARK INTER:                  -9.287
REMARK INTRA:                  -0.355
REMARK UNBOUND:                -0.580
REMARK  Name = 
REMARK  4 active torsions:
REMARK  status: ('A' for Active; 'I' for Inactive)
REMARK    1  A    between atoms: C_2  and  C_5
REMARK    2  A    between atoms: N_9  and  C_10
REMARK    3  A    between atoms: C_10  and  C_11
REMARK    4  A    between atoms: C_15  and  C_16
REMARK                            x       y       z     vdW  Elec       q    Type
REMARK                         _______ _______ _______ _____ _____    ______ ____
ROOT
ATOM      1  C   UNL     1      43.469   5.100  10.855  0.00  0.00    +0.000 C 
ENDROOT
BRANCH   1   6
ATOM      2  C   UNL     1      46.201   2.624   7.642  0.00  0.00    +0.000 A 
ATOM      3  C   UNL     1      46.153   3.922   8.081  0.00  0.00    +0.000 A 
ATOM      4  N   UNL     1      45.448   4.324   9.156  0.00  0.00    +0.000 NA
ATOM      5  C   UNL     1      44.761   3.390   9.830  0.00  0.00    +0.000 A 
ATOM      6  N   UNL     1      44.011   3.755  10.941  0.00  0.00    +0.000 N 
ATOM      7  N   UNL     1      44.744   2.097   9.484  0.00  0.00    +0.000 NA
ATOM      8  C   UNL     1      45.471   1.738   8.399  0.00  0.00    +0.000 A 
ATOM      9  H   UNL     1      43.339   3.017  11.106  0.00  0.00    +0.000 HD
BRANCH   2  11
ATOM     10  F   UNL     1      46.988   0.868   6.245  0.00  0.00    +0.000 F 
ATOM     11  C   UNL     1      46.967   2.217   6.439  0.00  0.00    +0.000 C 
ATOM     12  F   UNL     1      48.272   2.600   6.495  0.00  0.00    +0.000 F 
ATOM     13  F   UNL     1      46.470   2.749   5.290  0.00  0.00    +0.000 F 
ENDBRANCH   2  11
ENDBRANCH   1   6
BRANCH   1  14
ATOM     14  C   UNL     1      44.365   6.075  11.571  0.00  0.00    +0.000 A 
ATOM     15  C   UNL     1      45.249   5.657  12.556  0.00  0.00    +0.000 A 
ATOM     16  N   UNL     1      46.047   6.491  13.253  0.00  0.00    +0.000 NA
ATOM     17  C   UNL     1      45.965   7.810  12.946  0.00  0.00    +0.000 A 
ATOM     18  C   UNL     1      45.114   8.368  11.989  0.00  0.00    +0.000 A 
ATOM     19  C   UNL     1      44.299   7.451  11.307  0.00  0.00    +0.000 A 
BRANCH  18  20
ATOM     20  C   UNL     1      45.091   9.818  11.697  0.00  0.00    +0.000 A 
ATOM     21  C   UNL     1      43.904  10.478  11.320  0.00  0.00    +0.000 A 
ATOM     22  C   UNL     1      43.873  11.856  11.089  0.00  0.00    +0.000 A 
ATOM     23  C   UNL     1      45.036  12.610  11.216  0.00  0.00    +0.000 A 
ATOM     24  C   UNL     1      46.223  11.979  11.571  0.00  0.00    +0.000 A 
ATOM     25 CL   UNL     1      47.666  12.904  11.726  0.00  0.00    +0.000 Cl
ATOM     26  C   UNL     1      46.253  10.604  11.811  0.00  0.00    +0.000 A 
ENDBRANCH  18  20
ENDBRANCH   1  14
TORSDOF 4
ENDMDL
MODEL 7
REMARK VINA RESULT:    -7.327      2.931      3.824
REMARK INTER + INTRA:          -9.621
REMARK INTER:                  -9.310
REMARK INTRA:                  -0.310
REMARK UNBOUND:                -0.580
REMARK  Name = 
REMARK  4 active torsions:
REMARK  status: ('A' for Active; 'I' for Inactive)
REMARK    1  A    between atoms: C_2  and  C_5
REMARK    2  A    between atoms: N_9  and  C_10
REMARK    3  A    between atoms: C_10  and  C_11
REMARK    4  A    between atoms: C_15  and  C_16
REMARK                            x       y       z     vdW  Elec       q    Type
REMARK                         _______ _______ _______ _____ _____    ______ ____
ROOT
ATOM      1  C   UNL     1      43.670   3.996  11.221  0.00  0.00    +0.000 C 
ENDROOT
BRANCH   1   6
ATOM      2  C   UNL     1      46.299   2.849   7.260  0.00  0.00    +0.000 A 
ATOM      3  C   UNL     1      46.033   4.004   7.950  0.00  0.00    +0.000 A 
ATOM      4  N   UNL     1      45.450   4.034   9.163  0.00  0.00    +0.000 NA
ATOM      5  C   UNL     1      45.121   2.860   9.722  0.00  0.00    +0.000 A 
ATOM      6  N   UNL     1      44.511   2.838  10.969  0.00  0.00    +0.000 N 
ATOM      7  N   UNL     1      45.339   1.679   9.132  0.00  0.00    +0.000 NA
ATOM      8  C   UNL     1      45.931   1.696   7.914  0.00  0.00    +0.000 A 
ATOM      9  H   UNL     1      44.063   1.936  11.070  0.00  0.00    +0.000 HD
BRANCH   2  11
ATOM     10  F   UNL     1      46.981   4.091   5.350  0.00  0.00    +0.000 F 
ATOM     11  C   UNL     1      46.918   2.850   5.912  0.00  0.00    +0.000 C 
ATOM     12  F   UNL     1      46.237   2.078   5.023  0.00  0.00    +0.000 F 
ATOM     13  F   UNL     1      48.195   2.380   5.916  0.00  0.00    +0.000 F 
ENDBRANCH   2  11
ENDBRANCH   1   6
BRANCH   1  14
ATOM     14  C   UNL     1      44.470   5.097  11.862  0.00  0.00    +0.000 A 
ATOM     15  C   UNL     1      44.352   6.416  11.443  0.00  0.00    +0.000 A 
ATOM     16  N   UNL     1      45.070   7.435  11.957  0.00  0.00    +0.000 NA
ATOM     17  C   UNL     1      45.946   7.125  12.946  0.00  0.00    +0.000 A 
ATOM     18  C   UNL     1      46.172   5.844  13.455  0.00  0.00    +0.000 A 
ATOM     19  C   UNL     1      45.406   4.824  12.871  0.00  0.00    +0.000 A 
BRANCH  18  20
ATOM     20  C   UNL     1      47.135   5.584  14.549  0.00  0.00    +0.000 A 
ATOM     21  C   UNL     1      48.195   6.470  14.826  0.00  0.00    +0.000 A 
ATOM     22  C   UNL     1      49.077   6.248  15.888  0.00  0.00    +0.000 A 
ATOM     23  C   UNL     1      48.929   5.123  16.692  0.00  0.00    +0.000 A 
ATOM     24  C   UNL     1      47.900   4.225  16.428  0.00  0.00    +0.000 A 
ATOM     25 CL   UNL     1      47.713   2.829  17.416  0.00  0.00    +0.000 Cl
ATOM     26  C   UNL     1      47.013   4.451  15.374  0.00  0.00    +0.000 A 
ENDBRANCH  18  20
ENDBRANCH   1  14
TORSDOF 4
ENDMDL
MODEL 8
REMARK VINA RESULT:    -6.950      1.851      2.685
REMARK INTER + INTRA:          -9.155
REMARK INTER:                  -8.850
REMARK INTRA:                  -0.305
REMARK UNBOUND:                -0.580
REMARK  Name = 
REMARK  4 active torsions:
REMARK  status: ('A' for Active; 'I' for Inactive)
REMARK    1  A    between atoms: C_2  and  C_5
REMARK    2  A    between atoms: N_9  and  C_10
REMARK    3  A    between atoms: C_10  and  C_11
REMARK    4  A    between atoms: C_15  and  C_16
REMARK                            x       y       z     vdW  Elec       q    Type
REMARK                         _______ _______ _______ _____ _____    ______ ____
ROOT
ATOM      1  C   UNL     1      43.364   5.314  10.654  0.00  0.00    +0.000 C 
ENDROOT
BRANCH   1   6
ATOM      2  C   UNL     1      46.194   2.729   7.617  0.00  0.00    +0.000 A 
ATOM      3  C   UNL     1      45.912   4.060   7.787  0.00  0.00    +0.000 A 
ATOM      4  N   UNL     1      45.261   4.557   8.856  0.00  0.00    +0.000 NA
ATOM      5  C   UNL     1      44.876   3.691   9.805  0.00  0.00    +0.000 A 
ATOM      6  N   UNL     1      44.194   4.153  10.923  0.00  0.00    +0.000 N 
ATOM      7  N   UNL     1      45.104   2.374   9.734  0.00  0.00    +0.000 NA
ATOM      8  C   UNL     1      45.766   1.919   8.643  0.00  0.00    +0.000 A 
ATOM      9  H   UNL     1      43.723   3.359  11.338  0.00  0.00    +0.000 HD
BRANCH   2  11
ATOM     10  F   UNL     1      46.430   2.749   5.251  0.00  0.00    +0.000 F 
ATOM     11  C   UNL     1      46.890   2.209   6.415  0.00  0.00    +0.000 C 
ATOM     12  F   UNL     1      46.755   0.862   6.274  0.00  0.00    +0.000 F 
ATOM     13  F   UNL     1      48.229   2.452   6.432  0.00  0.00    +0.000 F 
ENDBRANCH   2  11
ENDBRANCH   1   6
BRANCH   1  14
ATOM     14  C   UNL     1      44.050   6.570  11.117  0.00  0.00    +0.000 A 
ATOM     15  C   UNL     1      43.416   7.804  11.063  0.00  0.00    +0.000 A 
ATOM     16  N   UNL     1      43.997   8.965  11.431  0.00  0.00    +0.000 NA
ATOM     17  C   UNL     1      45.275   8.890  11.882  0.00  0.00    +0.000 A 
ATOM     18  C   UNL     1      46.033   7.721  11.978  0.00  0.00    +0.000 A 
ATOM     19  C   UNL     1      45.379   6.548  11.568  0.00  0.00    +0.000 A 
BRANCH  18  20
ATOM     20  C   UNL     1      47.419   7.715  12.496  0.00  0.00    +0.000 A 
ATOM     21  C   UNL     1      47.692   7.634  13.876  0.00  0.00    +0.000 A 
ATOM     22  C   UNL     1      49.002   7.582  14.362  0.00  0.00    +0.000 A 
ATOM     23  C   UNL     1      50.075   7.626  13.479  0.00  0.00    +0.000 A 
ATOM     24  C   UNL     1      49.832   7.723  12.113  0.00  0.00    +0.000 A 
ATOM     25 CL   UNL     1      51.154   7.781  11.013  0.00  0.00    +0.000 Cl
ATOM     26  C   UNL     1      48.524   7.765  11.626  0.00  0.00    +0.000 A 
ENDBRANCH  18  20
ENDBRANCH   1  14
TORSDOF 4
ENDMDL
MODEL 9
REMARK VINA RESULT:    -6.917      4.912      6.260
REMARK INTER + INTRA:          -9.115
REMARK INTER:                  -8.591
REMARK INTRA:                  -0.524
REMARK UNBOUND:                -0.580
REMARK  Name = 
REMARK  4 active torsions:
REMARK  status: ('A' for Active; 'I' for Inactive)
REMARK    1  A    between atoms: C_2  and  C_5
REMARK    2  A    between atoms: N_9  and  C_10
REMARK    3  A    between atoms: C_10  and  C_11
REMARK    4  A    between atoms: C_15  and  C_16
REMARK                            x       y       z     vdW  Elec       q    Type
REMARK                         _______ _______ _______ _____ _____    ______ ____
ROOT
ATOM      1  C   UNL     1      47.375   3.730  15.369  0.00  0.00    +0.000 C 
ENDROOT
BRANCH   1   6
ATOM      2  C   UNL     1      45.059   4.401  11.114  0.00  0.00    +0.000 A 
ATOM      3  C   UNL     1      45.132   3.385  12.031  0.00  0.00    +0.000 A 
ATOM      4  N   UNL     1      45.668   3.521  13.259  0.00  0.00    +0.000 NA
ATOM      5  C   UNL     1      46.151   4.727  13.594  0.00  0.00    +0.000 A 
ATOM      6  N   UNL     1      46.721   4.917  14.845  0.00  0.00    +0.000 N 
ATOM      7  N   UNL     1      46.126   5.783  12.771  0.00  0.00    +0.000 NA
ATOM      8  C   UNL     1      45.573   5.600  11.548  0.00  0.00    +0.000 A 
ATOM      9  H   UNL     1      47.294   5.750  14.793  0.00  0.00    +0.000 HD
BRANCH   2  11
ATOM     10  F   UNL     1      43.354   4.944   9.547  0.00  0.00    +0.000 F 
ATOM     11  C   UNL     1      44.485   4.213   9.759  0.00  0.00    +0.000 C 
ATOM     12  F   UNL     1      44.138   2.920   9.513  0.00  0.00    +0.000 F 
ATOM     13  F   UNL     1      45.345   4.565   8.766  0.00  0.00    +0.000 F 
ENDBRANCH   2  11
ENDBRANCH   1   6
BRANCH   1  14
ATOM     14  C   UNL     1      47.887   3.981  16.760  0.00  0.00    +0.000 A 
ATOM     15  C   UNL     1      48.654   3.038  17.432  0.00  0.00    +0.000 A 
ATOM     16  N   UNL     1      49.107   3.197  18.692  0.00  0.00    +0.000 NA
ATOM     17  C   UNL     1      48.787   4.361  19.312  0.00  0.00    +0.000 A 
ATOM     18  C   UNL     1      48.017   5.387  18.761  0.00  0.00    +0.000 A 
ATOM     19  C   UNL     1      47.562   5.157  17.453  0.00  0.00    +0.000 A 
BRANCH  18  20
ATOM     20  C   UNL     1      47.721   6.638  19.494  0.00  0.00    +0.000 A 
ATOM     21  C   UNL     1      47.497   6.644  20.886  0.00  0.00    +0.000 A 
ATOM     22  C   UNL     1      47.263   7.831  21.585  0.00  0.00    +0.000 A 
ATOM     23  C   UNL     1      47.231   9.045  20.907  0.00  0.00    +0.000 A 
ATOM     24  C   UNL     1      47.432   9.064  19.531  0.00  0.00    +0.000 A 
ATOM     25 CL   UNL     1      47.391  10.560  18.683  0.00  0.00    +0.000 Cl
ATOM     26  C   UNL     1      47.676   7.879  18.832  0.00  0.00    +0.000 A 
ENDBRANCH  18  20
ENDBRANCH   1  14
TORSDOF 4
ENDMDL
