MODEL 1
REMARK VINA RESULT:    -8.143      0.000      0.000
REMARK INTER + INTRA:         -13.038
REMARK INTER:                 -11.714
REMARK INTRA:                  -1.325
REMARK UNBOUND:                -1.325
REMARK  Name = 
REMARK  8 active torsions:
REMARK  status: ('A' for Active; 'I' for Inactive)
REMARK    1  A    between atoms: N_1  and  C_2
REMARK    2  A    between atoms: C_2  and  C_3
REMARK    3  A    between atoms: C_2  and  C_24
REMARK    4  A    between atoms: C_3  and  C_4
REMARK    5  A    between atoms: C_8  and  C_9
REMARK    6  A    between atoms: C_9  and  N_10
REMARK    7  A    between atoms: C_11  and  C_13
REMARK    8  A    between atoms: C_24  and  C_26
REMARK                            x       y       z     vdW  Elec       q    Type
REMARK                         _______ _______ _______ _____ _____    ______ ____
ROOT
ATOM      1  C   UNL     1      45.114   6.864  12.091  0.00  0.00    +0.000 A 
ATOM      2  C   UNL     1      44.338   7.820  11.423  0.00  0.00    +0.000 A 
ATOM      3  C   UNL     1      44.702   9.167  11.445  0.00  0.00    +0.000 A 
ATOM      4  C   UNL     1      45.830   9.576  12.155  0.00  0.00    +0.000 A 
ATOM      5  C   UNL     1      46.607   8.641  12.847  0.00  0.00    +0.000 A 
ATOM      6  C   UNL     1      46.271   7.283  12.766  0.00  0.00    +0.000 A 
ENDROOT
BRANCH   1   7
ATOM      7  C   UNL     1      44.670   5.420  12.163  0.00  0.00    +0.000 C 
BRANCH   7   8
ATOM      8  C   UNL     1      43.618   5.011  11.106  0.00  0.00    +0.000 C 
BRANCH   8   9
ATOM      9  N   UNL     1      42.227   5.092  11.604  0.00  0.00    +0.000 NA
ATOM     10  H   UNL     1      42.187   5.673  12.437  0.00  0.00    +0.000 HD
ATOM     11  H   UNL     1      41.963   4.147  11.907  0.00  0.00    +0.000 HD
ENDBRANCH   8   9
BRANCH   8  12
ATOM     12  C   UNL     1      43.870   3.585  10.569  0.00  0.00    +0.000 C 
ATOM     13  O   UNL     1      43.293   2.602  11.044  0.00  0.00    +0.000 OA
BRANCH  12  14
ATOM     14  C   UNL     1      44.861   3.357   9.470  0.00  0.00    +0.000 A 
ATOM     15  C   UNL     1      45.405   4.388   8.706  0.00  0.00    +0.000 A 
ATOM     16  C   UNL     1      46.281   4.052   7.686  0.00  0.00    +0.000 A 
ATOM     17  N   UNL     1      46.651   2.789   7.397  0.00  0.00    +0.000 NA
ATOM     18  C   UNL     1      46.123   1.808   8.158  0.00  0.00    +0.000 A 
ATOM     19  C   UNL     1      45.236   2.039   9.193  0.00  0.00    +0.000 A 
ENDBRANCH  12  14
ENDBRANCH   8  12
ENDBRANCH   7   8
ENDBRANCH   1   7
BRANCH   5  20
ATOM     20  C   UNL     1      47.768   9.083  13.697  0.00  0.00    +0.000 C 
BRANCH  20  21
ATOM     21  N   UNL     1      47.888   8.291  14.892  0.00  0.00    +0.000 N 
ATOM     22  C   UNL     1      48.904   7.379  15.022  0.00  0.00    +0.000 C 
ATOM     23  O   UNL     1      49.782   7.257  14.172  0.00  0.00    +0.000 OA
ATOM     24  H   UNL     1      47.061   8.211  15.476  0.00  0.00    +0.000 HD
BRANCH  22  25
ATOM     25  C   UNL     1      48.928   6.590  16.259  0.00  0.00    +0.000 A 
ATOM     26  C   UNL     1      49.597   7.084  17.371  0.00  0.00    +0.000 A 
ATOM     27  S   UNL     1      49.487   6.078  18.741  0.00  0.00    +0.000 S 
ATOM     28  C   UNL     1      48.584   4.919  17.883  0.00  0.00    +0.000 A 
ATOM     29  N   UNL     1      48.173   3.771  18.483  0.00  0.00    +0.000 NA
ATOM     30  C   UNL     1      47.525   2.966  17.710  0.00  0.00    +0.000 A 
ATOM     31  N   UNL     1      47.247   3.207  16.389  0.00  0.00    +0.000 N 
ATOM     32  C   UNL     1      47.618   4.365  15.749  0.00  0.00    +0.000 A 
ATOM     33  O   UNL     1      47.318   4.564  14.574  0.00  0.00    +0.000 OA
ATOM     34  C   UNL     1      48.358   5.302  16.571  0.00  0.00    +0.000 A 
ATOM     35  H   UNL     1      46.730   2.538  15.839  0.00  0.00    +0.000 HD
ENDBRANCH  22  25
ENDBRANCH  20  21
ENDBRANCH   5  20
TORSDOF 8
ENDMDL
MODEL 2
REMARK VINA RESULT:    -7.759      3.143      5.722
REMARK INTER + INTRA:         -12.485
REMARK INTER:                 -10.878
REMARK INTRA:                  -1.607
REMARK UNBOUND:                -1.325
REMARK  Name = 
REMARK  8 active torsions:
REMARK  status: ('A' for Active; 'I' for Inactive)
REMARK    1  A    between atoms: N_1  and  C_2
REMARK    2  A    between atoms: C_2  and  C_3
REMARK    3  A    between atoms: C_2  and  C_24
REMARK    4  A    between atoms: C_3  and  C_4
REMARK    5  A    between atoms: C_8  and  C_9
REMARK    6  A    between atoms: C_9  and  N_10
REMARK    7  A    between atoms: C_11  and  C_13
REMARK    8  A    between atoms: C_24  and  C_26
REMARK                            x       y       z     vdW  Elec       q    Type
REMARK                         _______ _______ _______ _____ _____    ______ ____
ROOT
ATOM      1  C   UNL     1      46.600   4.361  13.504  0.00  0.00    +0.000 A 
ATOM      2  C   UNL     1      46.974   3.857  14.757  0.00  0.00    +0.000 A 
ATOM      3  C   UNL     1      47.693   4.650  15.651  0.00  0.00    +0.000 A 
ATOM      4  C   UNL     1      48.069   5.944  15.294  0.00  0.00    +0.000 A 
ATOM      5  C   UNL     1      47.724   6.460  14.039  0.00  0.00    +0.000 A 
ATOM      6  C   UNL     1      46.947   5.679  13.173  0.00  0.00    +0.000 A 
ENDROOT
BRANCH   1   7
ATOM      7  C   UNL     1      45.915   3.475  12.487  0.00  0.00    +0.000 C 
BRANCH   7   8
ATOM      8  C   UNL     1      44.401   3.737  12.312  0.00  0.00    +0.000 C 
BRANCH   8   9
ATOM      9  N   UNL     1      43.562   2.565  12.649  0.00  0.00    +0.000 NA
ATOM     10  H   UNL     1      42.585   2.770  12.460  0.00  0.00    +0.000 HD
ATOM     11  H   UNL     1      43.631   2.431  13.665  0.00  0.00    +0.000 HD
ENDBRANCH   8   9
BRANCH   8  12
ATOM     12  C   UNL     1      44.061   4.195  10.877  0.00  0.00    +0.000 C 
ATOM     13  O   UNL     1      43.086   4.914  10.640  0.00  0.00    +0.000 OA
BRANCH  12  14
ATOM     14  C   UNL     1      44.897   3.739   9.722  0.00  0.00    +0.000 A 
ATOM     15  C   UNL     1      45.567   4.616   8.872  0.00  0.00    +0.000 A 
ATOM     16  C   UNL     1      46.277   4.080   7.808  0.00  0.00    +0.000 A 
ATOM     17  N   UNL     1      46.369   2.760   7.555  0.00  0.00    +0.000 NA
ATOM     18  C   UNL     1      45.724   1.928   8.399  0.00  0.00    +0.000 A 
ATOM     19  C   UNL     1      44.985   2.364   9.482  0.00  0.00    +0.000 A 
ENDBRANCH  12  14
ENDBRANCH   8  12
ENDBRANCH   7   8
ENDBRANCH   1   7
BRANCH   5  20
ATOM     20  C   UNL     1      48.209   7.817  13.606  0.00  0.00    +0.000 C 
BRANCH  20  21
ATOM     21  N   UNL     1      47.126   8.654  13.163  0.00  0.00    +0.000 N 
ATOM     22  C   UNL     1      47.318   9.565  12.156  0.00  0.00    +0.000 C 
ATOM     23  O   UNL     1      48.382   9.649  11.549  0.00  0.00    +0.000 OA
ATOM     24  H   UNL     1      46.338   8.761  13.795  0.00  0.00    +0.000 HD
BRANCH  22  25
ATOM     25  C   UNL     1      46.168  10.401  11.794  0.00  0.00    +0.000 A 
ATOM     26  C   UNL     1      46.286  11.783  11.844  0.00  0.00    +0.000 A 
ATOM     27  S   UNL     1      44.883  12.610  11.344  0.00  0.00    +0.000 S 
ATOM     28  C   UNL     1      44.048  11.150  11.090  0.00  0.00    +0.000 A 
ATOM     29  N   UNL     1      42.757  11.149  10.666  0.00  0.00    +0.000 NA
ATOM     30  C   UNL     1      42.235   9.974  10.545  0.00  0.00    +0.000 A 
ATOM     31  N   UNL     1      42.890   8.799  10.807  0.00  0.00    +0.000 N 
ATOM     32  C   UNL     1      44.203   8.750  11.210  0.00  0.00    +0.000 A 
ATOM     33  O   UNL     1      44.769   7.677  11.399  0.00  0.00    +0.000 OA
ATOM     34  C   UNL     1      44.835  10.045  11.371  0.00  0.00    +0.000 A 
ATOM     35  H   UNL     1      42.426   7.911  10.686  0.00  0.00    +0.000 HD
ENDBRANCH  22  25
ENDBRANCH  20  21
ENDBRANCH   5  20
TORSDOF 8
ENDMDL
MODEL 3
REMARK VINA RESULT:    -7.707      1.803      2.353
REMARK INTER + INTRA:         -12.410
REMARK INTER:                 -11.157
REMARK INTRA:                  -1.253
REMARK UNBOUND:                -1.325
REMARK  Name = 
REMARK  8 active torsions:
REMARK  status: ('A' for Active; 'I' for Inactive)
REMARK    1  A    between atoms: N_1  and  C_2
REMARK    2  A    between atoms: C_2  and  C_3
REMARK    3  A    between atoms: C_2  and  C_24
REMARK    4  A    between atoms: C_3  and  C_4
REMARK    5  A    between atoms: C_8  and  C_9
REMARK    6  A    between atoms: C_9  and  N_10
REMARK    7  A    between atoms: C_11  and  C_13
REMARK    8  A    between atoms: C_24  and  C_26
REMARK                            x       y       z     vdW  Elec       q    Type
REMARK                         _______ _______ _______ _____ _____    ______ ____
ROOT
ATOM      1  C   UNL     1      45.620   5.604  11.817  0.00  0.00    +0.000 A 
ATOM      2  C   UNL     1      44.754   6.597  11.338  0.00  0.00    +0.000 A 
ATOM      3  C   UNL     1      44.993   7.940  11.626  0.00  0.00    +0.000 A 
ATOM      4  C   UNL     1      46.083   8.305  12.416  0.00  0.00    +0.000 A 
ATOM      5  C   UNL     1      46.948   7.328  12.921  0.00  0.00    +0.000 A 
ATOM      6  C   UNL     1      46.737   5.987  12.574  0.00  0.00    +0.000 A 
ENDROOT
BRANCH   1   7
ATOM      7  C   UNL     1      45.311   4.139  11.601  0.00  0.00    +0.000 C 
BRANCH   7   8
ATOM      8  C   UNL     1      44.119   3.859  10.657  0.00  0.00    +0.000 C 
BRANCH   8   9
ATOM      9  N   UNL     1      42.847   3.622  11.376  0.00  0.00    +0.000 NA
ATOM     10  H   UNL     1      42.595   2.639  11.325  0.00  0.00    +0.000 HD
ATOM     11  H   UNL     1      42.116   4.127  10.862  0.00  0.00    +0.000 HD
ENDBRANCH   8   9
BRANCH   8  12
ATOM     12  C   UNL     1      44.394   2.657   9.727  0.00  0.00    +0.000 C 
ATOM     13  O   UNL     1      43.772   1.596   9.838  0.00  0.00    +0.000 OA
BRANCH  12  14
ATOM     14  C   UNL     1      45.462   2.741   8.682  0.00  0.00    +0.000 A 
ATOM     15  C   UNL     1      45.813   3.928   8.042  0.00  0.00    +0.000 A 
ATOM     16  C   UNL     1      46.788   3.876   7.058  0.00  0.00    +0.000 A 
ATOM     17  N   UNL     1      47.429   2.748   6.693  0.00  0.00    +0.000 NA
ATOM     18  C   UNL     1      47.084   1.613   7.335  0.00  0.00    +0.000 A 
ATOM     19  C   UNL     1      46.120   1.560   8.324  0.00  0.00    +0.000 A 
ENDBRANCH  12  14
ENDBRANCH   8  12
ENDBRANCH   7   8
ENDBRANCH   1   7
BRANCH   5  20
ATOM     20  C   UNL     1      48.068   7.701  13.854  0.00  0.00    +0.000 C 
BRANCH  20  21
ATOM     21  N   UNL     1      47.937   7.053  15.132  0.00  0.00    +0.000 N 
ATOM     22  C   UNL     1      49.036   6.522  15.758  0.00  0.00    +0.000 C 
ATOM     23  O   UNL     1      50.168   6.643  15.299  0.00  0.00    +0.000 OA
ATOM     24  H   UNL     1      47.007   6.744  15.398  0.00  0.00    +0.000 HD
BRANCH  22  25
ATOM     25  C   UNL     1      48.803   5.849  17.041  0.00  0.00    +0.000 A 
ATOM     26  C   UNL     1      49.023   4.482  17.144  0.00  0.00    +0.000 A 
ATOM     27  S   UNL     1      48.760   3.861  18.709  0.00  0.00    +0.000 S 
ATOM     28  C   UNL     1      48.291   5.388  19.293  0.00  0.00    +0.000 A 
ATOM     29  N   UNL     1      47.912   5.552  20.588  0.00  0.00    +0.000 NA
ATOM     30  C   UNL     1      47.551   6.755  20.890  0.00  0.00    +0.000 A 
ATOM     31  N   UNL     1      47.539   7.809  20.015  0.00  0.00    +0.000 N 
ATOM     32  C   UNL     1      47.941   7.696  18.706  0.00  0.00    +0.000 A 
ATOM     33  O   UNL     1      47.953   8.672  17.960  0.00  0.00    +0.000 OA
ATOM     34  C   UNL     1      48.348   6.362  18.311  0.00  0.00    +0.000 A 
ATOM     35  H   UNL     1      47.251   8.728  20.316  0.00  0.00    +0.000 HD
ENDBRANCH  22  25
ENDBRANCH  20  21
ENDBRANCH   5  20
TORSDOF 8
ENDMDL
MODEL 4
REMARK VINA RESULT:    -7.671      2.227      3.756
REMARK INTER + INTRA:         -12.359
REMARK INTER:                 -11.207
REMARK INTRA:                  -1.152
REMARK UNBOUND:                -1.325
REMARK  Name = 
REMARK  8 active torsions:
REMARK  status: ('A' for Active; 'I' for Inactive)
REMARK    1  A    between atoms: N_1  and  C_2
REMARK    2  A    between atoms: C_2  and  C_3
REMARK    3  A    between atoms: C_2  and  C_24
REMARK    4  A    between atoms: C_3  and  C_4
REMARK    5  A    between atoms: C_8  and  C_9
REMARK    6  A    between atoms: C_9  and  N_10
REMARK    7  A    between atoms: C_11  and  C_13
REMARK    8  A    between atoms: C_24  and  C_26
REMARK                            x       y       z     vdW  Elec       q    Type
REMARK                         _______ _______ _______ _____ _____    ______ ____
ROOT
ATOM      1  C   UNL     1      45.542   4.657  12.120  0.00  0.00    +0.000 A 
ATOM      2  C   UNL     1      46.022   5.922  11.755  0.00  0.00    +0.000 A 
ATOM      3  C   UNL     1      46.946   6.586  12.562  0.00  0.00    +0.000 A 
ATOM      4  C   UNL     1      47.381   6.007  13.753  0.00  0.00    +0.000 A 
ATOM      5  C   UNL     1      46.899   4.754  14.147  0.00  0.00    +0.000 A 
ATOM      6  C   UNL     1      46.021   4.065  13.299  0.00  0.00    +0.000 A 
ENDROOT
BRANCH   1   7
ATOM      7  C   UNL     1      44.462   3.976  11.309  0.00  0.00    +0.000 C 
BRANCH   7   8
ATOM      8  C   UNL     1      44.696   3.982   9.781  0.00  0.00    +0.000 C 
BRANCH   8   9
ATOM      9  N   UNL     1      43.664   4.736   9.035  0.00  0.00    +0.000 NA
ATOM     10  H   UNL     1      43.795   5.735   9.169  0.00  0.00    +0.000 HD
ATOM     11  H   UNL     1      42.760   4.510   9.467  0.00  0.00    +0.000 HD
ENDBRANCH   8   9
BRANCH   8  12
ATOM     12  C   UNL     1      44.775   2.550   9.208  0.00  0.00    +0.000 C 
ATOM     13  O   UNL     1      43.960   1.679   9.525  0.00  0.00    +0.000 OA
BRANCH  12  14
ATOM     14  C   UNL     1      45.879   2.173   8.271  0.00  0.00    +0.000 A 
ATOM     15  C   UNL     1      46.278   0.855   8.050  0.00  0.00    +0.000 A 
ATOM     16  C   UNL     1      47.343   0.631   7.192  0.00  0.00    +0.000 A 
ATOM     17  N   UNL     1      48.007   1.608   6.545  0.00  0.00    +0.000 NA
ATOM     18  C   UNL     1      47.596   2.875   6.762  0.00  0.00    +0.000 A 
ATOM     19  C   UNL     1      46.550   3.203   7.604  0.00  0.00    +0.000 A 
ENDBRANCH  12  14
ENDBRANCH   8  12
ENDBRANCH   7   8
ENDBRANCH   1   7
BRANCH   5  20
ATOM     20  C   UNL     1      47.285   4.164  15.477  0.00  0.00    +0.000 C 
BRANCH  20  21
ATOM     21  N   UNL     1      47.287   5.155  16.520  0.00  0.00    +0.000 N 
ATOM     22  C   UNL     1      48.037   4.969  17.654  0.00  0.00    +0.000 C 
ATOM     23  O   UNL     1      48.782   4.003  17.789  0.00  0.00    +0.000 OA
ATOM     24  H   UNL     1      46.517   5.817  16.528  0.00  0.00    +0.000 HD
BRANCH  22  25
ATOM     25  C   UNL     1      47.951   6.014  18.680  0.00  0.00    +0.000 A 
ATOM     26  C   UNL     1      47.606   5.668  19.980  0.00  0.00    +0.000 A 
ATOM     27  S   UNL     1      47.601   6.983  21.062  0.00  0.00    +0.000 S 
ATOM     28  C   UNL     1      48.010   8.073  19.821  0.00  0.00    +0.000 A 
ATOM     29  N   UNL     1      48.149   9.401  20.078  0.00  0.00    +0.000 NA
ATOM     30  C   UNL     1      48.430  10.118  19.042  0.00  0.00    +0.000 A 
ATOM     31  N   UNL     1      48.589   9.627  17.772  0.00  0.00    +0.000 N 
ATOM     32  C   UNL     1      48.486   8.290  17.472  0.00  0.00    +0.000 A 
ATOM     33  O   UNL     1      48.672   7.881  16.329  0.00  0.00    +0.000 OA
ATOM     34  C   UNL     1      48.162   7.439  18.600  0.00  0.00    +0.000 A 
ATOM     35  H   UNL     1      48.814  10.242  17.004  0.00  0.00    +0.000 HD
ENDBRANCH  22  25
ENDBRANCH  20  21
ENDBRANCH   5  20
TORSDOF 8
ENDMDL
MODEL 5
REMARK VINA RESULT:    -7.599      3.165      7.784
REMARK INTER + INTRA:         -12.256
REMARK INTER:                 -10.939
REMARK INTRA:                  -1.316
REMARK UNBOUND:                -1.325
REMARK  Name = 
REMARK  8 active torsions:
REMARK  status: ('A' for Active; 'I' for Inactive)
REMARK    1  A    between atoms: N_1  and  C_2
REMARK    2  A    between atoms: C_2  and  C_3
REMARK    3  A    between atoms: C_2  and  C_24
REMARK    4  A    between atoms: C_3  and  C_4
REMARK    5  A    between atoms: C_8  and  C_9
REMARK    6  A    between atoms: C_9  and  N_10
REMARK    7  A    between atoms: C_11  and  C_13
REMARK    8  A    between atoms: C_24  and  C_26
REMARK                            x       y       z     vdW  Elec       q    Type
REMARK                         _______ _______ _______ _____ _____    ______ ____
ROOT
ATOM      1  C   UNL     1      47.710   4.939  16.868  0.00  0.00    +0.000 A 
ATOM      2  C   UNL     1      48.207   5.822  17.836  0.00  0.00    +0.000 A 
ATOM      3  C   UNL     1      48.802   7.025  17.456  0.00  0.00    +0.000 A 
ATOM      4  C   UNL     1      48.930   7.348  16.106  0.00  0.00    +0.000 A 
ATOM      5  C   UNL     1      48.460   6.472  15.122  0.00  0.00    +0.000 A 
ATOM      6  C   UNL     1      47.806   5.296  15.514  0.00  0.00    +0.000 A 
ENDROOT
BRANCH   1   7
ATOM      7  C   UNL     1      47.161   3.586  17.263  0.00  0.00    +0.000 C 
BRANCH   7   8
ATOM      8  C   UNL     1      48.195   2.626  17.895  0.00  0.00    +0.000 C 
BRANCH   8   9
ATOM      9  N   UNL     1      48.700   3.092  19.206  0.00  0.00    +0.000 NA
ATOM     10  H   UNL     1      48.906   2.296  19.804  0.00  0.00    +0.000 HD
ATOM     11  H   UNL     1      47.929   3.595  19.661  0.00  0.00    +0.000 HD
ENDBRANCH   8   9
BRANCH   8  12
ATOM     12  C   UNL     1      49.398   2.383  16.959  0.00  0.00    +0.000 C 
ATOM     13  O   UNL     1      49.258   1.879  15.840  0.00  0.00    +0.000 OA
BRANCH  12  14
ATOM     14  C   UNL     1      50.785   2.723  17.408  0.00  0.00    +0.000 A 
ATOM     15  C   UNL     1      51.246   4.032  17.539  0.00  0.00    +0.000 A 
ATOM     16  C   UNL     1      52.564   4.225  17.921  0.00  0.00    +0.000 A 
ATOM     17  N   UNL     1      53.424   3.223  18.190  0.00  0.00    +0.000 NA
ATOM     18  C   UNL     1      52.953   1.965  18.070  0.00  0.00    +0.000 A 
ATOM     19  C   UNL     1      51.659   1.668  17.689  0.00  0.00    +0.000 A 
ENDBRANCH  12  14
ENDBRANCH   8  12
ENDBRANCH   7   8
ENDBRANCH   1   7
BRANCH   5  20
ATOM     20  C   UNL     1      48.681   6.764  13.662  0.00  0.00    +0.000 C 
BRANCH  20  21
ATOM     21  N   UNL     1      47.840   5.953  12.822  0.00  0.00    +0.000 N 
ATOM     22  C   UNL     1      46.855   6.528  12.061  0.00  0.00    +0.000 C 
ATOM     23  O   UNL     1      46.703   7.746  12.007  0.00  0.00    +0.000 OA
ATOM     24  H   UNL     1      47.798   4.960  13.034  0.00  0.00    +0.000 HD
BRANCH  22  25
ATOM     25  C   UNL     1      46.024   5.621  11.262  0.00  0.00    +0.000 A 
ATOM     26  C   UNL     1      46.038   5.724   9.877  0.00  0.00    +0.000 A 
ATOM     27  S   UNL     1      45.063   4.568   9.094  0.00  0.00    +0.000 S 
ATOM     28  C   UNL     1      44.545   3.920  10.579  0.00  0.00    +0.000 A 
ATOM     29  N   UNL     1      43.662   2.887  10.620  0.00  0.00    +0.000 NA
ATOM     30  C   UNL     1      43.331   2.515  11.811  0.00  0.00    +0.000 A 
ATOM     31  N   UNL     1      43.806   3.080  12.966  0.00  0.00    +0.000 N 
ATOM     32  C   UNL     1      44.720   4.105  12.973  0.00  0.00    +0.000 A 
ATOM     33  O   UNL     1      45.152   4.562  14.028  0.00  0.00    +0.000 OA
ATOM     34  C   UNL     1      45.120   4.569  11.659  0.00  0.00    +0.000 A 
ATOM     35  H   UNL     1      43.510   2.737  13.868  0.00  0.00    +0.000 HD
ENDBRANCH  22  25
ENDBRANCH  20  21
ENDBRANCH   5  20
TORSDOF 8
ENDMDL
MODEL 6
REMARK VINA RESULT:    -7.566      2.685      3.682
REMARK INTER + INTRA:         -12.207
REMARK INTER:                 -11.461
REMARK INTRA:                  -0.747
REMARK UNBOUND:                -1.325
REMARK  Name = 
REMARK  8 active torsions:
REMARK  status: ('A' for Active; 'I' for Inactive)
REMARK    1  A    between atoms: N_1  and  C_2
REMARK    2  A    between atoms: C_2  and  C_3
REMARK    3  A    between atoms: C_2  and  C_24
REMARK    4  A    between atoms: C_3  and  C_4
REMARK    5  A    between atoms: C_8  and  C_9
REMARK    6  A    between atoms: C_9  and  N_10
REMARK    7  A    between atoms: C_11  and  C_13
REMARK    8  A    between atoms: C_24  and  C_26
REMARK                            x       y       z     vdW  Elec       q    Type
REMARK                         _______ _______ _______ _____ _____    ______ ____
ROOT
ATOM      1  C   UNL     1      46.141   5.411  12.230  0.00  0.00    +0.000 A 
ATOM      2  C   UNL     1      46.929   6.563  12.102  0.00  0.00    +0.000 A 
ATOM      3  C   UNL     1      47.781   6.953  13.136  0.00  0.00    +0.000 A 
ATOM      4  C   UNL     1      47.835   6.214  14.317  0.00  0.00    +0.000 A 
ATOM      5  C   UNL     1      47.041   5.073  14.473  0.00  0.00    +0.000 A 
ATOM      6  C   UNL     1      46.237   4.651  13.405  0.00  0.00    +0.000 A 
ENDROOT
BRANCH   1   7
ATOM      7  C   UNL     1      45.137   5.039  11.160  0.00  0.00    +0.000 C 
BRANCH   7   8
ATOM      8  C   UNL     1      45.756   4.633   9.803  0.00  0.00    +0.000 C 
BRANCH   8   9
ATOM      9  N   UNL     1      45.685   5.705   8.785  0.00  0.00    +0.000 NA
ATOM     10  H   UNL     1      46.576   6.192   8.727  0.00  0.00    +0.000 HD
ATOM     11  H   UNL     1      45.008   6.398   9.128  0.00  0.00    +0.000 HD
ENDBRANCH   8   9
BRANCH   8  12
ATOM     12  C   UNL     1      45.094   3.361   9.229  0.00  0.00    +0.000 C 
ATOM     13  O   UNL     1      43.943   3.034   9.535  0.00  0.00    +0.000 OA
BRANCH  12  14
ATOM     14  C   UNL     1      45.859   2.465   8.306  0.00  0.00    +0.000 A 
ATOM     15  C   UNL     1      45.889   1.078   8.440  0.00  0.00    +0.000 A 
ATOM     16  C   UNL     1      46.668   0.353   7.551  0.00  0.00    +0.000 A 
ATOM     17  N   UNL     1      47.386   0.908   6.554  0.00  0.00    +0.000 NA
ATOM     18  C   UNL     1      47.331   2.250   6.435  0.00  0.00    +0.000 A 
ATOM     19  C   UNL     1      46.591   3.061   7.274  0.00  0.00    +0.000 A 
ENDBRANCH  12  14
ENDBRANCH   8  12
ENDBRANCH   7   8
ENDBRANCH   1   7
BRANCH   5  20
ATOM     20  C   UNL     1      47.017   4.324  15.779  0.00  0.00    +0.000 C 
BRANCH  20  21
ATOM     21  N   UNL     1      48.345   4.072  16.273  0.00  0.00    +0.000 N 
ATOM     22  C   UNL     1      48.677   4.386  17.566  0.00  0.00    +0.000 C 
ATOM     23  O   UNL     1      47.848   4.817  18.364  0.00  0.00    +0.000 OA
ATOM     24  H   UNL     1      49.077   3.946  15.581  0.00  0.00    +0.000 HD
BRANCH  22  25
ATOM     25  C   UNL     1      50.062   4.126  17.974  0.00  0.00    +0.000 A 
ATOM     26  C   UNL     1      50.741   5.075  18.727  0.00  0.00    +0.000 A 
ATOM     27  S   UNL     1      52.318   4.602  19.164  0.00  0.00    +0.000 S 
ATOM     28  C   UNL     1      52.170   3.134  18.318  0.00  0.00    +0.000 A 
ATOM     29  N   UNL     1      53.199   2.247  18.275  0.00  0.00    +0.000 NA
ATOM     30  C   UNL     1      52.964   1.189  17.573  0.00  0.00    +0.000 A 
ATOM     31  N   UNL     1      51.789   0.936  16.914  0.00  0.00    +0.000 N 
ATOM     32  C   UNL     1      50.712   1.789  16.953  0.00  0.00    +0.000 A 
ATOM     33  O   UNL     1      49.662   1.511  16.381  0.00  0.00    +0.000 OA
ATOM     34  C   UNL     1      50.927   2.999  17.721  0.00  0.00    +0.000 A 
ATOM     35  H   UNL     1      51.666   0.085  16.386  0.00  0.00    +0.000 HD
ENDBRANCH  22  25
ENDBRANCH  20  21
ENDBRANCH   5  20
TORSDOF 8
ENDMDL
MODEL 7
REMARK VINA RESULT:    -7.449      3.660      8.317
REMARK INTER + INTRA:         -12.039
REMARK INTER:                 -10.590
REMARK INTRA:                  -1.450
REMARK UNBOUND:                -1.325
REMARK  Name = 
REMARK  8 active torsions:
REMARK  status: ('A' for Active; 'I' for Inactive)
REMARK    1  A    between atoms: N_1  and  C_2
REMARK    2  A    between atoms: C_2  and  C_3
REMARK    3  A    between atoms: C_2  and  C_24
REMARK    4  A    between atoms: C_3  and  C_4
REMARK    5  A    between atoms: C_8  and  C_9
REMARK    6  A    between atoms: C_9  and  N_10
REMARK    7  A    between atoms: C_11  and  C_13
REMARK    8  A    between atoms: C_24  and  C_26
REMARK                            x       y       z     vdW  Elec       q    Type
REMARK                         _______ _______ _______ _____ _____    ______ ____
ROOT
ATOM      1  C   UNL     1      49.112   4.568  18.007  0.00  0.00    +0.000 A 
ATOM      2  C   UNL     1      49.158   5.327  19.184  0.00  0.00    +0.000 A 
ATOM      3  C   UNL     1      49.054   6.717  19.132  0.00  0.00    +0.000 A 
ATOM      4  C   UNL     1      48.930   7.366  17.904  0.00  0.00    +0.000 A 
ATOM      5  C   UNL     1      48.903   6.629  16.715  0.00  0.00    +0.000 A 
ATOM      6  C   UNL     1      48.943   5.229  16.781  0.00  0.00    +0.000 A 
ENDROOT
BRANCH   1   7
ATOM      7  C   UNL     1      49.330   3.072  18.042  0.00  0.00    +0.000 C 
BRANCH   7   8
ATOM      8  C   UNL     1      50.265   2.526  16.938  0.00  0.00    +0.000 C 
BRANCH   8   9
ATOM      9  N   UNL     1      49.575   1.638  15.976  0.00  0.00    +0.000 NA
ATOM     10  H   UNL     1      50.155   0.829  15.770  0.00  0.00    +0.000 HD
ATOM     11  H   UNL     1      49.496   2.159  15.094  0.00  0.00    +0.000 HD
ENDBRANCH   8   9
BRANCH   8  12
ATOM     12  C   UNL     1      51.473   1.769  17.533  0.00  0.00    +0.000 C 
ATOM     13  O   UNL     1      51.409   0.570  17.821  0.00  0.00    +0.000 OA
BRANCH  12  14
ATOM     14  C   UNL     1      52.753   2.493  17.811  0.00  0.00    +0.000 A 
ATOM     15  C   UNL     1      52.833   3.877  17.955  0.00  0.00    +0.000 A 
ATOM     16  C   UNL     1      54.082   4.440  18.168  0.00  0.00    +0.000 A 
ATOM     17  N   UNL     1      55.222   3.729  18.258  0.00  0.00    +0.000 NA
ATOM     18  C   UNL     1      55.121   2.390  18.128  0.00  0.00    +0.000 A 
ATOM     19  C   UNL     1      53.924   1.734  17.908  0.00  0.00    +0.000 A 
ENDBRANCH  12  14
ENDBRANCH   8  12
ENDBRANCH   7   8
ENDBRANCH   1   7
BRANCH   5  20
ATOM     20  C   UNL     1      48.869   7.323  15.380  0.00  0.00    +0.000 C 
BRANCH  20  21
ATOM     21  N   UNL     1      47.653   7.043  14.664  0.00  0.00    +0.000 N 
ATOM     22  C   UNL     1      47.690   6.382  13.462  0.00  0.00    +0.000 C 
ATOM     23  O   UNL     1      48.737   5.944  12.993  0.00  0.00    +0.000 OA
ATOM     24  H   UNL     1      46.835   7.592  14.912  0.00  0.00    +0.000 HD
BRANCH  22  25
ATOM     25  C   UNL     1      46.405   6.171  12.785  0.00  0.00    +0.000 A 
ATOM     26  C   UNL     1      45.729   7.259  12.250  0.00  0.00    +0.000 A 
ATOM     27  S   UNL     1      44.283   6.842  11.452  0.00  0.00    +0.000 S 
ATOM     28  C   UNL     1      44.481   5.197  11.839  0.00  0.00    +0.000 A 
ATOM     29  N   UNL     1      43.558   4.275  11.457  0.00  0.00    +0.000 NA
ATOM     30  C   UNL     1      43.816   3.071  11.843  0.00  0.00    +0.000 A 
ATOM     31  N   UNL     1      44.917   2.704  12.573  0.00  0.00    +0.000 N 
ATOM     32  C   UNL     1      45.889   3.596  12.956  0.00  0.00    +0.000 A 
ATOM     33  O   UNL     1      46.881   3.225  13.577  0.00  0.00    +0.000 OA
ATOM     34  C   UNL     1      45.644   4.967  12.555  0.00  0.00    +0.000 A 
ATOM     35  H   UNL     1      45.063   1.741  12.838  0.00  0.00    +0.000 HD
ENDBRANCH  22  25
ENDBRANCH  20  21
ENDBRANCH   5  20
TORSDOF 8
ENDMDL
MODEL 8
REMARK VINA RESULT:    -7.410      1.723      2.242
REMARK INTER + INTRA:         -11.984
REMARK INTER:                 -10.767
REMARK INTRA:                  -1.217
REMARK UNBOUND:                -1.325
REMARK  Name = 
REMARK  8 active torsions:
REMARK  status: ('A' for Active; 'I' for Inactive)
REMARK    1  A    between atoms: N_1  and  C_2
REMARK    2  A    between atoms: C_2  and  C_3
REMARK    3  A    between atoms: C_2  and  C_24
REMARK    4  A    between atoms: C_3  and  C_4
REMARK    5  A    between atoms: C_8  and  C_9
REMARK    6  A    between atoms: C_9  and  N_10
REMARK    7  A    between atoms: C_11  and  C_13
REMARK    8  A    between atoms: C_24  and  C_26
REMARK                            x       y       z     vdW  Elec       q    Type
REMARK                         _______ _______ _______ _____ _____    ______ ____
ROOT
ATOM      1  C   UNL     1      45.740   5.374  12.222  0.00  0.00    +0.000 A 
ATOM      2  C   UNL     1      44.995   6.516  11.896  0.00  0.00    +0.000 A 
ATOM      3  C   UNL     1      45.462   7.785  12.237  0.00  0.00    +0.000 A 
ATOM      4  C   UNL     1      46.664   7.927  12.930  0.00  0.00    +0.000 A 
ATOM      5  C   UNL     1      47.412   6.799  13.284  0.00  0.00    +0.000 A 
ATOM      6  C   UNL     1      46.968   5.533  12.881  0.00  0.00    +0.000 A 
ENDROOT
BRANCH   1   7
ATOM      7  C   UNL     1      45.192   3.990  11.952  0.00  0.00    +0.000 C 
BRANCH   7   8
ATOM      8  C   UNL     1      44.114   3.923  10.846  0.00  0.00    +0.000 C 
BRANCH   8   9
ATOM      9  N   UNL     1      42.733   3.914  11.376  0.00  0.00    +0.000 NA
ATOM     10  H   UNL     1      42.101   4.359  10.715  0.00  0.00    +0.000 HD
ATOM     11  H   UNL     1      42.730   4.509  12.213  0.00  0.00    +0.000 HD
ENDBRANCH   8   9
BRANCH   8  12
ATOM     12  C   UNL     1      44.304   2.690   9.935  0.00  0.00    +0.000 C 
ATOM     13  O   UNL     1      43.642   1.660  10.093  0.00  0.00    +0.000 OA
BRANCH  12  14
ATOM     14  C   UNL     1      45.335   2.706   8.850  0.00  0.00    +0.000 A 
ATOM     15  C   UNL     1      45.988   1.559   8.401  0.00  0.00    +0.000 A 
ATOM     16  C   UNL     1      46.957   1.702   7.420  0.00  0.00    +0.000 A 
ATOM     17  N   UNL     1      47.295   2.882   6.862  0.00  0.00    +0.000 NA
ATOM     18  C   UNL     1      46.641   3.976   7.302  0.00  0.00    +0.000 A 
ATOM     19  C   UNL     1      45.665   3.940   8.280  0.00  0.00    +0.000 A 
ENDBRANCH  12  14
ENDBRANCH   8  12
ENDBRANCH   7   8
ENDBRANCH   1   7
BRANCH   5  20
ATOM     20  C   UNL     1      48.659   6.934  14.117  0.00  0.00    +0.000 C 
BRANCH  20  21
ATOM     21  N   UNL     1      48.387   6.755  15.518  0.00  0.00    +0.000 N 
ATOM     22  C   UNL     1      48.846   7.663  16.437  0.00  0.00    +0.000 C 
ATOM     23  O   UNL     1      49.432   8.689  16.101  0.00  0.00    +0.000 OA
ATOM     24  H   UNL     1      48.124   5.822  15.821  0.00  0.00    +0.000 HD
BRANCH  22  25
ATOM     25  C   UNL     1      48.552   7.382  17.847  0.00  0.00    +0.000 A 
ATOM     26  C   UNL     1      48.027   8.387  18.649  0.00  0.00    +0.000 A 
ATOM     27  S   UNL     1      47.692   7.888  20.242  0.00  0.00    +0.000 S 
ATOM     28  C   UNL     1      48.284   6.323  19.934  0.00  0.00    +0.000 A 
ATOM     29  N   UNL     1      48.300   5.379  20.911  0.00  0.00    +0.000 NA
ATOM     30  C   UNL     1      48.803   4.246  20.550  0.00  0.00    +0.000 A 
ATOM     31  N   UNL     1      49.289   3.971  19.298  0.00  0.00    +0.000 N 
ATOM     32  C   UNL     1      49.267   4.885  18.273  0.00  0.00    +0.000 A 
ATOM     33  O   UNL     1      49.677   4.591  17.153  0.00  0.00    +0.000 OA
ATOM     34  C   UNL     1      48.719   6.180  18.627  0.00  0.00    +0.000 A 
ATOM     35  H   UNL     1      49.665   3.061  19.078  0.00  0.00    +0.000 HD
ENDBRANCH  22  25
ENDBRANCH  20  21
ENDBRANCH   5  20
TORSDOF 8
ENDMDL
MODEL 9
REMARK VINA RESULT:    -7.298      3.081      7.192
REMARK INTER + INTRA:         -11.822
REMARK INTER:                 -10.447
REMARK INTRA:                  -1.374
REMARK UNBOUND:                -1.325
REMARK  Name = 
REMARK  8 active torsions:
REMARK  status: ('A' for Active; 'I' for Inactive)
REMARK    1  A    between atoms: N_1  and  C_2
REMARK    2  A    between atoms: C_2  and  C_3
REMARK    3  A    between atoms: C_2  and  C_24
REMARK    4  A    between atoms: C_3  and  C_4
REMARK    5  A    between atoms: C_8  and  C_9
REMARK    6  A    between atoms: C_9  and  N_10
REMARK    7  A    between atoms: C_11  and  C_13
REMARK    8  A    between atoms: C_24  and  C_26
REMARK                            x       y       z     vdW  Elec       q    Type
REMARK                         _______ _______ _______ _____ _____    ______ ____
ROOT
ATOM      1  C   UNL     1      47.993   8.353  18.903  0.00  0.00    +0.000 A 
ATOM      2  C   UNL     1      48.001   9.578  19.582  0.00  0.00    +0.000 A 
ATOM      3  C   UNL     1      48.085  10.777  18.874  0.00  0.00    +0.000 A 
ATOM      4  C   UNL     1      48.188  10.765  17.483  0.00  0.00    +0.000 A 
ATOM      5  C   UNL     1      48.203   9.551  16.787  0.00  0.00    +0.000 A 
ATOM      6  C   UNL     1      48.053   8.355  17.501  0.00  0.00    +0.000 A 
ENDROOT
BRANCH   1   7
ATOM      7  C   UNL     1      48.010   7.046  19.665  0.00  0.00    +0.000 C 
BRANCH   7   8
ATOM      8  C   UNL     1      47.670   5.797  18.820  0.00  0.00    +0.000 C 
BRANCH   8   9
ATOM      9  N   UNL     1      46.241   5.417  18.887  0.00  0.00    +0.000 NA
ATOM     10  H   UNL     1      46.061   4.881  19.732  0.00  0.00    +0.000 HD
ATOM     11  H   UNL     1      46.066   4.776  18.104  0.00  0.00    +0.000 HD
ENDBRANCH   8   9
BRANCH   8  12
ATOM     12  C   UNL     1      48.526   4.578  19.228  0.00  0.00    +0.000 C 
ATOM     13  O   UNL     1      48.901   4.410  20.392  0.00  0.00    +0.000 OA
BRANCH  12  14
ATOM     14  C   UNL     1      48.956   3.581  18.198  0.00  0.00    +0.000 A 
ATOM     15  C   UNL     1      50.266   3.118  18.083  0.00  0.00    +0.000 A 
ATOM     16  C   UNL     1      50.557   2.226  17.062  0.00  0.00    +0.000 A 
ATOM     17  N   UNL     1      49.645   1.767  16.183  0.00  0.00    +0.000 NA
ATOM     18  C   UNL     1      48.381   2.217  16.321  0.00  0.00    +0.000 A 
ATOM     19  C   UNL     1      47.992   3.112  17.300  0.00  0.00    +0.000 A 
ENDBRANCH  12  14
ENDBRANCH   8  12
ENDBRANCH   7   8
ENDBRANCH   1   7
BRANCH   5  20
ATOM     20  C   UNL     1      48.413   9.522  15.297  0.00  0.00    +0.000 C 
BRANCH  20  21
ATOM     21  N   UNL     1      47.379   8.778  14.627  0.00  0.00    +0.000 N 
ATOM     22  C   UNL     1      47.666   8.051  13.500  0.00  0.00    +0.000 C 
ATOM     23  O   UNL     1      48.810   7.944  13.068  0.00  0.00    +0.000 OA
ATOM     24  H   UNL     1      46.419   9.043  14.825  0.00  0.00    +0.000 HD
BRANCH  22  25
ATOM     25  C   UNL     1      46.544   7.353  12.862  0.00  0.00    +0.000 A 
ATOM     26  C   UNL     1      45.610   8.081  12.137  0.00  0.00    +0.000 A 
ATOM     27  S   UNL     1      44.402   7.121  11.416  0.00  0.00    +0.000 S 
ATOM     28  C   UNL     1      45.052   5.702  12.090  0.00  0.00    +0.000 A 
ATOM     29  N   UNL     1      44.466   4.495  11.873  0.00  0.00    +0.000 NA
ATOM     30  C   UNL     1      45.044   3.506  12.468  0.00  0.00    +0.000 A 
ATOM     31  N   UNL     1      46.158   3.614  13.260  0.00  0.00    +0.000 N 
ATOM     32  C   UNL     1      46.799   4.808  13.485  0.00  0.00    +0.000 A 
ATOM     33  O   UNL     1      47.818   4.862  14.169  0.00  0.00    +0.000 OA
ATOM     34  C   UNL     1      46.185   5.955  12.845  0.00  0.00    +0.000 A 
ATOM     35  H   UNL     1      46.565   2.799  13.693  0.00  0.00    +0.000 HD
ENDBRANCH  22  25
ENDBRANCH  20  21
ENDBRANCH   5  20
TORSDOF 8
ENDMDL
