MODEL 1
REMARK VINA RESULT:    -8.238      0.000      0.000
REMARK INTER + INTRA:         -12.565
REMARK INTER:                 -12.090
REMARK INTRA:                  -0.475
REMARK UNBOUND:                -0.475
REMARK  Name = 
REMARK  10 active torsions:
REMARK  status: ('A' for Active; 'I' for Inactive)
REMARK    1  A    between atoms: C_1  and  C_2
REMARK    2  A    between atoms: C_2  and  N_3
REMARK    3  A    between atoms: C_2  and  C_21
REMARK    4  A    between atoms: N_3  and  C_4
REMARK    5  A    between atoms: C_4  and  C_5
REMARK    6  A    between atoms: C_8  and  C_9
REMARK    7  A    between atoms: C_9  and  N_10
REMARK    8  A    between atoms: N_10  and  C_11
REMARK    9  A    between atoms: N_10  and  C_12
REMARK   10  A    between atoms: C_12  and  C_13
REMARK                            x       y       z     vdW  Elec       q    Type
REMARK                         _______ _______ _______ _____ _____    ______ ____
ROOT
ATOM      1  C   UNL     1      48.711   6.507  15.134  0.00  0.00    +0.000 C 
ENDROOT
BRANCH   1   2
ATOM      2  C   UNL     1      47.775   6.216  13.990  0.00  0.00    +0.000 A 
ATOM      3  C   UNL     1      47.102   4.998  13.871  0.00  0.00    +0.000 A 
ATOM      4  C   UNL     1      46.165   4.821  12.854  0.00  0.00    +0.000 A 
ATOM      5  C   UNL     1      45.895   5.883  11.992  0.00  0.00    +0.000 A 
ATOM      6  N   UNL     1      46.556   7.064  12.065  0.00  0.00    +0.000 NA
ATOM      7  C   UNL     1      47.478   7.197  13.047  0.00  0.00    +0.000 A 
BRANCH   5   8
ATOM      8  C   UNL     1      44.746   5.780  11.000  0.00  0.00    +0.000 C 
BRANCH   8   9
ATOM      9  N   UNL     1      44.444   4.375  10.612  0.00  0.00    +0.000 NA
ATOM     10  C   UNL     1      43.221   3.911  11.283  0.00  0.00    +0.000 C 
BRANCH   9  11
ATOM     11  C   UNL     1      44.260   4.266   9.149  0.00  0.00    +0.000 C 
BRANCH  11  12
ATOM     12  C   UNL     1      45.262   3.360   8.467  0.00  0.00    +0.000 A 
ATOM     13  C   UNL     1      45.371   2.021   8.829  0.00  0.00    +0.000 A 
ATOM     14  N   UNL     1      46.282   1.182   8.279  0.00  0.00    +0.000 NA
ATOM     15  C   UNL     1      47.087   1.739   7.348  0.00  0.00    +0.000 A 
ATOM     16  C   UNL     1      46.983   3.068   6.975  0.00  0.00    +0.000 A 
ATOM     17  N   UNL     1      46.074   3.906   7.522  0.00  0.00    +0.000 NA
ENDBRANCH  11  12
ENDBRANCH   9  11
ENDBRANCH   8   9
ENDBRANCH   5   8
ENDBRANCH   1   2
BRANCH   1  18
ATOM     18  N   UNL     1      48.163   6.091  16.421  0.00  0.00    +0.000 NA
ATOM     19  H   UNL     1      48.661   6.579  17.164  0.00  0.00    +0.000 HD
BRANCH  18  21
ATOM     20  C   UNL     1      47.066   4.072  17.416  0.00  0.00    +0.000 C 
ATOM     21  C   UNL     1      48.282   4.644  16.676  0.00  0.00    +0.000 C 
BRANCH  21  22
ATOM     22  C   UNL     1      49.548   4.474  17.498  0.00  0.00    +0.000 A 
ATOM     23  C   UNL     1      50.050   5.451  18.348  0.00  0.00    +0.000 A 
ATOM     24  S   UNL     1      51.546   5.038  19.051  0.00  0.00    +0.000 S 
ATOM     25  C   UNL     1      51.574   3.536  18.248  0.00  0.00    +0.000 A 
ATOM     26  N   UNL     1      52.634   2.696  18.372  0.00  0.00    +0.000 NA
ATOM     27  C   UNL     1      52.518   1.596  17.705  0.00  0.00    +0.000 A 
ATOM     28  N   UNL     1      51.426   1.247  16.952  0.00  0.00    +0.000 N 
ATOM     29  C   UNL     1      50.303   2.040  16.844  0.00  0.00    +0.000 A 
ATOM     30  O   UNL     1      49.300   1.653  16.256  0.00  0.00    +0.000 OA
ATOM     31  C   UNL     1      50.424   3.325  17.507  0.00  0.00    +0.000 A 
ATOM     32  H   UNL     1      51.381   0.347  16.498  0.00  0.00    +0.000 HD
ENDBRANCH  21  22
ENDBRANCH  18  21
ENDBRANCH   1  18
TORSDOF 8
ENDMDL
MODEL 2
REMARK VINA RESULT:    -7.560      1.899      2.455
REMARK INTER + INTRA:         -11.570
REMARK INTER:                 -10.110
REMARK INTRA:                  -1.460
REMARK UNBOUND:                -0.475
REMARK  Name = 
REMARK  10 active torsions:
REMARK  status: ('A' for Active; 'I' for Inactive)
REMARK    1  A    between atoms: C_1  and  C_2
REMARK    2  A    between atoms: C_2  and  N_3
REMARK    3  A    between atoms: C_2  and  C_21
REMARK    4  A    between atoms: N_3  and  C_4
REMARK    5  A    between atoms: C_4  and  C_5
REMARK    6  A    between atoms: C_8  and  C_9
REMARK    7  A    between atoms: C_9  and  N_10
REMARK    8  A    between atoms: N_10  and  C_11
REMARK    9  A    between atoms: N_10  and  C_12
REMARK   10  A    between atoms: C_12  and  C_13
REMARK                            x       y       z     vdW  Elec       q    Type
REMARK                         _______ _______ _______ _____ _____    ______ ____
ROOT
ATOM      1  C   UNL     1      49.056   8.332  13.843  0.00  0.00    +0.000 C 
ENDROOT
BRANCH   1   2
ATOM      2  C   UNL     1      47.849   7.862  13.075  0.00  0.00    +0.000 A 
ATOM      3  C   UNL     1      47.930   6.869  12.096  0.00  0.00    +0.000 A 
ATOM      4  C   UNL     1      46.767   6.395  11.494  0.00  0.00    +0.000 A 
ATOM      5  C   UNL     1      45.536   6.903  11.907  0.00  0.00    +0.000 A 
ATOM      6  N   UNL     1      45.430   7.889  12.831  0.00  0.00    +0.000 NA
ATOM      7  C   UNL     1      46.580   8.347  13.380  0.00  0.00    +0.000 A 
BRANCH   5   8
ATOM      8  C   UNL     1      44.248   6.269  11.404  0.00  0.00    +0.000 C 
BRANCH   8   9
ATOM      9  N   UNL     1      44.368   4.799  11.203  0.00  0.00    +0.000 NA
ATOM     10  C   UNL     1      43.610   4.078  12.235  0.00  0.00    +0.000 C 
BRANCH   9  11
ATOM     11  C   UNL     1      43.856   4.410   9.872  0.00  0.00    +0.000 C 
BRANCH  11  12
ATOM     12  C   UNL     1      44.857   3.660   9.020  0.00  0.00    +0.000 A 
ATOM     13  C   UNL     1      45.058   2.295   9.196  0.00  0.00    +0.000 A 
ATOM     14  N   UNL     1      45.973   1.588   8.490  0.00  0.00    +0.000 NA
ATOM     15  C   UNL     1      46.687   2.307   7.595  0.00  0.00    +0.000 A 
ATOM     16  C   UNL     1      46.492   3.663   7.407  0.00  0.00    +0.000 A 
ATOM     17  N   UNL     1      45.578   4.369   8.111  0.00  0.00    +0.000 NA
ENDBRANCH  11  12
ENDBRANCH   9  11
ENDBRANCH   8   9
ENDBRANCH   5   8
ENDBRANCH   1   2
BRANCH   1  18
ATOM     18  N   UNL     1      49.451   7.394  14.890  0.00  0.00    +0.000 NA
ATOM     19  H   UNL     1      49.175   6.454  14.609  0.00  0.00    +0.000 HD
BRANCH  18  21
ATOM     20  C   UNL     1      49.357   8.964  16.837  0.00  0.00    +0.000 C 
ATOM     21  C   UNL     1      48.834   7.671  16.199  0.00  0.00    +0.000 C 
BRANCH  21  22
ATOM     22  C   UNL     1      49.155   6.468  17.068  0.00  0.00    +0.000 A 
ATOM     23  C   UNL     1      49.994   6.521  18.174  0.00  0.00    +0.000 A 
ATOM     24  S   UNL     1      50.270   5.000  18.892  0.00  0.00    +0.000 S 
ATOM     25  C   UNL     1      49.275   4.217  17.752  0.00  0.00    +0.000 A 
ATOM     26  N   UNL     1      49.124   2.868  17.764  0.00  0.00    +0.000 NA
ATOM     27  C   UNL     1      48.343   2.414  16.841  0.00  0.00    +0.000 A 
ATOM     28  N   UNL     1      47.676   3.190  15.927  0.00  0.00    +0.000 N 
ATOM     29  C   UNL     1      47.753   4.566  15.912  0.00  0.00    +0.000 A 
ATOM     30  O   UNL     1      47.060   5.238  15.157  0.00  0.00    +0.000 OA
ATOM     31  C   UNL     1      48.687   5.115  16.878  0.00  0.00    +0.000 A 
ATOM     32  H   UNL     1      47.041   2.771  15.264  0.00  0.00    +0.000 HD
ENDBRANCH  21  22
ENDBRANCH  18  21
ENDBRANCH   1  18
TORSDOF 8
ENDMDL
MODEL 3
REMARK VINA RESULT:    -7.397      2.453      3.039
REMARK INTER + INTRA:         -11.332
REMARK INTER:                 -10.362
REMARK INTRA:                  -0.970
REMARK UNBOUND:                -0.475
REMARK  Name = 
REMARK  10 active torsions:
REMARK  status: ('A' for Active; 'I' for Inactive)
REMARK    1  A    between atoms: C_1  and  C_2
REMARK    2  A    between atoms: C_2  and  N_3
REMARK    3  A    between atoms: C_2  and  C_21
REMARK    4  A    between atoms: N_3  and  C_4
REMARK    5  A    between atoms: C_4  and  C_5
REMARK    6  A    between atoms: C_8  and  C_9
REMARK    7  A    between atoms: C_9  and  N_10
REMARK    8  A    between atoms: N_10  and  C_11
REMARK    9  A    between atoms: N_10  and  C_12
REMARK   10  A    between atoms: C_12  and  C_13
REMARK                            x       y       z     vdW  Elec       q    Type
REMARK                         _______ _______ _______ _____ _____    ______ ____
ROOT
ATOM      1  C   UNL     1      48.756   7.142  14.333  0.00  0.00    +0.000 C 
ENDROOT
BRANCH   1   2
ATOM      2  C   UNL     1      47.737   6.500  13.429  0.00  0.00    +0.000 A 
ATOM      3  C   UNL     1      47.065   5.327  13.779  0.00  0.00    +0.000 A 
ATOM      4  C   UNL     1      46.054   4.836  12.956  0.00  0.00    +0.000 A 
ATOM      5  C   UNL     1      45.711   5.548  11.808  0.00  0.00    +0.000 A 
ATOM      6  N   UNL     1      46.367   6.671  11.427  0.00  0.00    +0.000 NA
ATOM      7  C   UNL     1      47.362   7.110  12.234  0.00  0.00    +0.000 A 
BRANCH   5   8
ATOM      8  C   UNL     1      44.490   5.139  10.998  0.00  0.00    +0.000 C 
BRANCH   8   9
ATOM      9  N   UNL     1      44.558   3.729  10.525  0.00  0.00    +0.000 NA
ATOM     10  C   UNL     1      43.522   2.919  11.183  0.00  0.00    +0.000 C 
BRANCH   9  11
ATOM     11  C   UNL     1      44.365   3.659   9.062  0.00  0.00    +0.000 C 
BRANCH  11  12
ATOM     12  C   UNL     1      45.503   2.991   8.320  0.00  0.00    +0.000 A 
ATOM     13  C   UNL     1      45.761   1.635   8.488  0.00  0.00    +0.000 A 
ATOM     14  N   UNL     1      46.794   1.001   7.882  0.00  0.00    +0.000 NA
ATOM     15  C   UNL     1      47.566   1.784   7.096  0.00  0.00    +0.000 A 
ATOM     16  C   UNL     1      47.314   3.133   6.916  0.00  0.00    +0.000 A 
ATOM     17  N   UNL     1      46.284   3.766   7.520  0.00  0.00    +0.000 NA
ENDBRANCH  11  12
ENDBRANCH   9  11
ENDBRANCH   8   9
ENDBRANCH   5   8
ENDBRANCH   1   2
BRANCH   1  18
ATOM     18  N   UNL     1      48.349   7.122  15.734  0.00  0.00    +0.000 NA
ATOM     19  H   UNL     1      47.857   7.988  15.947  0.00  0.00    +0.000 HD
BRANCH  18  21
ATOM     20  C   UNL     1      50.826   6.848  15.970  0.00  0.00    +0.000 C 
ATOM     21  C   UNL     1      49.474   7.001  16.678  0.00  0.00    +0.000 C 
BRANCH  21  22
ATOM     22  C   UNL     1      49.167   5.783  17.531  0.00  0.00    +0.000 A 
ATOM     23  C   UNL     1      48.806   4.548  17.007  0.00  0.00    +0.000 A 
ATOM     24  S   UNL     1      48.403   3.396  18.196  0.00  0.00    +0.000 S 
ATOM     25  C   UNL     1      48.700   4.505  19.454  0.00  0.00    +0.000 A 
ATOM     26  N   UNL     1      48.485   4.166  20.751  0.00  0.00    +0.000 NA
ATOM     27  C   UNL     1      48.751   5.107  21.595  0.00  0.00    +0.000 A 
ATOM     28  N   UNL     1      49.243   6.343  21.262  0.00  0.00    +0.000 N 
ATOM     29  C   UNL     1      49.532   6.712  19.966  0.00  0.00    +0.000 A 
ATOM     30  O   UNL     1      50.073   7.781  19.710  0.00  0.00    +0.000 OA
ATOM     31  C   UNL     1      49.167   5.716  18.974  0.00  0.00    +0.000 A 
ATOM     32  H   UNL     1      49.477   7.013  21.979  0.00  0.00    +0.000 HD
ENDBRANCH  21  22
ENDBRANCH  18  21
ENDBRANCH   1  18
TORSDOF 8
ENDMDL
MODEL 4
REMARK VINA RESULT:    -7.340      2.104      2.941
REMARK INTER + INTRA:         -11.249
REMARK INTER:                 -10.501
REMARK INTRA:                  -0.748
REMARK UNBOUND:                -0.475
REMARK  Name = 
REMARK  10 active torsions:
REMARK  status: ('A' for Active; 'I' for Inactive)
REMARK    1  A    between atoms: C_1  and  C_2
REMARK    2  A    between atoms: C_2  and  N_3
REMARK    3  A    between atoms: C_2  and  C_21
REMARK    4  A    between atoms: N_3  and  C_4
REMARK    5  A    between atoms: C_4  and  C_5
REMARK    6  A    between atoms: C_8  and  C_9
REMARK    7  A    between atoms: C_9  and  N_10
REMARK    8  A    between atoms: N_10  and  C_11
REMARK    9  A    between atoms: N_10  and  C_12
REMARK   10  A    between atoms: C_12  and  C_13
REMARK                            x       y       z     vdW  Elec       q    Type
REMARK                         _______ _______ _______ _____ _____    ______ ____
ROOT
ATOM      1  C   UNL     1      48.847   6.786  13.687  0.00  0.00    +0.000 C 
ENDROOT
BRANCH   1   2
ATOM      2  C   UNL     1      47.568   6.388  12.998  0.00  0.00    +0.000 A 
ATOM      3  C   UNL     1      47.200   6.906  11.754  0.00  0.00    +0.000 A 
ATOM      4  C   UNL     1      46.062   6.422  11.112  0.00  0.00    +0.000 A 
ATOM      5  C   UNL     1      45.328   5.402  11.715  0.00  0.00    +0.000 A 
ATOM      6  N   UNL     1      45.643   4.903  12.935  0.00  0.00    +0.000 NA
ATOM      7  C   UNL     1      46.740   5.411  13.545  0.00  0.00    +0.000 A 
BRANCH   5   8
ATOM      8  C   UNL     1      44.198   4.728  10.951  0.00  0.00    +0.000 C 
BRANCH   8   9
ATOM      9  N   UNL     1      44.521   3.329  10.559  0.00  0.00    +0.000 NA
ATOM     10  C   UNL     1      43.671   2.383  11.297  0.00  0.00    +0.000 C 
BRANCH   9  11
ATOM     11  C   UNL     1      44.314   3.130   9.110  0.00  0.00    +0.000 C 
BRANCH  11  12
ATOM     12  C   UNL     1      45.527   2.597   8.380  0.00  0.00    +0.000 A 
ATOM     13  C   UNL     1      46.338   3.447   7.634  0.00  0.00    +0.000 A 
ATOM     14  N   UNL     1      47.410   3.011   6.928  0.00  0.00    +0.000 NA
ATOM     15  C   UNL     1      47.638   1.680   6.995  0.00  0.00    +0.000 A 
ATOM     16  C   UNL     1      46.843   0.826   7.739  0.00  0.00    +0.000 A 
ATOM     17  N   UNL     1      45.774   1.261   8.445  0.00  0.00    +0.000 NA
ENDBRANCH  11  12
ENDBRANCH   9  11
ENDBRANCH   8   9
ENDBRANCH   5   8
ENDBRANCH   1   2
BRANCH   1  18
ATOM     18  N   UNL     1      48.863   6.401  15.095  0.00  0.00    +0.000 NA
ATOM     19  H   UNL     1      47.905   6.371  15.439  0.00  0.00    +0.000 HD
BRANCH  18  21
ATOM     20  C   UNL     1      51.115   6.992  16.016  0.00  0.00    +0.000 C 
ATOM     21  C   UNL     1      49.621   7.329  15.955  0.00  0.00    +0.000 C 
BRANCH  21  22
ATOM     22  C   UNL     1      48.984   7.228  17.330  0.00  0.00    +0.000 A 
ATOM     23  C   UNL     1      48.413   8.306  17.993  0.00  0.00    +0.000 A 
ATOM     24  S   UNL     1      47.881   7.932  19.568  0.00  0.00    +0.000 S 
ATOM     25  C   UNL     1      48.391   6.313  19.418  0.00  0.00    +0.000 A 
ATOM     26  N   UNL     1      48.278   5.444  20.455  0.00  0.00    +0.000 NA
ATOM     27  C   UNL     1      48.708   4.254  20.198  0.00  0.00    +0.000 A 
ATOM     28  N   UNL     1      49.209   3.846  18.988  0.00  0.00    +0.000 N 
ATOM     29  C   UNL     1      49.289   4.675  17.890  0.00  0.00    +0.000 A 
ATOM     30  O   UNL     1      49.637   4.254  16.793  0.00  0.00    +0.000 OA
ATOM     31  C   UNL     1      48.898   6.047  18.157  0.00  0.00    +0.000 A 
ATOM     32  H   UNL     1      49.479   2.884  18.842  0.00  0.00    +0.000 HD
ENDBRANCH  21  22
ENDBRANCH  18  21
ENDBRANCH   1  18
TORSDOF 8
ENDMDL
MODEL 5
REMARK VINA RESULT:    -7.161      2.534      3.550
REMARK INTER + INTRA:         -10.985
REMARK INTER:                  -9.886
REMARK INTRA:                  -1.099
REMARK UNBOUND:                -0.475
REMARK  Name = 
REMARK  10 active torsions:
REMARK  status: ('A' for Active; 'I' for Inactive)
REMARK    1  A    between atoms: C_1  and  C_2
REMARK    2  A    between atoms: C_2  and  N_3
REMARK    3  A    between atoms: C_2  and  C_21
REMARK    4  A    between atoms: N_3  and  C_4
REMARK    5  A    between atoms: C_4  and  C_5
REMARK    6  A    between atoms: C_8  and  C_9
REMARK    7  A    between atoms: C_9  and  N_10
REMARK    8  A    between atoms: N_10  and  C_11
REMARK    9  A    between atoms: N_10  and  C_12
REMARK   10  A    between atoms: C_12  and  C_13
REMARK                            x       y       z     vdW  Elec       q    Type
REMARK                         _______ _______ _______ _____ _____    ______ ____
ROOT
ATOM      1  C   UNL     1      49.476   8.045  14.061  0.00  0.00    +0.000 C 
ENDROOT
BRANCH   1   2
ATOM      2  C   UNL     1      48.115   7.634  13.563  0.00  0.00    +0.000 A 
ATOM      3  C   UNL     1      47.034   8.517  13.535  0.00  0.00    +0.000 A 
ATOM      4  C   UNL     1      45.828   8.117  12.963  0.00  0.00    +0.000 A 
ATOM      5  C   UNL     1      45.736   6.846  12.398  0.00  0.00    +0.000 A 
ATOM      6  N   UNL     1      46.759   5.957  12.439  0.00  0.00    +0.000 NA
ATOM      7  C   UNL     1      47.909   6.366  13.024  0.00  0.00    +0.000 A 
BRANCH   5   8
ATOM      8  C   UNL     1      44.500   6.458  11.602  0.00  0.00    +0.000 C 
BRANCH   8   9
ATOM      9  N   UNL     1      44.167   5.012  11.723  0.00  0.00    +0.000 NA
ATOM     10  C   UNL     1      43.232   4.794  12.836  0.00  0.00    +0.000 C 
BRANCH   9  11
ATOM     11  C   UNL     1      43.553   4.510  10.475  0.00  0.00    +0.000 C 
BRANCH  11  12
ATOM     12  C   UNL     1      44.522   3.809   9.549  0.00  0.00    +0.000 A 
ATOM     13  C   UNL     1      45.246   4.526   8.602  0.00  0.00    +0.000 A 
ATOM     14  N   UNL     1      46.092   3.939   7.721  0.00  0.00    +0.000 NA
ATOM     15  C   UNL     1      46.185   2.595   7.825  0.00  0.00    +0.000 A 
ATOM     16  C   UNL     1      45.476   1.871   8.767  0.00  0.00    +0.000 A 
ATOM     17  N   UNL     1      44.632   2.457   9.646  0.00  0.00    +0.000 NA
ENDBRANCH  11  12
ENDBRANCH   9  11
ENDBRANCH   8   9
ENDBRANCH   5   8
ENDBRANCH   1   2
BRANCH   1  18
ATOM     18  N   UNL     1      50.209   6.934  14.659  0.00  0.00    +0.000 NA
ATOM     19  H   UNL     1      49.543   6.226  14.963  0.00  0.00    +0.000 HD
BRANCH  18  21
ATOM     20  C   UNL     1      52.527   7.268  15.544  0.00  0.00    +0.000 C 
ATOM     21  C   UNL     1      51.021   7.319  15.828  0.00  0.00    +0.000 C 
BRANCH  21  22
ATOM     22  C   UNL     1      50.643   6.345  16.930  0.00  0.00    +0.000 A 
ATOM     23  C   UNL     1      51.396   5.225  17.258  0.00  0.00    +0.000 A 
ATOM     24  S   UNL     1      50.675   4.246  18.452  0.00  0.00    +0.000 S 
ATOM     25  C   UNL     1      49.332   5.286  18.576  0.00  0.00    +0.000 A 
ATOM     26  N   UNL     1      48.292   4.992  19.398  0.00  0.00    +0.000 NA
ATOM     27  C   UNL     1      47.344   5.869  19.387  0.00  0.00    +0.000 A 
ATOM     28  N   UNL     1      47.357   7.029  18.655  0.00  0.00    +0.000 N 
ATOM     29  C   UNL     1      48.416   7.398  17.853  0.00  0.00    +0.000 A 
ATOM     30  O   UNL     1      48.447   8.490  17.298  0.00  0.00    +0.000 OA
ATOM     31  C   UNL     1      49.467   6.401  17.766  0.00  0.00    +0.000 A 
ATOM     32  H   UNL     1      46.604   7.695  18.734  0.00  0.00    +0.000 HD
ENDBRANCH  21  22
ENDBRANCH  18  21
ENDBRANCH   1  18
TORSDOF 8
ENDMDL
MODEL 6
REMARK VINA RESULT:    -6.997      2.535      3.805
REMARK INTER + INTRA:         -10.744
REMARK INTER:                  -9.064
REMARK INTRA:                  -1.680
REMARK UNBOUND:                -0.475
REMARK  Name = 
REMARK  10 active torsions:
REMARK  status: ('A' for Active; 'I' for Inactive)
REMARK    1  A    between atoms: C_1  and  C_2
REMARK    2  A    between atoms: C_2  and  N_3
REMARK    3  A    between atoms: C_2  and  C_21
REMARK    4  A    between atoms: N_3  and  C_4
REMARK    5  A    between atoms: C_4  and  C_5
REMARK    6  A    between atoms: C_8  and  C_9
REMARK    7  A    between atoms: C_9  and  N_10
REMARK    8  A    between atoms: N_10  and  C_11
REMARK    9  A    between atoms: N_10  and  C_12
REMARK   10  A    between atoms: C_12  and  C_13
REMARK                            x       y       z     vdW  Elec       q    Type
REMARK                         _______ _______ _______ _____ _____    ______ ____
ROOT
ATOM      1  C   UNL     1      49.182   8.336  17.504  0.00  0.00    +0.000 C 
ENDROOT
BRANCH   1   2
ATOM      2  C   UNL     1      48.887   8.184  16.035  0.00  0.00    +0.000 A 
ATOM      3  C   UNL     1      49.102   6.985  15.352  0.00  0.00    +0.000 A 
ATOM      4  C   UNL     1      48.710   6.866  14.020  0.00  0.00    +0.000 A 
ATOM      5  C   UNL     1      48.080   7.945  13.402  0.00  0.00    +0.000 A 
ATOM      6  N   UNL     1      47.888   9.131  14.030  0.00  0.00    +0.000 NA
ATOM      7  C   UNL     1      48.301   9.223  15.316  0.00  0.00    +0.000 A 
BRANCH   5   8
ATOM      8  C   UNL     1      47.474   7.778  12.017  0.00  0.00    +0.000 C 
BRANCH   8   9
ATOM      9  N   UNL     1      46.100   7.206  12.053  0.00  0.00    +0.000 NA
ATOM     10  C   UNL     1      45.103   8.256  11.795  0.00  0.00    +0.000 C 
BRANCH   9  11
ATOM     11  C   UNL     1      45.949   6.142  11.040  0.00  0.00    +0.000 C 
BRANCH  11  12
ATOM     12  C   UNL     1      45.060   4.997  11.474  0.00  0.00    +0.000 A 
ATOM     13  C   UNL     1      44.924   4.675  12.821  0.00  0.00    +0.000 A 
ATOM     14  N   UNL     1      44.175   3.633  13.257  0.00  0.00    +0.000 NA
ATOM     15  C   UNL     1      43.566   2.918  12.286  0.00  0.00    +0.000 A 
ATOM     16  C   UNL     1      43.688   3.233  10.944  0.00  0.00    +0.000 A 
ATOM     17  N   UNL     1      44.434   4.273  10.508  0.00  0.00    +0.000 NA
ENDBRANCH  11  12
ENDBRANCH   9  11
ENDBRANCH   8   9
ENDBRANCH   5   8
ENDBRANCH   1   2
BRANCH   1  18
ATOM     18  N   UNL     1      48.285   7.539  18.336  0.00  0.00    +0.000 NA
ATOM     19  H   UNL     1      47.592   8.155  18.757  0.00  0.00    +0.000 HD
BRANCH  18  21
ATOM     20  C   UNL     1      50.048   7.672  20.110  0.00  0.00    +0.000 C 
ATOM     21  C   UNL     1      48.970   6.821  19.427  0.00  0.00    +0.000 C 
BRANCH  21  22
ATOM     22  C   UNL     1      49.577   5.585  18.787  0.00  0.00    +0.000 A 
ATOM     23  C   UNL     1      50.935   5.297  18.809  0.00  0.00    +0.000 A 
ATOM     24  S   UNL     1      51.351   3.908  17.913  0.00  0.00    +0.000 S 
ATOM     25  C   UNL     1      49.729   3.640  17.467  0.00  0.00    +0.000 A 
ATOM     26  N   UNL     1      49.391   2.621  16.636  0.00  0.00    +0.000 NA
ATOM     27  C   UNL     1      48.127   2.541  16.384  0.00  0.00    +0.000 A 
ATOM     28  N   UNL     1      47.168   3.367  16.913  0.00  0.00    +0.000 N 
ATOM     29  C   UNL     1      47.456   4.376  17.806  0.00  0.00    +0.000 A 
ATOM     30  O   UNL     1      46.568   5.025  18.347  0.00  0.00    +0.000 OA
ATOM     31  C   UNL     1      48.875   4.559  18.052  0.00  0.00    +0.000 A 
ATOM     32  H   UNL     1      46.190   3.214  16.713  0.00  0.00    +0.000 HD
ENDBRANCH  21  22
ENDBRANCH  18  21
ENDBRANCH   1  18
TORSDOF 8
ENDMDL
MODEL 7
REMARK VINA RESULT:    -6.872      3.178      9.074
REMARK INTER + INTRA:         -10.561
REMARK INTER:                  -9.647
REMARK INTRA:                  -0.914
REMARK UNBOUND:                -0.475
REMARK  Name = 
REMARK  10 active torsions:
REMARK  status: ('A' for Active; 'I' for Inactive)
REMARK    1  A    between atoms: C_1  and  C_2
REMARK    2  A    between atoms: C_2  and  N_3
REMARK    3  A    between atoms: C_2  and  C_21
REMARK    4  A    between atoms: N_3  and  C_4
REMARK    5  A    between atoms: C_4  and  C_5
REMARK    6  A    between atoms: C_8  and  C_9
REMARK    7  A    between atoms: C_9  and  N_10
REMARK    8  A    between atoms: N_10  and  C_11
REMARK    9  A    between atoms: N_10  and  C_12
REMARK   10  A    between atoms: C_12  and  C_13
REMARK                            x       y       z     vdW  Elec       q    Type
REMARK                         _______ _______ _______ _____ _____    ______ ____
ROOT
ATOM      1  C   UNL     1      48.270   7.505  12.332  0.00  0.00    +0.000 C 
ENDROOT
BRANCH   1   2
ATOM      2  C   UNL     1      49.090   7.509  13.595  0.00  0.00    +0.000 A 
ATOM      3  C   UNL     1      48.664   6.872  14.762  0.00  0.00    +0.000 A 
ATOM      4  C   UNL     1      49.509   6.812  15.867  0.00  0.00    +0.000 A 
ATOM      5  C   UNL     1      50.785   7.366  15.773  0.00  0.00    +0.000 A 
ATOM      6  N   UNL     1      51.214   8.019  14.665  0.00  0.00    +0.000 NA
ATOM      7  C   UNL     1      50.360   8.082  13.616  0.00  0.00    +0.000 A 
BRANCH   5   8
ATOM      8  C   UNL     1      51.791   7.148  16.893  0.00  0.00    +0.000 C 
BRANCH   8   9
ATOM      9  N   UNL     1      52.505   5.847  16.782  0.00  0.00    +0.000 NA
ATOM     10  C   UNL     1      53.913   6.067  16.419  0.00  0.00    +0.000 C 
BRANCH   9  11
ATOM     11  C   UNL     1      52.449   5.108  18.060  0.00  0.00    +0.000 C 
BRANCH  11  12
ATOM     12  C   UNL     1      52.093   3.644  17.912  0.00  0.00    +0.000 A 
ATOM     13  C   UNL     1      52.965   2.654  18.352  0.00  0.00    +0.000 A 
ATOM     14  N   UNL     1      52.713   1.331  18.202  0.00  0.00    +0.000 NA
ATOM     15  C   UNL     1      51.546   1.035  17.588  0.00  0.00    +0.000 A 
ATOM     16  C   UNL     1      50.668   2.012  17.152  0.00  0.00    +0.000 A 
ATOM     17  N   UNL     1      50.919   3.332  17.302  0.00  0.00    +0.000 NA
ENDBRANCH  11  12
ENDBRANCH   9  11
ENDBRANCH   8   9
ENDBRANCH   5   8
ENDBRANCH   1   2
BRANCH   1  18
ATOM     18  N   UNL     1      47.253   6.457  12.331  0.00  0.00    +0.000 NA
ATOM     19  H   UNL     1      47.670   5.595  11.987  0.00  0.00    +0.000 HD
BRANCH  18  21
ATOM     20  C   UNL     1      45.349   8.032  11.928  0.00  0.00    +0.000 C 
ATOM     21  C   UNL     1      46.087   6.763  11.484  0.00  0.00    +0.000 C 
BRANCH  21  22
ATOM     22  C   UNL     1      45.182   5.547  11.577  0.00  0.00    +0.000 A 
ATOM     23  C   UNL     1      44.433   5.231  12.703  0.00  0.00    +0.000 A 
ATOM     24  S   UNL     1      43.601   3.749  12.573  0.00  0.00    +0.000 S 
ATOM     25  C   UNL     1      44.209   3.479  11.005  0.00  0.00    +0.000 A 
ATOM     26  N   UNL     1      43.923   2.336  10.329  0.00  0.00    +0.000 NA
ATOM     27  C   UNL     1      44.454   2.269   9.154  0.00  0.00    +0.000 A 
ATOM     28  N   UNL     1      45.217   3.254   8.581  0.00  0.00    +0.000 N 
ATOM     29  C   UNL     1      45.485   4.454   9.203  0.00  0.00    +0.000 A 
ATOM     30  O   UNL     1      46.075   5.358   8.623  0.00  0.00    +0.000 OA
ATOM     31  C   UNL     1      44.981   4.540  10.561  0.00  0.00    +0.000 A 
ATOM     32  H   UNL     1      45.558   3.155   7.636  0.00  0.00    +0.000 HD
ENDBRANCH  21  22
ENDBRANCH  18  21
ENDBRANCH   1  18
TORSDOF 8
ENDMDL
MODEL 8
REMARK VINA RESULT:    -6.709      3.601      4.612
REMARK INTER + INTRA:         -10.322
REMARK INTER:                  -9.121
REMARK INTRA:                  -1.201
REMARK UNBOUND:                -0.475
REMARK  Name = 
REMARK  10 active torsions:
REMARK  status: ('A' for Active; 'I' for Inactive)
REMARK    1  A    between atoms: C_1  and  C_2
REMARK    2  A    between atoms: C_2  and  N_3
REMARK    3  A    between atoms: C_2  and  C_21
REMARK    4  A    between atoms: N_3  and  C_4
REMARK    5  A    between atoms: C_4  and  C_5
REMARK    6  A    between atoms: C_8  and  C_9
REMARK    7  A    between atoms: C_9  and  N_10
REMARK    8  A    between atoms: N_10  and  C_11
REMARK    9  A    between atoms: N_10  and  C_12
REMARK   10  A    between atoms: C_12  and  C_13
REMARK                            x       y       z     vdW  Elec       q    Type
REMARK                         _______ _______ _______ _____ _____    ______ ____
ROOT
ATOM      1  C   UNL     1      47.959   9.817  12.563  0.00  0.00    +0.000 C 
ENDROOT
BRANCH   1   2
ATOM      2  C   UNL     1      46.953   8.723  12.322  0.00  0.00    +0.000 A 
ATOM      3  C   UNL     1      45.577   8.961  12.334  0.00  0.00    +0.000 A 
ATOM      4  C   UNL     1      44.694   7.937  11.997  0.00  0.00    +0.000 A 
ATOM      5  C   UNL     1      45.208   6.697  11.621  0.00  0.00    +0.000 A 
ATOM      6  N   UNL     1      46.536   6.428  11.631  0.00  0.00    +0.000 NA
ATOM      7  C   UNL     1      47.368   7.436  11.987  0.00  0.00    +0.000 A 
BRANCH   5   8
ATOM      8  C   UNL     1      44.279   5.628  11.068  0.00  0.00    +0.000 C 
BRANCH   8   9
ATOM      9  N   UNL     1      44.987   4.358  10.748  0.00  0.00    +0.000 NA
ATOM     10  C   UNL     1      44.932   3.440  11.895  0.00  0.00    +0.000 C 
BRANCH   9  11
ATOM     11  C   UNL     1      44.375   3.698   9.576  0.00  0.00    +0.000 C 
BRANCH  11  12
ATOM     12  C   UNL     1      45.376   3.131   8.594  0.00  0.00    +0.000 A 
ATOM     13  C   UNL     1      45.722   1.783   8.631  0.00  0.00    +0.000 A 
ATOM     14  N   UNL     1      46.646   1.237   7.804  0.00  0.00    +0.000 NA
ATOM     15  C   UNL     1      47.216   2.098   6.932  0.00  0.00    +0.000 A 
ATOM     16  C   UNL     1      46.874   3.438   6.880  0.00  0.00    +0.000 A 
ATOM     17  N   UNL     1      45.952   3.984   7.706  0.00  0.00    +0.000 NA
ENDBRANCH  11  12
ENDBRANCH   9  11
ENDBRANCH   8   9
ENDBRANCH   5   8
ENDBRANCH   1   2
BRANCH   1  18
ATOM     18  N   UNL     1      48.135  10.108  13.983  0.00  0.00    +0.000 NA
ATOM     19  H   UNL     1      47.902  11.085  14.149  0.00  0.00    +0.000 HD
BRANCH  18  21
ATOM     20  C   UNL     1      50.495   9.578  13.335  0.00  0.00    +0.000 C 
ATOM     21  C   UNL     1      49.509   9.885  14.469  0.00  0.00    +0.000 C 
BRANCH  21  22
ATOM     22  C   UNL     1      49.417   8.720  15.439  0.00  0.00    +0.000 A 
ATOM     23  C   UNL     1      49.925   7.455  15.172  0.00  0.00    +0.000 A 
ATOM     24  S   UNL     1      49.577   6.312  16.387  0.00  0.00    +0.000 S 
ATOM     25  C   UNL     1      48.738   7.468  17.315  0.00  0.00    +0.000 A 
ATOM     26  N   UNL     1      48.126   7.123  18.477  0.00  0.00    +0.000 NA
ATOM     27  C   UNL     1      47.527   8.101  19.071  0.00  0.00    +0.000 A 
ATOM     28  N   UNL     1      47.513   9.398  18.626  0.00  0.00    +0.000 N 
ATOM     29  C   UNL     1      48.169   9.807  17.484  0.00  0.00    +0.000 A 
ATOM     30  O   UNL     1      48.231  10.990  17.171  0.00  0.00    +0.000 OA
ATOM     31  C   UNL     1      48.783   8.725  16.737  0.00  0.00    +0.000 A 
ATOM     32  H   UNL     1      47.068  10.123  19.169  0.00  0.00    +0.000 HD
ENDBRANCH  21  22
ENDBRANCH  18  21
ENDBRANCH   1  18
TORSDOF 8
ENDMDL
MODEL 9
REMARK VINA RESULT:    -6.642      2.615      3.868
REMARK INTER + INTRA:         -10.223
REMARK INTER:                  -8.910
REMARK INTRA:                  -1.313
REMARK UNBOUND:                -0.475
REMARK  Name = 
REMARK  10 active torsions:
REMARK  status: ('A' for Active; 'I' for Inactive)
REMARK    1  A    between atoms: C_1  and  C_2
REMARK    2  A    between atoms: C_2  and  N_3
REMARK    3  A    between atoms: C_2  and  C_21
REMARK    4  A    between atoms: N_3  and  C_4
REMARK    5  A    between atoms: C_4  and  C_5
REMARK    6  A    between atoms: C_8  and  C_9
REMARK    7  A    between atoms: C_9  and  N_10
REMARK    8  A    between atoms: N_10  and  C_11
REMARK    9  A    between atoms: N_10  and  C_12
REMARK   10  A    between atoms: C_12  and  C_13
REMARK                            x       y       z     vdW  Elec       q    Type
REMARK                         _______ _______ _______ _____ _____    ______ ____
ROOT
ATOM      1  C   UNL     1      49.900   8.266  18.026  0.00  0.00    +0.000 C 
ENDROOT
BRANCH   1   2
ATOM      2  C   UNL     1      49.493   8.229  16.576  0.00  0.00    +0.000 A 
ATOM      3  C   UNL     1      50.014   7.293  15.680  0.00  0.00    +0.000 A 
ATOM      4  C   UNL     1      49.523   7.233  14.378  0.00  0.00    +0.000 A 
ATOM      5  C   UNL     1      48.492   8.094  14.004  0.00  0.00    +0.000 A 
ATOM      6  N   UNL     1      47.990   9.034  14.842  0.00  0.00    +0.000 NA
ATOM      7  C   UNL     1      48.506   9.084  16.093  0.00  0.00    +0.000 A 
BRANCH   5   8
ATOM      8  C   UNL     1      47.812   7.921  12.655  0.00  0.00    +0.000 C 
BRANCH   8   9
ATOM      9  N   UNL     1      46.561   7.117  12.739  0.00  0.00    +0.000 NA
ATOM     10  C   UNL     1      45.384   7.991  12.633  0.00  0.00    +0.000 C 
BRANCH   9  11
ATOM     11  C   UNL     1      46.512   6.112  11.656  0.00  0.00    +0.000 C 
BRANCH  11  12
ATOM     12  C   UNL     1      45.395   5.102  11.802  0.00  0.00    +0.000 A 
ATOM     13  C   UNL     1      45.294   4.315  12.945  0.00  0.00    +0.000 A 
ATOM     14  N   UNL     1      44.339   3.366  13.103  0.00  0.00    +0.000 NA
ATOM     15  C   UNL     1      43.483   3.235  12.065  0.00  0.00    +0.000 A 
ATOM     16  C   UNL     1      43.569   4.017  10.927  0.00  0.00    +0.000 A 
ATOM     17  N   UNL     1      44.522   4.964  10.769  0.00  0.00    +0.000 NA
ENDBRANCH  11  12
ENDBRANCH   9  11
ENDBRANCH   8   9
ENDBRANCH   5   8
ENDBRANCH   1   2
BRANCH   1  18
ATOM     18  N   UNL     1      50.224   6.941  18.547  0.00  0.00    +0.000 NA
ATOM     19  H   UNL     1      50.590   6.369  17.788  0.00  0.00    +0.000 HD
BRANCH  18  21
ATOM     20  C   UNL     1      49.333   5.739  20.554  0.00  0.00    +0.000 C 
ATOM     21  C   UNL     1      49.069   6.233  19.126  0.00  0.00    +0.000 C 
BRANCH  21  22
ATOM     22  C   UNL     1      48.790   5.068  18.192  0.00  0.00    +0.000 A 
ATOM     23  C   UNL     1      47.571   4.867  17.558  0.00  0.00    +0.000 A 
ATOM     24  S   UNL     1      47.500   3.419  16.663  0.00  0.00    +0.000 S 
ATOM     25  C   UNL     1      49.098   3.011  17.087  0.00  0.00    +0.000 A 
ATOM     26  N   UNL     1      49.651   1.837  16.688  0.00  0.00    +0.000 NA
ATOM     27  C   UNL     1      50.867   1.662  17.085  0.00  0.00    +0.000 A 
ATOM     28  N   UNL     1      51.591   2.568  17.818  0.00  0.00    +0.000 N 
ATOM     29  C   UNL     1      51.093   3.796  18.196  0.00  0.00    +0.000 A 
ATOM     30  O   UNL     1      51.798   4.629  18.754  0.00  0.00    +0.000 OA
ATOM     31  C   UNL     1      49.699   4.001  17.845  0.00  0.00    +0.000 A 
ATOM     32  H   UNL     1      52.556   2.387  18.051  0.00  0.00    +0.000 HD
ENDBRANCH  21  22
ENDBRANCH  18  21
ENDBRANCH   1  18
TORSDOF 8
ENDMDL
