MODEL 1
REMARK VINA RESULT:    -7.753      0.000      0.000
REMARK INTER + INTRA:         -13.409
REMARK INTER:                 -12.059
REMARK INTRA:                  -1.350
REMARK UNBOUND:                -1.350
REMARK  Name = 
REMARK  11 active torsions:
REMARK  status: ('A' for Active; 'I' for Inactive)
REMARK    1  A    between atoms: C_1  and  C_2
REMARK    2  A    between atoms: C_2  and  N_3
REMARK    3  A    between atoms: C_2  and  C_14
REMARK    4  A    between atoms: N_3  and  CA_4
REMARK    5  A    between atoms: CA_4  and  C_5
REMARK    6  A    between atoms: CA_4  and  C_7
REMARK    7  A    between atoms: C_5  and  O_6
REMARK    8  A    between atoms: C_17  and  C_18
REMARK    9  A    between atoms: C_18  and  O_19
REMARK   10  A    between atoms: O_19  and  C_20
REMARK   11  A    between atoms: C_20  and  C_21
REMARK                            x       y       z     vdW  Elec       q    Type
REMARK                         _______ _______ _______ _____ _____    ______ ____
ROOT
ATOM      1  C   UNL     1      48.446   7.921  12.381  0.00  0.00    +0.000 C 
ATOM      2  C   UNL     1      47.731   6.994  13.384  0.00  0.00    +0.000 C 
ENDROOT
BRANCH   2   3
ATOM      3  C   UNL     1      46.707   6.079  12.665  0.00  0.00    +0.000 A 
ATOM      4  C   UNL     1      46.154   4.950  13.298  0.00  0.00    +0.000 A 
ATOM      5  C   UNL     1      45.205   4.141  12.650  0.00  0.00    +0.000 A 
ATOM      6  C   UNL     1      44.756   4.454  11.359  0.00  0.00    +0.000 A 
ATOM      7  C   UNL     1      45.298   5.568  10.718  0.00  0.00    +0.000 A 
ATOM      8  C   UNL     1      46.244   6.367  11.366  0.00  0.00    +0.000 A 
BRANCH   6   9
ATOM      9  C   UNL     1      43.657   3.676  10.686  0.00  0.00    +0.000 C 
BRANCH   9  10
ATOM     10  O   UNL     1      44.050   3.264   9.378  0.00  0.00    +0.000 OA
BRANCH  10  11
ATOM     11  C   UNL     1      44.746   2.011   9.372  0.00  0.00    +0.000 C 
BRANCH  11  12
ATOM     12  C   UNL     1      45.803   2.047   8.305  0.00  0.00    +0.000 A 
ATOM     13  C   UNL     1      46.061   3.221   7.606  0.00  0.00    +0.000 A 
ATOM     14  C   UNL     1      47.039   3.210   6.623  0.00  0.00    +0.000 A 
ATOM     15  C   UNL     1      47.718   2.029   6.403  0.00  0.00    +0.000 A 
ATOM     16  N   UNL     1      47.472   0.904   7.103  0.00  0.00    +0.000 NA
ATOM     17  N   UNL     1      46.503   0.914   8.067  0.00  0.00    +0.000 NA
ENDBRANCH  11  12
ENDBRANCH  10  11
ENDBRANCH   9  10
ENDBRANCH   6   9
ENDBRANCH   2   3
BRANCH   2  18
ATOM     18  N   UNL     1      48.652   6.192  14.225  0.00  0.00    +0.000 NA
ATOM     19  H   UNL     1      49.585   6.281  13.817  0.00  0.00    +0.000 HD
BRANCH  18  20
ATOM     20  CA  UNL     1      48.756   6.550  15.655  0.00  0.00    +0.000 C 
BRANCH  20  21
ATOM     21  C   UNL     1      48.426   5.445  16.658  0.00  0.00    +0.000 A 
ATOM     22  C   UNL     1      47.690   4.297  16.320  0.00  0.00    +0.000 A 
ATOM     23  C   UNL     1      47.650   3.192  17.179  0.00  0.00    +0.000 A 
ATOM     24  C   UNL     1      48.323   3.226  18.399  0.00  0.00    +0.000 A 
ATOM     25  C   UNL     1      48.990   4.383  18.773  0.00  0.00    +0.000 A 
ATOM     26  F   UNL     1      49.635   4.425  19.946  0.00  0.00    +0.000 F 
ATOM     27  C   UNL     1      49.041   5.486  17.924  0.00  0.00    +0.000 A 
ENDBRANCH  20  21
BRANCH  20  28
ATOM     28  C   UNL     1      50.199   7.072  15.961  0.00  0.00    +0.000 C 
BRANCH  28  29
ATOM     29  O   UNL     1      51.021   7.240  14.807  0.00  0.00    +0.000 OA
ATOM     30  H   UNL     1      51.819   7.719  15.088  0.00  0.00    +0.000 HD
ENDBRANCH  28  29
ENDBRANCH  20  28
ENDBRANCH  18  20
ENDBRANCH   2  18
TORSDOF 10
ENDMDL
MODEL 2
REMARK VINA RESULT:    -7.571      3.266      8.572
REMARK INTER + INTRA:         -13.126
REMARK INTER:                 -11.780
REMARK INTRA:                  -1.346
REMARK UNBOUND:                -1.350
REMARK  Name = 
REMARK  11 active torsions:
REMARK  status: ('A' for Active; 'I' for Inactive)
REMARK    1  A    between atoms: C_1  and  C_2
REMARK    2  A    between atoms: C_2  and  N_3
REMARK    3  A    between atoms: C_2  and  C_14
REMARK    4  A    between atoms: N_3  and  CA_4
REMARK    5  A    between atoms: CA_4  and  C_5
REMARK    6  A    between atoms: CA_4  and  C_7
REMARK    7  A    between atoms: C_5  and  O_6
REMARK    8  A    between atoms: C_17  and  C_18
REMARK    9  A    between atoms: C_18  and  O_19
REMARK   10  A    between atoms: O_19  and  C_20
REMARK   11  A    between atoms: C_20  and  C_21
REMARK                            x       y       z     vdW  Elec       q    Type
REMARK                         _______ _______ _______ _____ _____    ______ ____
ROOT
ATOM      1  C   UNL     1      44.086   6.824  11.487  0.00  0.00    +0.000 C 
ATOM      2  C   UNL     1      45.435   6.086  11.365  0.00  0.00    +0.000 C 
ENDROOT
BRANCH   2   3
ATOM      3  C   UNL     1      46.439   6.580  12.437  0.00  0.00    +0.000 A 
ATOM      4  C   UNL     1      46.514   7.934  12.811  0.00  0.00    +0.000 A 
ATOM      5  C   UNL     1      47.409   8.370  13.804  0.00  0.00    +0.000 A 
ATOM      6  C   UNL     1      48.235   7.457  14.476  0.00  0.00    +0.000 A 
ATOM      7  C   UNL     1      48.174   6.111  14.114  0.00  0.00    +0.000 A 
ATOM      8  C   UNL     1      47.285   5.686  13.123  0.00  0.00    +0.000 A 
BRANCH   6   9
ATOM      9  C   UNL     1      49.118   7.874  15.623  0.00  0.00    +0.000 C 
BRANCH   9  10
ATOM     10  O   UNL     1      48.495   7.591  16.874  0.00  0.00    +0.000 OA
BRANCH  10  11
ATOM     11  C   UNL     1      49.282   6.732  17.709  0.00  0.00    +0.000 C 
BRANCH  11  12
ATOM     12  C   UNL     1      48.898   5.305  17.437  0.00  0.00    +0.000 A 
ATOM     13  C   UNL     1      47.586   4.880  17.616  0.00  0.00    +0.000 A 
ATOM     14  C   UNL     1      47.275   3.553  17.361  0.00  0.00    +0.000 A 
ATOM     15  C   UNL     1      48.290   2.726  16.927  0.00  0.00    +0.000 A 
ATOM     16  N   UNL     1      49.553   3.156  16.738  0.00  0.00    +0.000 NA
ATOM     17  N   UNL     1      49.860   4.463  16.995  0.00  0.00    +0.000 NA
ENDBRANCH  11  12
ENDBRANCH  10  11
ENDBRANCH   9  10
ENDBRANCH   6   9
ENDBRANCH   2   3
BRANCH   2  18
ATOM     18  N   UNL     1      45.317   4.609  11.396  0.00  0.00    +0.000 NA
ATOM     19  H   UNL     1      44.959   4.355  12.318  0.00  0.00    +0.000 HD
BRANCH  18  20
ATOM     20  CA  UNL     1      44.442   3.973  10.388  0.00  0.00    +0.000 C 
BRANCH  20  21
ATOM     21  C   UNL     1      45.130   3.434   9.134  0.00  0.00    +0.000 A 
ATOM     22  C   UNL     1      45.740   4.264   8.178  0.00  0.00    +0.000 A 
ATOM     23  C   UNL     1      46.591   3.728   7.203  0.00  0.00    +0.000 A 
ATOM     24  C   UNL     1      46.825   2.355   7.152  0.00  0.00    +0.000 A 
ATOM     25  C   UNL     1      46.168   1.522   8.045  0.00  0.00    +0.000 A 
ATOM     26  F   UNL     1      46.383   0.201   8.000  0.00  0.00    +0.000 F 
ATOM     27  C   UNL     1      45.324   2.044   9.022  0.00  0.00    +0.000 A 
ENDBRANCH  20  21
BRANCH  20  28
ATOM     28  C   UNL     1      43.648   2.800  11.050  0.00  0.00    +0.000 C 
BRANCH  28  29
ATOM     29  O   UNL     1      44.001   2.542  12.408  0.00  0.00    +0.000 OA
ATOM     30  H   UNL     1      44.579   3.268  12.700  0.00  0.00    +0.000 HD
ENDBRANCH  28  29
ENDBRANCH  20  28
ENDBRANCH  18  20
ENDBRANCH   2  18
TORSDOF 10
ENDMDL
MODEL 3
REMARK VINA RESULT:    -6.924      3.667      8.175
REMARK INTER + INTRA:         -12.120
REMARK INTER:                 -10.827
REMARK INTRA:                  -1.292
REMARK UNBOUND:                -1.350
REMARK  Name = 
REMARK  11 active torsions:
REMARK  status: ('A' for Active; 'I' for Inactive)
REMARK    1  A    between atoms: C_1  and  C_2
REMARK    2  A    between atoms: C_2  and  N_3
REMARK    3  A    between atoms: C_2  and  C_14
REMARK    4  A    between atoms: N_3  and  CA_4
REMARK    5  A    between atoms: CA_4  and  C_5
REMARK    6  A    between atoms: CA_4  and  C_7
REMARK    7  A    between atoms: C_5  and  O_6
REMARK    8  A    between atoms: C_17  and  C_18
REMARK    9  A    between atoms: C_18  and  O_19
REMARK   10  A    between atoms: O_19  and  C_20
REMARK   11  A    between atoms: C_20  and  C_21
REMARK                            x       y       z     vdW  Elec       q    Type
REMARK                         _______ _______ _______ _____ _____    ______ ____
ROOT
ATOM      1  C   UNL     1      44.754   9.015  11.967  0.00  0.00    +0.000 C 
ATOM      2  C   UNL     1      45.581   7.727  11.782  0.00  0.00    +0.000 C 
ENDROOT
BRANCH   2   3
ATOM      3  C   UNL     1      46.947   7.832  12.505  0.00  0.00    +0.000 A 
ATOM      4  C   UNL     1      47.168   8.763  13.536  0.00  0.00    +0.000 A 
ATOM      5  C   UNL     1      48.401   8.833  14.207  0.00  0.00    +0.000 A 
ATOM      6  C   UNL     1      49.443   7.952  13.887  0.00  0.00    +0.000 A 
ATOM      7  C   UNL     1      49.241   7.025  12.864  0.00  0.00    +0.000 A 
ATOM      8  C   UNL     1      48.013   6.963  12.199  0.00  0.00    +0.000 A 
BRANCH   6   9
ATOM      9  C   UNL     1      50.733   7.925  14.664  0.00  0.00    +0.000 C 
BRANCH   9  10
ATOM     10  O   UNL     1      50.798   6.773  15.503  0.00  0.00    +0.000 OA
BRANCH  10  11
ATOM     11  C   UNL     1      49.741   6.726  16.471  0.00  0.00    +0.000 C 
BRANCH  11  12
ATOM     12  C   UNL     1      49.233   5.315  16.566  0.00  0.00    +0.000 A 
ATOM     13  C   UNL     1      47.900   5.025  16.300  0.00  0.00    +0.000 A 
ATOM     14  C   UNL     1      47.469   3.711  16.407  0.00  0.00    +0.000 A 
ATOM     15  C   UNL     1      48.399   2.755  16.761  0.00  0.00    +0.000 A 
ATOM     16  N   UNL     1      49.694   3.048  16.997  0.00  0.00    +0.000 NA
ATOM     17  N   UNL     1      50.116   4.344  16.896  0.00  0.00    +0.000 NA
ENDBRANCH  11  12
ENDBRANCH  10  11
ENDBRANCH   9  10
ENDBRANCH   6   9
ENDBRANCH   2   3
BRANCH   2  18
ATOM     18  N   UNL     1      44.867   6.490  12.183  0.00  0.00    +0.000 NA
ATOM     19  H   UNL     1      44.306   6.721  13.005  0.00  0.00    +0.000 HD
BRANCH  18  20
ATOM     20  CA  UNL     1      43.966   5.870  11.189  0.00  0.00    +0.000 C 
BRANCH  20  21
ATOM     21  C   UNL     1      44.541   4.702  10.387  0.00  0.00    +0.000 A 
ATOM     22  C   UNL     1      44.088   3.380  10.527  0.00  0.00    +0.000 A 
ATOM     23  C   UNL     1      44.437   2.399   9.589  0.00  0.00    +0.000 A 
ATOM     24  C   UNL     1      45.263   2.720   8.513  0.00  0.00    +0.000 A 
ATOM     25  C   UNL     1      45.773   4.005   8.409  0.00  0.00    +0.000 A 
ATOM     26  F   UNL     1      46.572   4.319   7.381  0.00  0.00    +0.000 F 
ATOM     27  C   UNL     1      45.429   4.988   9.333  0.00  0.00    +0.000 A 
ENDBRANCH  20  21
BRANCH  20  28
ATOM     28  C   UNL     1      42.662   5.378  11.900  0.00  0.00    +0.000 C 
BRANCH  28  29
ATOM     29  O   UNL     1      42.674   5.526  13.319  0.00  0.00    +0.000 OA
ATOM     30  H   UNL     1      41.795   5.847  13.584  0.00  0.00    +0.000 HD
ENDBRANCH  28  29
ENDBRANCH  20  28
ENDBRANCH  18  20
ENDBRANCH   2  18
TORSDOF 10
ENDMDL
MODEL 4
REMARK VINA RESULT:    -6.905      2.020      2.425
REMARK INTER + INTRA:         -12.090
REMARK INTER:                 -11.318
REMARK INTRA:                  -0.772
REMARK UNBOUND:                -1.350
REMARK  Name = 
REMARK  11 active torsions:
REMARK  status: ('A' for Active; 'I' for Inactive)
REMARK    1  A    between atoms: C_1  and  C_2
REMARK    2  A    between atoms: C_2  and  N_3
REMARK    3  A    between atoms: C_2  and  C_14
REMARK    4  A    between atoms: N_3  and  CA_4
REMARK    5  A    between atoms: CA_4  and  C_5
REMARK    6  A    between atoms: CA_4  and  C_7
REMARK    7  A    between atoms: C_5  and  O_6
REMARK    8  A    between atoms: C_17  and  C_18
REMARK    9  A    between atoms: C_18  and  O_19
REMARK   10  A    between atoms: O_19  and  C_20
REMARK   11  A    between atoms: C_20  and  C_21
REMARK                            x       y       z     vdW  Elec       q    Type
REMARK                         _______ _______ _______ _____ _____    ______ ____
ROOT
ATOM      1  C   UNL     1      48.708   6.509  14.823  0.00  0.00    +0.000 C 
ATOM      2  C   UNL     1      47.611   5.447  15.039  0.00  0.00    +0.000 C 
ENDROOT
BRANCH   2   3
ATOM      3  C   UNL     1      46.727   5.293  13.775  0.00  0.00    +0.000 A 
ATOM      4  C   UNL     1      46.122   4.067  13.443  0.00  0.00    +0.000 A 
ATOM      5  C   UNL     1      45.299   3.942  12.310  0.00  0.00    +0.000 A 
ATOM      6  C   UNL     1      45.032   5.048  11.491  0.00  0.00    +0.000 A 
ATOM      7  C   UNL     1      45.628   6.269  11.806  0.00  0.00    +0.000 A 
ATOM      8  C   UNL     1      46.448   6.386  12.932  0.00  0.00    +0.000 A 
BRANCH   6   9
ATOM      9  C   UNL     1      44.064   4.974  10.340  0.00  0.00    +0.000 C 
BRANCH   9  10
ATOM     10  O   UNL     1      44.725   4.570   9.142  0.00  0.00    +0.000 OA
BRANCH  10  11
ATOM     11  C   UNL     1      44.325   3.268   8.694  0.00  0.00    +0.000 C 
BRANCH  11  12
ATOM     12  C   UNL     1      45.503   2.594   8.049  0.00  0.00    +0.000 A 
ATOM     13  C   UNL     1      46.265   3.261   7.096  0.00  0.00    +0.000 A 
ATOM     14  C   UNL     1      47.338   2.600   6.519  0.00  0.00    +0.000 A 
ATOM     15  C   UNL     1      47.602   1.312   6.938  0.00  0.00    +0.000 A 
ATOM     16  N   UNL     1      46.868   0.685   7.877  0.00  0.00    +0.000 NA
ATOM     17  N   UNL     1      45.806   1.335   8.441  0.00  0.00    +0.000 NA
ENDBRANCH  11  12
ENDBRANCH  10  11
ENDBRANCH   9  10
ENDBRANCH   6   9
ENDBRANCH   2   3
BRANCH   2  18
ATOM     18  N   UNL     1      48.126   4.130  15.484  0.00  0.00    +0.000 NA
ATOM     19  H   UNL     1      49.072   4.035  15.108  0.00  0.00    +0.000 HD
BRANCH  18  20
ATOM     20  CA  UNL     1      48.200   3.882  16.939  0.00  0.00    +0.000 C 
BRANCH  20  21
ATOM     21  C   UNL     1      49.562   3.457  17.488  0.00  0.00    +0.000 A 
ATOM     22  C   UNL     1      50.192   2.254  17.128  0.00  0.00    +0.000 A 
ATOM     23  C   UNL     1      51.542   2.035  17.427  0.00  0.00    +0.000 A 
ATOM     24  C   UNL     1      52.276   3.002  18.113  0.00  0.00    +0.000 A 
ATOM     25  C   UNL     1      51.641   4.159  18.538  0.00  0.00    +0.000 A 
ATOM     26  F   UNL     1      52.337   5.090  19.202  0.00  0.00    +0.000 F 
ATOM     27  C   UNL     1      50.300   4.390  18.241  0.00  0.00    +0.000 A 
ENDBRANCH  20  21
BRANCH  20  28
ATOM     28  C   UNL     1      47.741   5.162  17.712  0.00  0.00    +0.000 C 
BRANCH  28  29
ATOM     29  O   UNL     1      46.472   5.040  18.352  0.00  0.00    +0.000 OA
ATOM     30  H   UNL     1      45.970   4.359  17.871  0.00  0.00    +0.000 HD
ENDBRANCH  28  29
ENDBRANCH  20  28
ENDBRANCH  18  20
ENDBRANCH   2  18
TORSDOF 10
ENDMDL
MODEL 5
REMARK VINA RESULT:    -6.767      3.804      8.950
REMARK INTER + INTRA:         -11.876
REMARK INTER:                 -10.964
REMARK INTRA:                  -0.912
REMARK UNBOUND:                -1.350
REMARK  Name = 
REMARK  11 active torsions:
REMARK  status: ('A' for Active; 'I' for Inactive)
REMARK    1  A    between atoms: C_1  and  C_2
REMARK    2  A    between atoms: C_2  and  N_3
REMARK    3  A    between atoms: C_2  and  C_14
REMARK    4  A    between atoms: N_3  and  CA_4
REMARK    5  A    between atoms: CA_4  and  C_5
REMARK    6  A    between atoms: CA_4  and  C_7
REMARK    7  A    between atoms: C_5  and  O_6
REMARK    8  A    between atoms: C_17  and  C_18
REMARK    9  A    between atoms: C_18  and  O_19
REMARK   10  A    between atoms: O_19  and  C_20
REMARK   11  A    between atoms: C_20  and  C_21
REMARK                            x       y       z     vdW  Elec       q    Type
REMARK                         _______ _______ _______ _____ _____    ______ ____
ROOT
ATOM      1  C   UNL     1      46.609   6.978  12.101  0.00  0.00    +0.000 C 
ATOM      2  C   UNL     1      46.719   5.553  12.679  0.00  0.00    +0.000 C 
ENDROOT
BRANCH   2   3
ATOM      3  C   UNL     1      47.362   5.571  14.089  0.00  0.00    +0.000 A 
ATOM      4  C   UNL     1      47.095   4.565  15.035  0.00  0.00    +0.000 A 
ATOM      5  C   UNL     1      47.704   4.572  16.302  0.00  0.00    +0.000 A 
ATOM      6  C   UNL     1      48.624   5.571  16.650  0.00  0.00    +0.000 A 
ATOM      7  C   UNL     1      48.897   6.578  15.723  0.00  0.00    +0.000 A 
ATOM      8  C   UNL     1      48.285   6.567  14.467  0.00  0.00    +0.000 A 
BRANCH   6   9
ATOM      9  C   UNL     1      49.379   5.542  17.952  0.00  0.00    +0.000 C 
BRANCH   9  10
ATOM     10  O   UNL     1      50.778   5.374  17.727  0.00  0.00    +0.000 OA
BRANCH  10  11
ATOM     11  C   UNL     1      51.451   4.749  18.828  0.00  0.00    +0.000 C 
BRANCH  11  12
ATOM     12  C   UNL     1      51.858   3.361  18.423  0.00  0.00    +0.000 A 
ATOM     13  C   UNL     1      51.070   2.619  17.549  0.00  0.00    +0.000 A 
ATOM     14  C   UNL     1      51.477   1.339  17.207  0.00  0.00    +0.000 A 
ATOM     15  C   UNL     1      52.659   0.874  17.746  0.00  0.00    +0.000 A 
ATOM     16  N   UNL     1      53.424   1.611  18.575  0.00  0.00    +0.000 NA
ATOM     17  N   UNL     1      53.019   2.871  18.916  0.00  0.00    +0.000 NA
ENDBRANCH  11  12
ENDBRANCH  10  11
ENDBRANCH   9  10
ENDBRANCH   6   9
ENDBRANCH   2   3
BRANCH   2  18
ATOM     18  N   UNL     1      45.436   4.810  12.696  0.00  0.00    +0.000 NA
ATOM     19  H   UNL     1      44.979   5.021  13.585  0.00  0.00    +0.000 HD
BRANCH  18  20
ATOM     20  CA  UNL     1      44.466   5.098  11.618  0.00  0.00    +0.000 C 
BRANCH  20  21
ATOM     21  C   UNL     1      44.718   4.409  10.277  0.00  0.00    +0.000 A 
ATOM     22  C   UNL     1      45.474   4.991   9.246  0.00  0.00    +0.000 A 
ATOM     23  C   UNL     1      45.911   4.225   8.158  0.00  0.00    +0.000 A 
ATOM     24  C   UNL     1      45.578   2.873   8.071  0.00  0.00    +0.000 A 
ATOM     25  C   UNL     1      44.769   2.311   9.047  0.00  0.00    +0.000 A 
ATOM     26  F   UNL     1      44.441   1.015   8.968  0.00  0.00    +0.000 F 
ATOM     27  C   UNL     1      44.334   3.062  10.136  0.00  0.00    +0.000 A 
ENDBRANCH  20  21
BRANCH  20  28
ATOM     28  C   UNL     1      43.025   4.724  12.096  0.00  0.00    +0.000 C 
BRANCH  28  29
ATOM     29  O   UNL     1      42.643   5.318  13.335  0.00  0.00    +0.000 OA
ATOM     30  H   UNL     1      43.460   5.553  13.808  0.00  0.00    +0.000 HD
ENDBRANCH  28  29
ENDBRANCH  20  28
ENDBRANCH  18  20
ENDBRANCH   2  18
TORSDOF 10
ENDMDL
MODEL 6
REMARK VINA RESULT:    -6.573      1.984      2.625
REMARK INTER + INTRA:         -11.573
REMARK INTER:                 -10.320
REMARK INTRA:                  -1.254
REMARK UNBOUND:                -1.350
REMARK  Name = 
REMARK  11 active torsions:
REMARK  status: ('A' for Active; 'I' for Inactive)
REMARK    1  A    between atoms: C_1  and  C_2
REMARK    2  A    between atoms: C_2  and  N_3
REMARK    3  A    between atoms: C_2  and  C_14
REMARK    4  A    between atoms: N_3  and  CA_4
REMARK    5  A    between atoms: CA_4  and  C_5
REMARK    6  A    between atoms: CA_4  and  C_7
REMARK    7  A    between atoms: C_5  and  O_6
REMARK    8  A    between atoms: C_17  and  C_18
REMARK    9  A    between atoms: C_18  and  O_19
REMARK   10  A    between atoms: O_19  and  C_20
REMARK   11  A    between atoms: C_20  and  C_21
REMARK                            x       y       z     vdW  Elec       q    Type
REMARK                         _______ _______ _______ _____ _____    ______ ____
ROOT
ATOM      1  C   UNL     1      50.471   8.345  12.630  0.00  0.00    +0.000 C 
ATOM      2  C   UNL     1      49.424   8.222  13.755  0.00  0.00    +0.000 C 
ENDROOT
BRANCH   2   3
ATOM      3  C   UNL     1      48.081   7.672  13.210  0.00  0.00    +0.000 A 
ATOM      4  C   UNL     1      47.989   6.397  12.621  0.00  0.00    +0.000 A 
ATOM      5  C   UNL     1      46.763   5.894  12.155  0.00  0.00    +0.000 A 
ATOM      6  C   UNL     1      45.583   6.639  12.290  0.00  0.00    +0.000 A 
ATOM      7  C   UNL     1      45.659   7.906  12.869  0.00  0.00    +0.000 A 
ATOM      8  C   UNL     1      46.882   8.402  13.327  0.00  0.00    +0.000 A 
BRANCH   6   9
ATOM      9  C   UNL     1      44.238   6.081  11.907  0.00  0.00    +0.000 C 
BRANCH   9  10
ATOM     10  O   UNL     1      44.331   4.692  11.597  0.00  0.00    +0.000 OA
BRANCH  10  11
ATOM     11  C   UNL     1      43.646   4.342  10.388  0.00  0.00    +0.000 C 
BRANCH  11  12
ATOM     12  C   UNL     1      44.642   3.789   9.408  0.00  0.00    +0.000 A 
ATOM     13  C   UNL     1      44.887   2.421   9.345  0.00  0.00    +0.000 A 
ATOM     14  C   UNL     1      45.819   1.953   8.433  0.00  0.00    +0.000 A 
ATOM     15  C   UNL     1      46.447   2.876   7.621  0.00  0.00    +0.000 A 
ATOM     16  N   UNL     1      46.185   4.196   7.679  0.00  0.00    +0.000 NA
ATOM     17  N   UNL     1      45.270   4.658   8.583  0.00  0.00    +0.000 NA
ENDBRANCH  11  12
ENDBRANCH  10  11
ENDBRANCH   9  10
ENDBRANCH   6   9
ENDBRANCH   2   3
BRANCH   2  18
ATOM     18  N   UNL     1      49.882   7.428  14.920  0.00  0.00    +0.000 NA
ATOM     19  H   UNL     1      50.610   7.972  15.387  0.00  0.00    +0.000 HD
BRANCH  18  20
ATOM     20  CA  UNL     1      48.874   7.067  15.939  0.00  0.00    +0.000 C 
BRANCH  20  21
ATOM     21  C   UNL     1      48.979   5.662  16.532  0.00  0.00    +0.000 A 
ATOM     22  C   UNL     1      50.090   5.223  17.272  0.00  0.00    +0.000 A 
ATOM     23  C   UNL     1      50.029   4.043  18.025  0.00  0.00    +0.000 A 
ATOM     24  C   UNL     1      48.867   3.272  18.030  0.00  0.00    +0.000 A 
ATOM     25  C   UNL     1      47.793   3.660  17.243  0.00  0.00    +0.000 A 
ATOM     26  F   UNL     1      46.676   2.922  17.238  0.00  0.00    +0.000 F 
ATOM     27  C   UNL     1      47.841   4.834  16.494  0.00  0.00    +0.000 A 
ENDBRANCH  20  21
BRANCH  20  28
ATOM     28  C   UNL     1      48.927   8.097  17.115  0.00  0.00    +0.000 C 
BRANCH  28  29
ATOM     29  O   UNL     1      47.720   8.192  17.869  0.00  0.00    +0.000 OA
ATOM     30  H   UNL     1      47.633   9.115  18.163  0.00  0.00    +0.000 HD
ENDBRANCH  28  29
ENDBRANCH  20  28
ENDBRANCH  18  20
ENDBRANCH   2  18
TORSDOF 10
ENDMDL
MODEL 7
REMARK VINA RESULT:    -6.453      4.193      8.937
REMARK INTER + INTRA:         -11.388
REMARK INTER:                  -9.718
REMARK INTRA:                  -1.669
REMARK UNBOUND:                -1.350
REMARK  Name = 
REMARK  11 active torsions:
REMARK  status: ('A' for Active; 'I' for Inactive)
REMARK    1  A    between atoms: C_1  and  C_2
REMARK    2  A    between atoms: C_2  and  N_3
REMARK    3  A    between atoms: C_2  and  C_14
REMARK    4  A    between atoms: N_3  and  CA_4
REMARK    5  A    between atoms: CA_4  and  C_5
REMARK    6  A    between atoms: CA_4  and  C_7
REMARK    7  A    between atoms: C_5  and  O_6
REMARK    8  A    between atoms: C_17  and  C_18
REMARK    9  A    between atoms: C_18  and  O_19
REMARK   10  A    between atoms: O_19  and  C_20
REMARK   11  A    between atoms: C_20  and  C_21
REMARK                            x       y       z     vdW  Elec       q    Type
REMARK                         _______ _______ _______ _____ _____    ______ ____
ROOT
ATOM      1  C   UNL     1      46.794   4.102  13.633  0.00  0.00    +0.000 C 
ATOM      2  C   UNL     1      45.786   5.267  13.563  0.00  0.00    +0.000 C 
ENDROOT
BRANCH   2   3
ATOM      3  C   UNL     1      46.447   6.543  12.982  0.00  0.00    +0.000 A 
ATOM      4  C   UNL     1      45.802   7.793  13.026  0.00  0.00    +0.000 A 
ATOM      5  C   UNL     1      46.419   8.951  12.522  0.00  0.00    +0.000 A 
ATOM      6  C   UNL     1      47.714   8.900  11.986  0.00  0.00    +0.000 A 
ATOM      7  C   UNL     1      48.364   7.666  11.933  0.00  0.00    +0.000 A 
ATOM      8  C   UNL     1      47.743   6.518  12.433  0.00  0.00    +0.000 A 
BRANCH   6   9
ATOM      9  C   UNL     1      48.446  10.140  11.547  0.00  0.00    +0.000 C 
BRANCH   9  10
ATOM     10  O   UNL     1      48.530  11.087  12.610  0.00  0.00    +0.000 OA
BRANCH  10  11
ATOM     11  C   UNL     1      49.637  10.846  13.488  0.00  0.00    +0.000 C 
BRANCH  11  12
ATOM     12  C   UNL     1      49.119  10.678  14.888  0.00  0.00    +0.000 A 
ATOM     13  C   UNL     1      48.690   9.435  15.339  0.00  0.00    +0.000 A 
ATOM     14  C   UNL     1      48.212   9.324  16.635  0.00  0.00    +0.000 A 
ATOM     15  C   UNL     1      48.202  10.461  17.417  0.00  0.00    +0.000 A 
ATOM     16  N   UNL     1      48.640  11.656  16.975  0.00  0.00    +0.000 NA
ATOM     17  N   UNL     1      49.106  11.765  15.694  0.00  0.00    +0.000 NA
ENDBRANCH  11  12
ENDBRANCH  10  11
ENDBRANCH   9  10
ENDBRANCH   6   9
ENDBRANCH   2   3
BRANCH   2  18
ATOM     18  N   UNL     1      44.539   4.940  12.830  0.00  0.00    +0.000 NA
ATOM     19  H   UNL     1      43.771   5.392  13.329  0.00  0.00    +0.000 HD
BRANCH  18  20
ATOM     20  CA  UNL     1      44.453   5.353  11.413  0.00  0.00    +0.000 C 
BRANCH  20  21
ATOM     21  C   UNL     1      44.886   4.316  10.376  0.00  0.00    +0.000 A 
ATOM     22  C   UNL     1      44.422   2.990  10.378  0.00  0.00    +0.000 A 
ATOM     23  C   UNL     1      44.618   2.161   9.266  0.00  0.00    +0.000 A 
ATOM     24  C   UNL     1      45.302   2.635   8.148  0.00  0.00    +0.000 A 
ATOM     25  C   UNL     1      45.827   3.918   8.169  0.00  0.00    +0.000 A 
ATOM     26  F   UNL     1      46.490   4.379   7.100  0.00  0.00    +0.000 F 
ATOM     27  C   UNL     1      45.634   4.753   9.266  0.00  0.00    +0.000 A 
ENDBRANCH  20  21
BRANCH  20  28
ATOM     28  C   UNL     1      42.988   5.790  11.083  0.00  0.00    +0.000 C 
BRANCH  28  29
ATOM     29  O   UNL     1      42.781   7.201  11.084  0.00  0.00    +0.000 OA
ATOM     30  H   UNL     1      43.574   7.611  10.698  0.00  0.00    +0.000 HD
ENDBRANCH  28  29
ENDBRANCH  20  28
ENDBRANCH  18  20
ENDBRANCH   2  18
TORSDOF 10
ENDMDL
MODEL 8
REMARK VINA RESULT:    -6.427      4.029      9.844
REMARK INTER + INTRA:         -11.347
REMARK INTER:                 -10.309
REMARK INTRA:                  -1.038
REMARK UNBOUND:                -1.350
REMARK  Name = 
REMARK  11 active torsions:
REMARK  status: ('A' for Active; 'I' for Inactive)
REMARK    1  A    between atoms: C_1  and  C_2
REMARK    2  A    between atoms: C_2  and  N_3
REMARK    3  A    between atoms: C_2  and  C_14
REMARK    4  A    between atoms: N_3  and  CA_4
REMARK    5  A    between atoms: CA_4  and  C_5
REMARK    6  A    between atoms: CA_4  and  C_7
REMARK    7  A    between atoms: C_5  and  O_6
REMARK    8  A    between atoms: C_17  and  C_18
REMARK    9  A    between atoms: C_18  and  O_19
REMARK   10  A    between atoms: O_19  and  C_20
REMARK   11  A    between atoms: C_20  and  C_21
REMARK                            x       y       z     vdW  Elec       q    Type
REMARK                         _______ _______ _______ _____ _____    ______ ____
ROOT
ATOM      1  C   UNL     1      46.605   6.877  12.190  0.00  0.00    +0.000 C 
ATOM      2  C   UNL     1      46.678   5.427  12.709  0.00  0.00    +0.000 C 
ENDROOT
BRANCH   2   3
ATOM      3  C   UNL     1      47.257   5.376  14.146  0.00  0.00    +0.000 A 
ATOM      4  C   UNL     1      46.960   4.319  15.025  0.00  0.00    +0.000 A 
ATOM      5  C   UNL     1      47.512   4.266  16.317  0.00  0.00    +0.000 A 
ATOM      6  C   UNL     1      48.402   5.254  16.758  0.00  0.00    +0.000 A 
ATOM      7  C   UNL     1      48.704   6.311  15.898  0.00  0.00    +0.000 A 
ATOM      8  C   UNL     1      48.149   6.360  14.616  0.00  0.00    +0.000 A 
BRANCH   6   9
ATOM      9  C   UNL     1      49.099   5.164  18.090  0.00  0.00    +0.000 C 
BRANCH   9  10
ATOM     10  O   UNL     1      48.184   5.385  19.161  0.00  0.00    +0.000 OA
BRANCH  10  11
ATOM     11  C   UNL     1      48.770   6.091  20.262  0.00  0.00    +0.000 C 
BRANCH  11  12
ATOM     12  C   UNL     1      48.040   7.390  20.450  0.00  0.00    +0.000 A 
ATOM     13  C   UNL     1      47.765   8.210  19.361  0.00  0.00    +0.000 A 
ATOM     14  C   UNL     1      47.097   9.405  19.578  0.00  0.00    +0.000 A 
ATOM     15  C   UNL     1      46.725   9.710  20.871  0.00  0.00    +0.000 A 
ATOM     16  N   UNL     1      46.980   8.896  21.915  0.00  0.00    +0.000 NA
ATOM     17  N   UNL     1      47.644   7.721  21.701  0.00  0.00    +0.000 NA
ENDBRANCH  11  12
ENDBRANCH  10  11
ENDBRANCH   9  10
ENDBRANCH   6   9
ENDBRANCH   2   3
BRANCH   2  18
ATOM     18  N   UNL     1      45.390   4.696  12.636  0.00  0.00    +0.000 NA
ATOM     19  H   UNL     1      44.891   4.878  13.509  0.00  0.00    +0.000 HD
BRANCH  18  20
ATOM     20  CA  UNL     1      44.477   5.032  11.523  0.00  0.00    +0.000 C 
BRANCH  20  21
ATOM     21  C   UNL     1      44.757   4.350  10.184  0.00  0.00    +0.000 A 
ATOM     22  C   UNL     1      45.500   4.955   9.157  0.00  0.00    +0.000 A 
ATOM     23  C   UNL     1      45.969   4.203   8.072  0.00  0.00    +0.000 A 
ATOM     24  C   UNL     1      45.679   2.841   7.985  0.00  0.00    +0.000 A 
ATOM     25  C   UNL     1      44.883   2.254   8.956  0.00  0.00    +0.000 A 
ATOM     26  F   UNL     1      44.597   0.948   8.876  0.00  0.00    +0.000 F 
ATOM     27  C   UNL     1      44.418   2.992  10.042  0.00  0.00    +0.000 A 
ENDBRANCH  20  21
BRANCH  20  28
ATOM     28  C   UNL     1      43.004   4.706  11.937  0.00  0.00    +0.000 C 
BRANCH  28  29
ATOM     29  O   UNL     1      42.557   5.387  13.108  0.00  0.00    +0.000 OA
ATOM     30  H   UNL     1      43.348   5.646  13.612  0.00  0.00    +0.000 HD
ENDBRANCH  28  29
ENDBRANCH  20  28
ENDBRANCH  18  20
ENDBRANCH   2  18
TORSDOF 10
ENDMDL
MODEL 9
REMARK VINA RESULT:    -6.425      2.224      3.562
REMARK INTER + INTRA:         -11.343
REMARK INTER:                 -10.110
REMARK INTRA:                  -1.233
REMARK UNBOUND:                -1.350
REMARK  Name = 
REMARK  11 active torsions:
REMARK  status: ('A' for Active; 'I' for Inactive)
REMARK    1  A    between atoms: C_1  and  C_2
REMARK    2  A    between atoms: C_2  and  N_3
REMARK    3  A    between atoms: C_2  and  C_14
REMARK    4  A    between atoms: N_3  and  CA_4
REMARK    5  A    between atoms: CA_4  and  C_5
REMARK    6  A    between atoms: CA_4  and  C_7
REMARK    7  A    between atoms: C_5  and  O_6
REMARK    8  A    between atoms: C_17  and  C_18
REMARK    9  A    between atoms: C_18  and  O_19
REMARK   10  A    between atoms: O_19  and  C_20
REMARK   11  A    between atoms: C_20  and  C_21
REMARK                            x       y       z     vdW  Elec       q    Type
REMARK                         _______ _______ _______ _____ _____    ______ ____
ROOT
ATOM      1  C   UNL     1      46.887   9.021  12.649  0.00  0.00    +0.000 C 
ATOM      2  C   UNL     1      47.126   7.630  13.271  0.00  0.00    +0.000 C 
ENDROOT
BRANCH   2   3
ATOM      3  C   UNL     1      46.163   6.576  12.668  0.00  0.00    +0.000 A 
ATOM      4  C   UNL     1      45.195   6.923  11.708  0.00  0.00    +0.000 A 
ATOM      5  C   UNL     1      44.344   5.957  11.145  0.00  0.00    +0.000 A 
ATOM      6  C   UNL     1      44.456   4.606  11.503  0.00  0.00    +0.000 A 
ATOM      7  C   UNL     1      45.409   4.247  12.456  0.00  0.00    +0.000 A 
ATOM      8  C   UNL     1      46.250   5.213  13.015  0.00  0.00    +0.000 A 
BRANCH   6   9
ATOM      9  C   UNL     1      43.640   3.532  10.833  0.00  0.00    +0.000 C 
BRANCH   9  10
ATOM     10  O   UNL     1      44.122   3.272   9.516  0.00  0.00    +0.000 OA
BRANCH  10  11
ATOM     11  C   UNL     1      44.698   1.967   9.378  0.00  0.00    +0.000 C 
BRANCH  11  12
ATOM     12  C   UNL     1      45.781   2.021   8.338  0.00  0.00    +0.000 A 
ATOM     13  C   UNL     1      46.092   3.219   7.704  0.00  0.00    +0.000 A 
ATOM     14  C   UNL     1      47.092   3.224   6.744  0.00  0.00    +0.000 A 
ATOM     15  C   UNL     1      47.738   2.034   6.480  0.00  0.00    +0.000 A 
ATOM     16  N   UNL     1      47.440   0.885   7.117  0.00  0.00    +0.000 NA
ATOM     17  N   UNL     1      46.450   0.879   8.059  0.00  0.00    +0.000 NA
ENDBRANCH  11  12
ENDBRANCH  10  11
ENDBRANCH   9  10
ENDBRANCH   6   9
ENDBRANCH   2   3
BRANCH   2  18
ATOM     18  N   UNL     1      48.532   7.167  13.186  0.00  0.00    +0.000 NA
ATOM     19  H   UNL     1      48.989   7.722  12.461  0.00  0.00    +0.000 HD
BRANCH  18  20
ATOM     20  CA  UNL     1      49.358   7.266  14.408  0.00  0.00    +0.000 C 
BRANCH  20  21
ATOM     21  C   UNL     1      49.602   8.675  14.950  0.00  0.00    +0.000 A 
ATOM     22  C   UNL     1      50.414   9.617  14.297  0.00  0.00    +0.000 A 
ATOM     23  C   UNL     1      50.389  10.967  14.670  0.00  0.00    +0.000 A 
ATOM     24  C   UNL     1      49.571  11.391  15.718  0.00  0.00    +0.000 A 
ATOM     25  C   UNL     1      48.824  10.454  16.415  0.00  0.00    +0.000 A 
ATOM     26  F   UNL     1      48.040  10.853  17.425  0.00  0.00    +0.000 F 
ATOM     27  C   UNL     1      48.837   9.110  16.049  0.00  0.00    +0.000 A 
ENDBRANCH  20  21
BRANCH  20  28
ATOM     28  C   UNL     1      48.712   6.411  15.548  0.00  0.00    +0.000 C 
BRANCH  28  29
ATOM     29  O   UNL     1      49.640   5.615  16.283  0.00  0.00    +0.000 OA
ATOM     30  H   UNL     1      49.695   4.750  15.839  0.00  0.00    +0.000 HD
ENDBRANCH  28  29
ENDBRANCH  20  28
ENDBRANCH  18  20
ENDBRANCH   2  18
TORSDOF 10
ENDMDL
