MODEL 1
REMARK VINA RESULT:    -7.002      0.000      0.000
REMARK INTER + INTRA:          -8.489
REMARK INTER:                  -8.230
REMARK INTRA:                  -0.259
REMARK UNBOUND:                -0.259
REMARK  Name = 
REMARK  3 active torsions:
REMARK  status: ('A' for Active; 'I' for Inactive)
REMARK    1  A    between atoms: C_3  and  C_4
REMARK    2  A    between atoms: C_8  and  C_9
REMARK    3  A    between atoms: C_9  and  C_10
REMARK                            x       y       z     vdW  Elec       q    Type
REMARK                         _______ _______ _______ _____ _____    ______ ____
ROOT
ATOM      1  C   UNL     1      45.119   3.357   9.452  0.00  0.00    +0.000 A 
ATOM      2  C   UNL     1      44.015   2.729  10.032  0.00  0.00    +0.000 A 
ATOM      3  N   UNL     1      43.320   3.195  11.096  0.00  0.00    +0.000 NA
ATOM      4  C   UNL     1      43.740   4.368  11.621  0.00  0.00    +0.000 A 
ATOM      5  C   UNL     1      44.820   5.117  11.156  0.00  0.00    +0.000 A 
ATOM      6  C   UNL     1      45.497   4.577  10.046  0.00  0.00    +0.000 A 
ENDROOT
BRANCH   1   9
ATOM      7  C   UNL     1      46.918   0.927   7.184  0.00  0.00    +0.000 A 
ATOM      8  C   UNL     1      46.244   1.431   8.289  0.00  0.00    +0.000 A 
ATOM      9  C   UNL     1      45.840   2.772   8.299  0.00  0.00    +0.000 A 
ATOM     10  C   UNL     1      46.157   3.535   7.165  0.00  0.00    +0.000 A 
ATOM     11  C   UNL     1      46.839   2.946   6.109  0.00  0.00    +0.000 A 
ATOM     12  N   UNL     1      47.225   1.656   6.093  0.00  0.00    +0.000 NA
ENDBRANCH   1   9
BRANCH   5  13
ATOM     13  C   UNL     1      45.257   6.413  11.839  0.00  0.00    +0.000 C 
ATOM     14  C   UNL     1      44.187   7.228  12.565  0.00  0.00    +0.000 C 
ATOM     15  C   UNL     1      44.717   7.725  11.261  0.00  0.00    +0.000 C 
BRANCH  13  16
ATOM     16  C   UNL     1      46.682   6.474  12.396  0.00  0.00    +0.000 A 
ATOM     17  C   UNL     1      47.713   7.118  11.695  0.00  0.00    +0.000 A 
ATOM     18  C   UNL     1      48.950   7.286  12.296  0.00  0.00    +0.000 A 
ATOM     19  N   UNL     1      49.246   6.848  13.536  0.00  0.00    +0.000 NA
ATOM     20  C   UNL     1      48.266   6.194  14.191  0.00  0.00    +0.000 A 
ATOM     21  C   UNL     1      47.000   5.975  13.667  0.00  0.00    +0.000 A 
ENDBRANCH  13  16
ENDBRANCH   5  13
TORSDOF 3
ENDMDL
MODEL 2
REMARK VINA RESULT:    -6.759      1.760      6.340
REMARK INTER + INTRA:          -8.203
REMARK INTER:                  -8.230
REMARK INTRA:                   0.027
REMARK UNBOUND:                -0.259
REMARK  Name = 
REMARK  3 active torsions:
REMARK  status: ('A' for Active; 'I' for Inactive)
REMARK    1  A    between atoms: C_3  and  C_4
REMARK    2  A    between atoms: C_8  and  C_9
REMARK    3  A    between atoms: C_9  and  C_10
REMARK                            x       y       z     vdW  Elec       q    Type
REMARK                         _______ _______ _______ _____ _____    ______ ____
ROOT
ATOM      1  C   UNL     1      47.265   6.676  12.414  0.00  0.00    +0.000 A 
ATOM      2  C   UNL     1      47.388   5.976  13.615  0.00  0.00    +0.000 A 
ATOM      3  N   UNL     1      46.696   4.860  13.943  0.00  0.00    +0.000 NA
ATOM      4  C   UNL     1      45.826   4.398  13.018  0.00  0.00    +0.000 A 
ATOM      5  C   UNL     1      45.591   4.980  11.773  0.00  0.00    +0.000 A 
ATOM      6  C   UNL     1      46.345   6.136  11.494  0.00  0.00    +0.000 A 
ENDROOT
BRANCH   1   9
ATOM      7  C   UNL     1      48.220  10.294  11.880  0.00  0.00    +0.000 A 
ATOM      8  C   UNL     1      47.448   9.171  12.147  0.00  0.00    +0.000 A 
ATOM      9  C   UNL     1      48.045   7.904  12.137  0.00  0.00    +0.000 A 
ATOM     10  C   UNL     1      49.417   7.855  11.847  0.00  0.00    +0.000 A 
ATOM     11  C   UNL     1      50.107   9.032  11.588  0.00  0.00    +0.000 A 
ATOM     12  N   UNL     1      49.538  10.251  11.600  0.00  0.00    +0.000 NA
ENDBRANCH   1   9
BRANCH   5  13
ATOM     13  C   UNL     1      44.552   4.418  10.802  0.00  0.00    +0.000 C 
ATOM     14  C   UNL     1      43.234   5.178  10.656  0.00  0.00    +0.000 C 
ATOM     15  C   UNL     1      43.248   3.887  11.404  0.00  0.00    +0.000 C 
BRANCH  13  16
ATOM     16  C   UNL     1      45.067   3.665   9.572  0.00  0.00    +0.000 A 
ATOM     17  C   UNL     1      45.546   4.350   8.445  0.00  0.00    +0.000 A 
ATOM     18  C   UNL     1      46.144   3.641   7.415  0.00  0.00    +0.000 A 
ATOM     19  N   UNL     1      46.287   2.301   7.413  0.00  0.00    +0.000 NA
ATOM     20  C   UNL     1      45.789   1.643   8.478  0.00  0.00    +0.000 A 
ATOM     21  C   UNL     1      45.171   2.268   9.552  0.00  0.00    +0.000 A 
ENDBRANCH  13  16
ENDBRANCH   5  13
TORSDOF 3
ENDMDL
MODEL 3
REMARK VINA RESULT:    -6.626      2.092      6.764
REMARK INTER + INTRA:          -8.047
REMARK INTER:                  -8.148
REMARK INTRA:                   0.102
REMARK UNBOUND:                -0.259
REMARK  Name = 
REMARK  3 active torsions:
REMARK  status: ('A' for Active; 'I' for Inactive)
REMARK    1  A    between atoms: C_3  and  C_4
REMARK    2  A    between atoms: C_8  and  C_9
REMARK    3  A    between atoms: C_9  and  C_10
REMARK                            x       y       z     vdW  Elec       q    Type
REMARK                         _______ _______ _______ _____ _____    ______ ____
ROOT
ATOM      1  C   UNL     1      47.085   5.516  13.894  0.00  0.00    +0.000 A 
ATOM      2  C   UNL     1      47.616   6.680  13.335  0.00  0.00    +0.000 A 
ATOM      3  N   UNL     1      47.220   7.237  12.167  0.00  0.00    +0.000 NA
ATOM      4  C   UNL     1      46.224   6.606  11.507  0.00  0.00    +0.000 A 
ATOM      5  C   UNL     1      45.588   5.439  11.933  0.00  0.00    +0.000 A 
ATOM      6  C   UNL     1      46.047   4.914  13.155  0.00  0.00    +0.000 A 
ENDROOT
BRANCH   1   9
ATOM      7  C   UNL     1      48.806   5.152  17.239  0.00  0.00    +0.000 A 
ATOM      8  C   UNL     1      48.357   5.721  16.055  0.00  0.00    +0.000 A 
ATOM      9  C   UNL     1      47.588   4.956  15.169  0.00  0.00    +0.000 A 
ATOM     10  C   UNL     1      47.321   3.632  15.548  0.00  0.00    +0.000 A 
ATOM     11  C   UNL     1      47.817   3.147  16.750  0.00  0.00    +0.000 A 
ATOM     12  N   UNL     1      48.553   3.880  17.606  0.00  0.00    +0.000 NA
ENDBRANCH   1   9
BRANCH   5  13
ATOM     13  C   UNL     1      44.500   4.763  11.100  0.00  0.00    +0.000 C 
ATOM     14  C   UNL     1      43.138   5.453  11.018  0.00  0.00    +0.000 C 
ATOM     15  C   UNL     1      43.279   4.223  11.851  0.00  0.00    +0.000 C 
BRANCH  13  16
ATOM     16  C   UNL     1      44.944   3.943   9.885  0.00  0.00    +0.000 A 
ATOM     17  C   UNL     1      45.494   4.559   8.751  0.00  0.00    +0.000 A 
ATOM     18  C   UNL     1      46.024   3.778   7.736  0.00  0.00    +0.000 A 
ATOM     19  N   UNL     1      46.033   2.430   7.756  0.00  0.00    +0.000 NA
ATOM     20  C   UNL     1      45.468   1.842   8.829  0.00  0.00    +0.000 A 
ATOM     21  C   UNL     1      44.909   2.542   9.888  0.00  0.00    +0.000 A 
ENDBRANCH  13  16
ENDBRANCH   5  13
TORSDOF 3
ENDMDL
MODEL 4
REMARK VINA RESULT:    -6.593      2.111      3.293
REMARK INTER + INTRA:          -8.008
REMARK INTER:                  -8.124
REMARK INTRA:                   0.116
REMARK UNBOUND:                -0.259
REMARK  Name = 
REMARK  3 active torsions:
REMARK  status: ('A' for Active; 'I' for Inactive)
REMARK    1  A    between atoms: C_3  and  C_4
REMARK    2  A    between atoms: C_8  and  C_9
REMARK    3  A    between atoms: C_9  and  C_10
REMARK                            x       y       z     vdW  Elec       q    Type
REMARK                         _______ _______ _______ _____ _____    ______ ____
ROOT
ATOM      1  C   UNL     1      45.073   4.193   9.624  0.00  0.00    +0.000 A 
ATOM      2  C   UNL     1      43.804   3.901  10.128  0.00  0.00    +0.000 A 
ATOM      3  N   UNL     1      43.159   4.614  11.080  0.00  0.00    +0.000 NA
ATOM      4  C   UNL     1      43.809   5.696  11.565  0.00  0.00    +0.000 A 
ATOM      5  C   UNL     1      45.076   6.121  11.165  0.00  0.00    +0.000 A 
ATOM      6  C   UNL     1      45.689   5.336  10.170  0.00  0.00    +0.000 A 
ENDROOT
BRANCH   1   9
ATOM      7  C   UNL     1      46.871   3.074   6.493  0.00  0.00    +0.000 A 
ATOM      8  C   UNL     1      46.273   3.905   7.431  0.00  0.00    +0.000 A 
ATOM      9  C   UNL     1      45.722   3.350   8.593  0.00  0.00    +0.000 A 
ATOM     10  C   UNL     1      45.811   1.957   8.731  0.00  0.00    +0.000 A 
ATOM     11  C   UNL     1      46.424   1.205   7.737  0.00  0.00    +0.000 A 
ATOM     12  N   UNL     1      46.958   1.735   6.621  0.00  0.00    +0.000 NA
ENDBRANCH   1   9
BRANCH   5  13
ATOM     13  C   UNL     1      45.759   7.331  11.799  0.00  0.00    +0.000 C 
ATOM     14  C   UNL     1      47.281   7.292  11.943  0.00  0.00    +0.000 C 
ATOM     15  C   UNL     1      46.433   7.121  13.159  0.00  0.00    +0.000 C 
BRANCH  13  16
ATOM     16  C   UNL     1      45.110   8.702  11.589  0.00  0.00    +0.000 A 
ATOM     17  C   UNL     1      45.789   9.888  11.910  0.00  0.00    +0.000 A 
ATOM     18  C   UNL     1      45.234  11.110  11.565  0.00  0.00    +0.000 A 
ATOM     19  N   UNL     1      44.047  11.244  10.941  0.00  0.00    +0.000 NA
ATOM     20  C   UNL     1      43.379  10.105  10.670  0.00  0.00    +0.000 A 
ATOM     21  C   UNL     1      43.854   8.839  10.982  0.00  0.00    +0.000 A 
ENDBRANCH  13  16
ENDBRANCH   5  13
TORSDOF 3
ENDMDL
MODEL 5
REMARK VINA RESULT:    -6.228      2.701      6.950
REMARK INTER + INTRA:          -7.579
REMARK INTER:                  -7.644
REMARK INTRA:                   0.064
REMARK UNBOUND:                -0.259
REMARK  Name = 
REMARK  3 active torsions:
REMARK  status: ('A' for Active; 'I' for Inactive)
REMARK    1  A    between atoms: C_3  and  C_4
REMARK    2  A    between atoms: C_8  and  C_9
REMARK    3  A    between atoms: C_9  and  C_10
REMARK                            x       y       z     vdW  Elec       q    Type
REMARK                         _______ _______ _______ _____ _____    ______ ____
ROOT
ATOM      1  C   UNL     1      45.230   8.504  11.794  0.00  0.00    +0.000 A 
ATOM      2  C   UNL     1      46.412   8.272  12.500  0.00  0.00    +0.000 A 
ATOM      3  N   UNL     1      46.915   7.052  12.801  0.00  0.00    +0.000 NA
ATOM      4  C   UNL     1      46.205   5.986  12.371  0.00  0.00    +0.000 A 
ATOM      5  C   UNL     1      45.011   6.050  11.654  0.00  0.00    +0.000 A 
ATOM      6  C   UNL     1      44.545   7.348  11.371  0.00  0.00    +0.000 A 
ENDROOT
BRANCH   1   9
ATOM      7  C   UNL     1      43.042  11.398  10.734  0.00  0.00    +0.000 A 
ATOM      8  C   UNL     1      43.464  10.097  10.973  0.00  0.00    +0.000 A 
ATOM      9  C   UNL     1      44.733   9.872  11.520  0.00  0.00    +0.000 A 
ATOM     10  C   UNL     1      45.514  11.006  11.792  0.00  0.00    +0.000 A 
ATOM     11  C   UNL     1      45.010  12.270  11.513  0.00  0.00    +0.000 A 
ATOM     12  N   UNL     1      43.789  12.491  10.992  0.00  0.00    +0.000 NA
ENDBRANCH   1   9
BRANCH   5  13
ATOM     13  C   UNL     1      44.246   4.791  11.245  0.00  0.00    +0.000 C 
ATOM     14  C   UNL     1      42.741   4.756  11.514  0.00  0.00    +0.000 C 
ATOM     15  C   UNL     1      43.651   3.938  12.369  0.00  0.00    +0.000 C 
BRANCH  13  16
ATOM     16  C   UNL     1      44.758   4.016  10.028  0.00  0.00    +0.000 A 
ATOM     17  C   UNL     1      45.395   4.669   8.962  0.00  0.00    +0.000 A 
ATOM     18  C   UNL     1      45.980   3.922   7.951  0.00  0.00    +0.000 A 
ATOM     19  N   UNL     1      45.964   2.575   7.911  0.00  0.00    +0.000 NA
ATOM     20  C   UNL     1      45.316   1.952   8.915  0.00  0.00    +0.000 A 
ATOM     21  C   UNL     1      44.698   2.617   9.965  0.00  0.00    +0.000 A 
ENDBRANCH  13  16
ENDBRANCH   5  13
TORSDOF 3
ENDMDL
MODEL 6
REMARK VINA RESULT:    -6.100      3.436      6.190
REMARK INTER + INTRA:          -7.429
REMARK INTER:                  -7.229
REMARK INTRA:                  -0.200
REMARK UNBOUND:                -0.259
REMARK  Name = 
REMARK  3 active torsions:
REMARK  status: ('A' for Active; 'I' for Inactive)
REMARK    1  A    between atoms: C_3  and  C_4
REMARK    2  A    between atoms: C_8  and  C_9
REMARK    3  A    between atoms: C_9  and  C_10
REMARK                            x       y       z     vdW  Elec       q    Type
REMARK                         _______ _______ _______ _____ _____    ______ ____
ROOT
ATOM      1  C   UNL     1      46.428   5.160  13.553  0.00  0.00    +0.000 A 
ATOM      2  C   UNL     1      47.196   6.306  13.337  0.00  0.00    +0.000 A 
ATOM      3  N   UNL     1      48.180   6.752  14.152  0.00  0.00    +0.000 NA
ATOM      4  C   UNL     1      48.429   6.013  15.255  0.00  0.00    +0.000 A 
ATOM      5  C   UNL     1      47.754   4.845  15.610  0.00  0.00    +0.000 A 
ATOM      6  C   UNL     1      46.745   4.435  14.719  0.00  0.00    +0.000 A 
ENDROOT
BRANCH   1   9
ATOM      7  C   UNL     1      43.619   5.251  11.027  0.00  0.00    +0.000 A 
ATOM      8  C   UNL     1      44.618   5.686  11.887  0.00  0.00    +0.000 A 
ATOM      9  C   UNL     1      45.353   4.747  12.622  0.00  0.00    +0.000 A 
ATOM     10  C   UNL     1      45.017   3.398  12.437  0.00  0.00    +0.000 A 
ATOM     11  C   UNL     1      43.998   3.057  11.558  0.00  0.00    +0.000 A 
ATOM     12  N   UNL     1      43.292   3.955  10.846  0.00  0.00    +0.000 NA
ENDBRANCH   1   9
BRANCH   5  13
ATOM     13  C   UNL     1      48.068   4.093  16.904  0.00  0.00    +0.000 C 
ATOM     14  C   UNL     1      46.941   3.281  17.543  0.00  0.00    +0.000 C 
ATOM     15  C   UNL     1      47.360   4.565  18.177  0.00  0.00    +0.000 C 
BRANCH  13  16
ATOM     16  C   UNL     1      49.498   3.579  17.095  0.00  0.00    +0.000 A 
ATOM     17  C   UNL     1      50.530   4.434  17.511  0.00  0.00    +0.000 A 
ATOM     18  C   UNL     1      51.774   3.906  17.821  0.00  0.00    +0.000 A 
ATOM     19  N   UNL     1      52.074   2.595  17.731  0.00  0.00    +0.000 NA
ATOM     20  C   UNL     1      51.092   1.783  17.292  0.00  0.00    +0.000 A 
ATOM     21  C   UNL     1      49.820   2.222  16.955  0.00  0.00    +0.000 A 
ENDBRANCH  13  16
ENDBRANCH   5  13
TORSDOF 3
ENDMDL
MODEL 7
REMARK VINA RESULT:    -5.877      2.117      4.397
REMARK INTER + INTRA:          -7.167
REMARK INTER:                  -7.109
REMARK INTRA:                  -0.058
REMARK UNBOUND:                -0.259
REMARK  Name = 
REMARK  3 active torsions:
REMARK  status: ('A' for Active; 'I' for Inactive)
REMARK    1  A    between atoms: C_3  and  C_4
REMARK    2  A    between atoms: C_8  and  C_9
REMARK    3  A    between atoms: C_9  and  C_10
REMARK                            x       y       z     vdW  Elec       q    Type
REMARK                         _______ _______ _______ _____ _____    ______ ____
ROOT
ATOM      1  C   UNL     1      45.586   6.418  11.361  0.00  0.00    +0.000 A 
ATOM      2  C   UNL     1      44.778   7.536  11.576  0.00  0.00    +0.000 A 
ATOM      3  N   UNL     1      45.207   8.732  12.041  0.00  0.00    +0.000 NA
ATOM      4  C   UNL     1      46.527   8.835  12.308  0.00  0.00    +0.000 A 
ATOM      5  C   UNL     1      47.464   7.815  12.145  0.00  0.00    +0.000 A 
ATOM      6  C   UNL     1      46.952   6.598  11.654  0.00  0.00    +0.000 A 
ENDROOT
BRANCH   1   9
ATOM      7  C   UNL     1      44.714   3.492   9.133  0.00  0.00    +0.000 A 
ATOM      8  C   UNL     1      45.249   4.703   9.551  0.00  0.00    +0.000 A 
ATOM      9  C   UNL     1      45.037   5.134  10.867  0.00  0.00    +0.000 A 
ATOM     10  C   UNL     1      44.275   4.294  11.691  0.00  0.00    +0.000 A 
ATOM     11  C   UNL     1      43.775   3.102  11.184  0.00  0.00    +0.000 A 
ATOM     12  N   UNL     1      43.980   2.681   9.922  0.00  0.00    +0.000 NA
ENDBRANCH   1   9
BRANCH   5  13
ATOM     13  C   UNL     1      48.935   8.001  12.516  0.00  0.00    +0.000 C 
ATOM     14  C   UNL     1      49.692   9.154  11.856  0.00  0.00    +0.000 C 
ATOM     15  C   UNL     1      49.970   7.756  11.414  0.00  0.00    +0.000 C 
BRANCH  13  16
ATOM     16  C   UNL     1      49.366   7.598  13.929  0.00  0.00    +0.000 A 
ATOM     17  C   UNL     1      48.534   6.822  14.751  0.00  0.00    +0.000 A 
ATOM     18  C   UNL     1      49.017   6.348  15.961  0.00  0.00    +0.000 A 
ATOM     19  N   UNL     1      50.257   6.602  16.424  0.00  0.00    +0.000 NA
ATOM     20  C   UNL     1      51.038   7.381  15.650  0.00  0.00    +0.000 A 
ATOM     21  C   UNL     1      50.639   7.903  14.427  0.00  0.00    +0.000 A 
ENDBRANCH  13  16
ENDBRANCH   5  13
TORSDOF 3
ENDMDL
MODEL 8
REMARK VINA RESULT:    -5.842      3.521      6.346
REMARK INTER + INTRA:          -7.126
REMARK INTER:                  -7.097
REMARK INTRA:                  -0.029
REMARK UNBOUND:                -0.259
REMARK  Name = 
REMARK  3 active torsions:
REMARK  status: ('A' for Active; 'I' for Inactive)
REMARK    1  A    between atoms: C_3  and  C_4
REMARK    2  A    between atoms: C_8  and  C_9
REMARK    3  A    between atoms: C_9  and  C_10
REMARK                            x       y       z     vdW  Elec       q    Type
REMARK                         _______ _______ _______ _____ _____    ______ ____
ROOT
ATOM      1  C   UNL     1      46.303   4.994  13.753  0.00  0.00    +0.000 A 
ATOM      2  C   UNL     1      47.169   6.017  13.362  0.00  0.00    +0.000 A 
ATOM      3  N   UNL     1      48.237   6.449  14.071  0.00  0.00    +0.000 NA
ATOM      4  C   UNL     1      48.473   5.824  15.246  0.00  0.00    +0.000 A 
ATOM      5  C   UNL     1      47.706   4.785  15.773  0.00  0.00    +0.000 A 
ATOM      6  C   UNL     1      46.611   4.382  14.984  0.00  0.00    +0.000 A 
ENDROOT
BRANCH   1   9
ATOM      7  C   UNL     1      44.043   3.084  11.401  0.00  0.00    +0.000 A 
ATOM      8  C   UNL     1      45.157   3.421  12.158  0.00  0.00    +0.000 A 
ATOM      9  C   UNL     1      45.140   4.590  12.929  0.00  0.00    +0.000 A 
ATOM     10  C   UNL     1      43.971   5.363  12.878  0.00  0.00    +0.000 A 
ATOM     11  C   UNL     1      42.907   4.949  12.087  0.00  0.00    +0.000 A 
ATOM     12  N   UNL     1      42.917   3.824  11.349  0.00  0.00    +0.000 NA
ENDBRANCH   1   9
BRANCH   5  13
ATOM     13  C   UNL     1      48.015   4.163  17.134  0.00  0.00    +0.000 C 
ATOM     14  C   UNL     1      48.789   2.844  17.152  0.00  0.00    +0.000 C 
ATOM     15  C   UNL     1      47.330   2.833  17.467  0.00  0.00    +0.000 C 
BRANCH  13  16
ATOM     16  C   UNL     1      48.223   5.113  18.316  0.00  0.00    +0.000 A 
ATOM     17  C   UNL     1      49.507   5.390  18.812  0.00  0.00    +0.000 A 
ATOM     18  C   UNL     1      49.671   6.369  19.780  0.00  0.00    +0.000 A 
ATOM     19  N   UNL     1      48.654   7.081  20.305  0.00  0.00    +0.000 NA
ATOM     20  C   UNL     1      47.419   6.784  19.855  0.00  0.00    +0.000 A 
ATOM     21  C   UNL     1      47.158   5.818  18.893  0.00  0.00    +0.000 A 
ENDBRANCH  13  16
ENDBRANCH   5  13
TORSDOF 3
ENDMDL
MODEL 9
REMARK VINA RESULT:    -5.661      2.863      4.964
REMARK INTER + INTRA:          -6.913
REMARK INTER:                  -6.728
REMARK INTRA:                  -0.185
REMARK UNBOUND:                -0.259
REMARK  Name = 
REMARK  3 active torsions:
REMARK  status: ('A' for Active; 'I' for Inactive)
REMARK    1  A    between atoms: C_3  and  C_4
REMARK    2  A    between atoms: C_8  and  C_9
REMARK    3  A    between atoms: C_9  and  C_10
REMARK                            x       y       z     vdW  Elec       q    Type
REMARK                         _______ _______ _______ _____ _____    ______ ____
ROOT
ATOM      1  C   UNL     1      46.423   5.562  12.818  0.00  0.00    +0.000 A 
ATOM      2  C   UNL     1      47.025   5.081  13.982  0.00  0.00    +0.000 A 
ATOM      3  N   UNL     1      48.027   5.693  14.654  0.00  0.00    +0.000 NA
ATOM      4  C   UNL     1      48.462   6.867  14.146  0.00  0.00    +0.000 A 
ATOM      5  C   UNL     1      47.965   7.481  12.997  0.00  0.00    +0.000 A 
ATOM      6  C   UNL     1      46.922   6.793  12.347  0.00  0.00    +0.000 A 
ENDROOT
BRANCH   1   9
ATOM      7  C   UNL     1      43.989   4.362  10.188  0.00  0.00    +0.000 A 
ATOM      8  C   UNL     1      45.010   5.083  10.792  0.00  0.00    +0.000 A 
ATOM      9  C   UNL     1      45.342   4.821  12.127  0.00  0.00    +0.000 A 
ATOM     10  C   UNL     1      44.599   3.827  12.780  0.00  0.00    +0.000 A 
ATOM     11  C   UNL     1      43.591   3.162  12.095  0.00  0.00    +0.000 A 
ATOM     12  N   UNL     1      43.271   3.406  10.811  0.00  0.00    +0.000 NA
ENDBRANCH   1   9
BRANCH   5  13
ATOM     13  C   UNL     1      48.547   8.790  12.463  0.00  0.00    +0.000 C 
ATOM     14  C   UNL     1      48.166  10.082  13.186  0.00  0.00    +0.000 C 
ATOM     15  C   UNL     1      47.565   9.794  11.850  0.00  0.00    +0.000 C 
BRANCH  13  16
ATOM     16  C   UNL     1      49.930   8.734  11.808  0.00  0.00    +0.000 A 
ATOM     17  C   UNL     1      50.871   9.756  12.004  0.00  0.00    +0.000 A 
ATOM     18  C   UNL     1      52.162   9.601  11.523  0.00  0.00    +0.000 A 
ATOM     19  N   UNL     1      52.583   8.514  10.847  0.00  0.00    +0.000 NA
ATOM     20  C   UNL     1      51.665   7.552  10.625  0.00  0.00    +0.000 A 
ATOM     21  C   UNL     1      50.350   7.623  11.064  0.00  0.00    +0.000 A 
ENDBRANCH  13  16
ENDBRANCH   5  13
TORSDOF 3
ENDMDL
