MODEL 1
REMARK VINA RESULT:    -5.934      0.000      0.000
REMARK INTER + INTRA:          -8.563
REMARK INTER:                  -8.015
REMARK INTRA:                  -0.548
REMARK UNBOUND:                -0.548
REMARK  Name = 
REMARK  8 active torsions:
REMARK  status: ('A' for Active; 'I' for Inactive)
REMARK    1  A    between atoms: C_1  and  C_2
REMARK    2  A    between atoms: C_2  and  C_3
REMARK    3  A    between atoms: C_2  and  C_12
REMARK    4  A    between atoms: C_3  and  C_4
REMARK    5  A    between atoms: C_8  and  C_9
REMARK    6  A    between atoms: C_9  and  N_10
REMARK    7  A    between atoms: C_16  and  C_17
REMARK    8  A    between atoms: C_17  and  N_18
REMARK                            x       y       z     vdW  Elec       q    Type
REMARK                         _______ _______ _______ _____ _____    ______ ____
ROOT
ATOM      1  C   UNL     1      46.606   5.770   8.948  0.00  0.00    +0.000 C 
ATOM      2  C   UNL     1      45.716   4.651   9.520  0.00  0.00    +0.000 C 
ENDROOT
BRANCH   2   3
ATOM      3  C   UNL     1      44.945   3.935   8.368  0.00  0.00    +0.000 C 
ATOM      4  C   UNL     1      44.407   2.538   8.700  0.00  0.00    +0.000 C 
ATOM      5  C   UNL     1      45.561   1.579   8.917  0.00  0.00    +0.000 C 
ATOM      6  C   UNL     1      46.411   1.515   7.663  0.00  0.00    +0.000 C 
ATOM      7  C   UNL     1      46.422   2.798   6.856  0.00  0.00    +0.000 C 
ATOM      8  N   UNL     1      45.787   3.881   7.163  0.00  0.00    +0.000 NA
BRANCH   7   9
ATOM      9  C   UNL     1      47.236   2.786   5.566  0.00  0.00    +0.000 C 
BRANCH   9  10
ATOM     10  N   UNL     1      48.382   1.890   5.730  0.00  0.00    +0.000 NA
ATOM     11  H   UNL     1      48.296   1.447   6.648  0.00  0.00    +0.000 HD
ATOM     12  H   UNL     1      49.232   2.453   5.776  0.00  0.00    +0.000 HD
ENDBRANCH   9  10
ENDBRANCH   7   9
ENDBRANCH   2   3
BRANCH   2  13
ATOM     13  C   UNL     1      44.729   5.211  10.572  0.00  0.00    +0.000 C 
BRANCH  13  14
ATOM     14  C   UNL     1      45.285   6.272  11.493  0.00  0.00    +0.000 A 
ATOM     15  C   UNL     1      44.750   7.565  11.514  0.00  0.00    +0.000 A 
ATOM     16  C   UNL     1      45.274   8.530  12.376  0.00  0.00    +0.000 A 
ATOM     17  C   UNL     1      46.342   8.214  13.219  0.00  0.00    +0.000 A 
ATOM     18  C   UNL     1      46.904   6.932  13.201  0.00  0.00    +0.000 A 
ATOM     19  C   UNL     1      46.368   5.972  12.329  0.00  0.00    +0.000 A 
BRANCH  18  20
ATOM     20  C   UNL     1      48.082   6.588  14.076  0.00  0.00    +0.000 C 
BRANCH  20  21
ATOM     21  N   UNL     1      49.325   6.532  13.313  0.00  0.00    +0.000 NA
ATOM     22  H   UNL     1      49.107   6.250  12.357  0.00  0.00    +0.000 HD
ATOM     23  H   UNL     1      49.925   5.810  13.702  0.00  0.00    +0.000 HD
ENDBRANCH  20  21
ENDBRANCH  18  20
ENDBRANCH  13  14
ENDBRANCH   2  13
TORSDOF 7
ENDMDL
MODEL 2
REMARK VINA RESULT:    -5.914      1.525      6.929
REMARK INTER + INTRA:          -8.537
REMARK INTER:                  -8.013
REMARK INTRA:                  -0.524
REMARK UNBOUND:                -0.548
REMARK  Name = 
REMARK  8 active torsions:
REMARK  status: ('A' for Active; 'I' for Inactive)
REMARK    1  A    between atoms: C_1  and  C_2
REMARK    2  A    between atoms: C_2  and  C_3
REMARK    3  A    between atoms: C_2  and  C_12
REMARK    4  A    between atoms: C_3  and  C_4
REMARK    5  A    between atoms: C_8  and  C_9
REMARK    6  A    between atoms: C_9  and  N_10
REMARK    7  A    between atoms: C_16  and  C_17
REMARK    8  A    between atoms: C_17  and  N_18
REMARK                            x       y       z     vdW  Elec       q    Type
REMARK                         _______ _______ _______ _____ _____    ______ ____
ROOT
ATOM      1  C   UNL     1      45.896   4.991  13.602  0.00  0.00    +0.000 C 
ATOM      2  C   UNL     1      46.368   5.873  12.432  0.00  0.00    +0.000 C 
ENDROOT
BRANCH   2   3
ATOM      3  C   UNL     1      46.766   7.288  12.951  0.00  0.00    +0.000 C 
ATOM      4  C   UNL     1      47.414   8.216  11.916  0.00  0.00    +0.000 C 
ATOM      5  C   UNL     1      48.767   7.666  11.507  0.00  0.00    +0.000 C 
ATOM      6  C   UNL     1      49.661   7.557  12.727  0.00  0.00    +0.000 C 
ATOM      7  C   UNL     1      48.915   7.294  14.020  0.00  0.00    +0.000 C 
ATOM      8  N   UNL     1      47.634   7.161  14.132  0.00  0.00    +0.000 NA
BRANCH   7   9
ATOM      9  C   UNL     1      49.758   7.204  15.288  0.00  0.00    +0.000 C 
BRANCH   9  10
ATOM     10  N   UNL     1      49.456   5.949  15.978  0.00  0.00    +0.000 NA
ATOM     11  H   UNL     1      49.597   6.106  16.978  0.00  0.00    +0.000 HD
ATOM     12  H   UNL     1      50.152   5.253  15.709  0.00  0.00    +0.000 HD
ENDBRANCH   9  10
ENDBRANCH   7   9
ENDBRANCH   2   3
BRANCH   2  13
ATOM     13  C   UNL     1      45.276   5.978  11.341  0.00  0.00    +0.000 C 
BRANCH  13  14
ATOM     14  C   UNL     1      45.033   4.724  10.532  0.00  0.00    +0.000 A 
ATOM     15  C   UNL     1      44.305   3.652  11.060  0.00  0.00    +0.000 A 
ATOM     16  C   UNL     1      44.087   2.505  10.295  0.00  0.00    +0.000 A 
ATOM     17  C   UNL     1      44.601   2.416   9.000  0.00  0.00    +0.000 A 
ATOM     18  C   UNL     1      45.348   3.469   8.459  0.00  0.00    +0.000 A 
ATOM     19  C   UNL     1      45.560   4.616   9.239  0.00  0.00    +0.000 A 
BRANCH  18  20
ATOM     20  C   UNL     1      45.943   3.371   7.078  0.00  0.00    +0.000 C 
BRANCH  20  21
ATOM     21  N   UNL     1      46.981   4.374   6.863  0.00  0.00    +0.000 NA
ATOM     22  H   UNL     1      47.850   4.035   7.275  0.00  0.00    +0.000 HD
ATOM     23  H   UNL     1      46.733   5.226   7.360  0.00  0.00    +0.000 HD
ENDBRANCH  20  21
ENDBRANCH  18  20
ENDBRANCH  13  14
ENDBRANCH   2  13
TORSDOF 7
ENDMDL
MODEL 3
REMARK VINA RESULT:    -5.751      1.313      6.574
REMARK INTER + INTRA:          -8.316
REMARK INTER:                  -7.652
REMARK INTRA:                  -0.665
REMARK UNBOUND:                -0.548
REMARK  Name = 
REMARK  8 active torsions:
REMARK  status: ('A' for Active; 'I' for Inactive)
REMARK    1  A    between atoms: C_1  and  C_2
REMARK    2  A    between atoms: C_2  and  C_3
REMARK    3  A    between atoms: C_2  and  C_12
REMARK    4  A    between atoms: C_3  and  C_4
REMARK    5  A    between atoms: C_8  and  C_9
REMARK    6  A    between atoms: C_9  and  N_10
REMARK    7  A    between atoms: C_16  and  C_17
REMARK    8  A    between atoms: C_17  and  N_18
REMARK                            x       y       z     vdW  Elec       q    Type
REMARK                         _______ _______ _______ _____ _____    ______ ____
ROOT
ATOM      1  C   UNL     1      45.840   8.103  12.941  0.00  0.00    +0.000 C 
ATOM      2  C   UNL     1      45.689   6.642  12.479  0.00  0.00    +0.000 C 
ENDROOT
BRANCH   2   3
ATOM      3  C   UNL     1      47.066   5.914  12.538  0.00  0.00    +0.000 C 
ATOM      4  C   UNL     1      47.046   4.504  13.142  0.00  0.00    +0.000 C 
ATOM      5  C   UNL     1      46.695   4.580  14.615  0.00  0.00    +0.000 C 
ATOM      6  C   UNL     1      47.719   5.431  15.339  0.00  0.00    +0.000 C 
ATOM      7  C   UNL     1      48.334   6.522  14.484  0.00  0.00    +0.000 C 
ATOM      8  N   UNL     1      48.045   6.755  13.245  0.00  0.00    +0.000 NA
BRANCH   7   9
ATOM      9  C   UNL     1      49.395   7.393  15.148  0.00  0.00    +0.000 C 
BRANCH   9  10
ATOM     10  N   UNL     1      50.658   7.247  14.424  0.00  0.00    +0.000 NA
ATOM     11  H   UNL     1      51.175   6.480  14.860  0.00  0.00    +0.000 HD
ATOM     12  H   UNL     1      51.223   8.082  14.581  0.00  0.00    +0.000 HD
ENDBRANCH   9  10
ENDBRANCH   7   9
ENDBRANCH   2   3
BRANCH   2  13
ATOM     13  C   UNL     1      45.093   6.570  11.053  0.00  0.00    +0.000 C 
BRANCH  13  14
ATOM     14  C   UNL     1      44.879   5.180  10.500  0.00  0.00    +0.000 A 
ATOM     15  C   UNL     1      44.094   4.243  11.181  0.00  0.00    +0.000 A 
ATOM     16  C   UNL     1      43.904   2.966  10.651  0.00  0.00    +0.000 A 
ATOM     17  C   UNL     1      44.504   2.611   9.441  0.00  0.00    +0.000 A 
ATOM     18  C   UNL     1      45.310   3.526   8.753  0.00  0.00    +0.000 A 
ATOM     19  C   UNL     1      45.492   4.807   9.297  0.00  0.00    +0.000 A 
BRANCH  18  20
ATOM     20  C   UNL     1      45.996   3.144   7.467  0.00  0.00    +0.000 C 
BRANCH  20  21
ATOM     21  N   UNL     1      46.832   4.226   6.958  0.00  0.00    +0.000 NA
ATOM     22  H   UNL     1      47.299   4.674   7.746  0.00  0.00    +0.000 HD
ATOM     23  H   UNL     1      46.242   4.932   6.526  0.00  0.00    +0.000 HD
ENDBRANCH  20  21
ENDBRANCH  18  20
ENDBRANCH  13  14
ENDBRANCH   2  13
TORSDOF 7
ENDMDL
MODEL 4
REMARK VINA RESULT:    -5.406      2.284      6.828
REMARK INTER + INTRA:          -7.850
REMARK INTER:                  -6.960
REMARK INTRA:                  -0.890
REMARK UNBOUND:                -0.548
REMARK  Name = 
REMARK  8 active torsions:
REMARK  status: ('A' for Active; 'I' for Inactive)
REMARK    1  A    between atoms: C_1  and  C_2
REMARK    2  A    between atoms: C_2  and  C_3
REMARK    3  A    between atoms: C_2  and  C_12
REMARK    4  A    between atoms: C_3  and  C_4
REMARK    5  A    between atoms: C_8  and  C_9
REMARK    6  A    between atoms: C_9  and  N_10
REMARK    7  A    between atoms: C_16  and  C_17
REMARK    8  A    between atoms: C_17  and  N_18
REMARK                            x       y       z     vdW  Elec       q    Type
REMARK                         _______ _______ _______ _____ _____    ______ ____
ROOT
ATOM      1  C   UNL     1      47.339   8.662  13.655  0.00  0.00    +0.000 C 
ATOM      2  C   UNL     1      46.791   7.270  13.291  0.00  0.00    +0.000 C 
ENDROOT
BRANCH   2   3
ATOM      3  C   UNL     1      47.912   6.195  13.437  0.00  0.00    +0.000 C 
ATOM      4  C   UNL     1      47.440   4.737  13.402  0.00  0.00    +0.000 C 
ATOM      5  C   UNL     1      46.593   4.440  14.624  0.00  0.00    +0.000 C 
ATOM      6  C   UNL     1      47.408   4.684  15.879  0.00  0.00    +0.000 C 
ATOM      7  C   UNL     1      48.463   5.763  15.733  0.00  0.00    +0.000 C 
ATOM      8  N   UNL     1      48.689   6.448  14.661  0.00  0.00    +0.000 NA
BRANCH   7   9
ATOM      9  C   UNL     1      49.337   6.033  16.954  0.00  0.00    +0.000 C 
BRANCH   9  10
ATOM     10  N   UNL     1      50.600   5.309  16.810  0.00  0.00    +0.000 NA
ATOM     11  H   UNL     1      50.579   4.831  15.907  0.00  0.00    +0.000 HD
ATOM     12  H   UNL     1      50.634   4.569  17.511  0.00  0.00    +0.000 HD
ENDBRANCH   9  10
ENDBRANCH   7   9
ENDBRANCH   2   3
BRANCH   2  13
ATOM     13  C   UNL     1      46.209   7.261  11.857  0.00  0.00    +0.000 C 
BRANCH  13  14
ATOM     14  C   UNL     1      45.153   6.215  11.584  0.00  0.00    +0.000 A 
ATOM     15  C   UNL     1      44.029   6.088  12.408  0.00  0.00    +0.000 A 
ATOM     16  C   UNL     1      43.062   5.119  12.136  0.00  0.00    +0.000 A 
ATOM     17  C   UNL     1      43.214   4.263  11.044  0.00  0.00    +0.000 A 
ATOM     18  C   UNL     1      44.339   4.359  10.217  0.00  0.00    +0.000 A 
ATOM     19  C   UNL     1      45.304   5.338  10.502  0.00  0.00    +0.000 A 
BRANCH  18  20
ATOM     20  C   UNL     1      44.536   3.417   9.058  0.00  0.00    +0.000 C 
BRANCH  20  21
ATOM     21  N   UNL     1      44.677   2.034   9.503  0.00  0.00    +0.000 NA
ATOM     22  H   UNL     1      45.246   1.531   8.822  0.00  0.00    +0.000 HD
ATOM     23  H   UNL     1      43.763   1.588   9.509  0.00  0.00    +0.000 HD
ENDBRANCH  20  21
ENDBRANCH  18  20
ENDBRANCH  13  14
ENDBRANCH   2  13
TORSDOF 7
ENDMDL
MODEL 5
REMARK VINA RESULT:    -5.375      2.812      5.168
REMARK INTER + INTRA:          -7.808
REMARK INTER:                  -6.937
REMARK INTRA:                  -0.871
REMARK UNBOUND:                -0.548
REMARK  Name = 
REMARK  8 active torsions:
REMARK  status: ('A' for Active; 'I' for Inactive)
REMARK    1  A    between atoms: C_1  and  C_2
REMARK    2  A    between atoms: C_2  and  C_3
REMARK    3  A    between atoms: C_2  and  C_12
REMARK    4  A    between atoms: C_3  and  C_4
REMARK    5  A    between atoms: C_8  and  C_9
REMARK    6  A    between atoms: C_9  and  N_10
REMARK    7  A    between atoms: C_16  and  C_17
REMARK    8  A    between atoms: C_17  and  N_18
REMARK                            x       y       z     vdW  Elec       q    Type
REMARK                         _______ _______ _______ _____ _____    ______ ____
ROOT
ATOM      1  C   UNL     1      48.447   7.046  11.869  0.00  0.00    +0.000 C 
ATOM      2  C   UNL     1      47.490   6.459  12.922  0.00  0.00    +0.000 C 
ENDROOT
BRANCH   2   3
ATOM      3  C   UNL     1      46.015   6.561  12.425  0.00  0.00    +0.000 C 
ATOM      4  C   UNL     1      44.990   5.745  13.220  0.00  0.00    +0.000 C 
ATOM      5  C   UNL     1      45.255   4.263  13.035  0.00  0.00    +0.000 C 
ATOM      6  C   UNL     1      45.161   3.910  11.564  0.00  0.00    +0.000 C 
ATOM      7  C   UNL     1      45.553   5.037  10.629  0.00  0.00    +0.000 C 
ATOM      8  N   UNL     1      45.945   6.212  10.997  0.00  0.00    +0.000 NA
BRANCH   7   9
ATOM      9  C   UNL     1      45.450   4.751   9.134  0.00  0.00    +0.000 C 
BRANCH   9  10
ATOM     10  N   UNL     1      44.074   4.374   8.812  0.00  0.00    +0.000 NA
ATOM     11  H   UNL     1      43.674   3.931   9.643  0.00  0.00    +0.000 HD
ATOM     12  H   UNL     1      44.093   3.647   8.097  0.00  0.00    +0.000 HD
ENDBRANCH   9  10
ENDBRANCH   7   9
ENDBRANCH   2   3
BRANCH   2  13
ATOM     13  C   UNL     1      47.658   7.173  14.284  0.00  0.00    +0.000 C 
BRANCH  13  14
ATOM     14  C   UNL     1      48.461   6.425  15.323  0.00  0.00    +0.000 A 
ATOM     15  C   UNL     1      49.740   6.853  15.696  0.00  0.00    +0.000 A 
ATOM     16  C   UNL     1      50.463   6.151  16.662  0.00  0.00    +0.000 A 
ATOM     17  C   UNL     1      49.919   5.011  17.257  0.00  0.00    +0.000 A 
ATOM     18  C   UNL     1      48.648   4.555  16.885  0.00  0.00    +0.000 A 
ATOM     19  C   UNL     1      47.932   5.269  15.913  0.00  0.00    +0.000 A 
BRANCH  18  20
ATOM     20  C   UNL     1      48.064   3.304  17.490  0.00  0.00    +0.000 C 
BRANCH  20  21
ATOM     21  N   UNL     1      46.606   3.307  17.436  0.00  0.00    +0.000 NA
ATOM     22  H   UNL     1      46.269   2.395  17.744  0.00  0.00    +0.000 HD
ATOM     23  H   UNL     1      46.306   3.421  16.472  0.00  0.00    +0.000 HD
ENDBRANCH  20  21
ENDBRANCH  18  20
ENDBRANCH  13  14
ENDBRANCH   2  13
TORSDOF 7
ENDMDL
MODEL 6
REMARK VINA RESULT:    -5.303      2.731      4.534
REMARK INTER + INTRA:          -7.710
REMARK INTER:                  -7.082
REMARK INTRA:                  -0.628
REMARK UNBOUND:                -0.548
REMARK  Name = 
REMARK  8 active torsions:
REMARK  status: ('A' for Active; 'I' for Inactive)
REMARK    1  A    between atoms: C_1  and  C_2
REMARK    2  A    between atoms: C_2  and  C_3
REMARK    3  A    between atoms: C_2  and  C_12
REMARK    4  A    between atoms: C_3  and  C_4
REMARK    5  A    between atoms: C_8  and  C_9
REMARK    6  A    between atoms: C_9  and  N_10
REMARK    7  A    between atoms: C_16  and  C_17
REMARK    8  A    between atoms: C_17  and  N_18
REMARK                            x       y       z     vdW  Elec       q    Type
REMARK                         _______ _______ _______ _____ _____    ______ ____
ROOT
ATOM      1  C   UNL     1      46.568   6.464  10.997  0.00  0.00    +0.000 C 
ATOM      2  C   UNL     1      45.472   6.202  12.046  0.00  0.00    +0.000 C 
ENDROOT
BRANCH   2   3
ATOM      3  C   UNL     1      44.132   5.828  11.342  0.00  0.00    +0.000 C 
ATOM      4  C   UNL     1      43.013   5.334  12.266  0.00  0.00    +0.000 C 
ATOM      5  C   UNL     1      43.400   4.002  12.878  0.00  0.00    +0.000 C 
ATOM      6  C   UNL     1      43.639   2.987  11.778  0.00  0.00    +0.000 C 
ATOM      7  C   UNL     1      44.152   3.586  10.483  0.00  0.00    +0.000 C 
ATOM      8  N   UNL     1      44.386   4.841  10.280  0.00  0.00    +0.000 NA
BRANCH   7   9
ATOM      9  C   UNL     1      44.383   2.617   9.328  0.00  0.00    +0.000 C 
BRANCH   9  10
ATOM     10  N   UNL     1      44.388   3.364   8.069  0.00  0.00    +0.000 NA
ATOM     11  H   UNL     1      44.311   4.357   8.300  0.00  0.00    +0.000 HD
ATOM     12  H   UNL     1      43.538   3.136   7.552  0.00  0.00    +0.000 HD
ENDBRANCH   9  10
ENDBRANCH   7   9
ENDBRANCH   2   3
BRANCH   2  13
ATOM     13  C   UNL     1      45.280   7.431  12.967  0.00  0.00    +0.000 C 
BRANCH  13  14
ATOM     14  C   UNL     1      45.604   8.771  12.348  0.00  0.00    +0.000 A 
ATOM     15  C   UNL     1      46.817   9.417  12.613  0.00  0.00    +0.000 A 
ATOM     16  C   UNL     1      47.099  10.652  12.027  0.00  0.00    +0.000 A 
ATOM     17  C   UNL     1      46.169  11.256  11.179  0.00  0.00    +0.000 A 
ATOM     18  C   UNL     1      44.942  10.637  10.915  0.00  0.00    +0.000 A 
ATOM     19  C   UNL     1      44.671   9.395  11.510  0.00  0.00    +0.000 A 
BRANCH  18  20
ATOM     20  C   UNL     1      43.913  11.295  10.033  0.00  0.00    +0.000 C 
BRANCH  20  21
ATOM     21  N   UNL     1      43.217  10.324   9.195  0.00  0.00    +0.000 NA
ATOM     22  H   UNL     1      42.277  10.189   9.566  0.00  0.00    +0.000 HD
ATOM     23  H   UNL     1      43.690   9.427   9.258  0.00  0.00    +0.000 HD
ENDBRANCH  20  21
ENDBRANCH  18  20
ENDBRANCH  13  14
ENDBRANCH   2  13
TORSDOF 7
ENDMDL
MODEL 7
REMARK VINA RESULT:    -5.154      2.162      3.327
REMARK INTER + INTRA:          -7.510
REMARK INTER:                  -6.853
REMARK INTRA:                  -0.657
REMARK UNBOUND:                -0.548
REMARK  Name = 
REMARK  8 active torsions:
REMARK  status: ('A' for Active; 'I' for Inactive)
REMARK    1  A    between atoms: C_1  and  C_2
REMARK    2  A    between atoms: C_2  and  C_3
REMARK    3  A    between atoms: C_2  and  C_12
REMARK    4  A    between atoms: C_3  and  C_4
REMARK    5  A    between atoms: C_8  and  C_9
REMARK    6  A    between atoms: C_9  and  N_10
REMARK    7  A    between atoms: C_16  and  C_17
REMARK    8  A    between atoms: C_17  and  N_18
REMARK                            x       y       z     vdW  Elec       q    Type
REMARK                         _______ _______ _______ _____ _____    ______ ____
ROOT
ATOM      1  C   UNL     1      46.103   6.100  10.305  0.00  0.00    +0.000 C 
ATOM      2  C   UNL     1      45.032   6.213  11.405  0.00  0.00    +0.000 C 
ENDROOT
BRANCH   2   3
ATOM      3  C   UNL     1      43.712   5.521  10.945  0.00  0.00    +0.000 C 
ATOM      4  C   UNL     1      42.789   5.038  12.070  0.00  0.00    +0.000 C 
ATOM      5  C   UNL     1      43.456   3.911  12.834  0.00  0.00    +0.000 C 
ATOM      6  C   UNL     1      43.755   2.763  11.890  0.00  0.00    +0.000 C 
ATOM      7  C   UNL     1      44.028   3.191  10.461  0.00  0.00    +0.000 C 
ATOM      8  N   UNL     1      44.024   4.410  10.032  0.00  0.00    +0.000 NA
BRANCH   7   9
ATOM      9  C   UNL     1      44.306   2.078   9.457  0.00  0.00    +0.000 C 
BRANCH   9  10
ATOM     10  N   UNL     1      45.567   2.355   8.769  0.00  0.00    +0.000 NA
ATOM     11  H   UNL     1      45.462   2.048   7.799  0.00  0.00    +0.000 HD
ATOM     12  H   UNL     1      46.294   1.762   9.168  0.00  0.00    +0.000 HD
ENDBRANCH   9  10
ENDBRANCH   7   9
ENDBRANCH   2   3
BRANCH   2  13
ATOM     13  C   UNL     1      44.772   7.692  11.777  0.00  0.00    +0.000 C 
BRANCH  13  14
ATOM     14  C   UNL     1      45.965   8.455  12.305  0.00  0.00    +0.000 A 
ATOM     15  C   UNL     1      46.267   9.739  11.841  0.00  0.00    +0.000 A 
ATOM     16  C   UNL     1      47.370  10.430  12.345  0.00  0.00    +0.000 A 
ATOM     17  C   UNL     1      48.186   9.840  13.312  0.00  0.00    +0.000 A 
ATOM     18  C   UNL     1      47.914   8.548  13.778  0.00  0.00    +0.000 A 
ATOM     19  C   UNL     1      46.802   7.865  13.262  0.00  0.00    +0.000 A 
BRANCH  18  20
ATOM     20  C   UNL     1      48.808   7.883  14.792  0.00  0.00    +0.000 C 
BRANCH  20  21
ATOM     21  N   UNL     1      49.607   6.818  14.194  0.00  0.00    +0.000 NA
ATOM     22  H   UNL     1      50.403   6.629  14.803  0.00  0.00    +0.000 HD
ATOM     23  H   UNL     1      49.985   7.140  13.308  0.00  0.00    +0.000 HD
ENDBRANCH  20  21
ENDBRANCH  18  20
ENDBRANCH  13  14
ENDBRANCH   2  13
TORSDOF 7
ENDMDL
MODEL 8
REMARK VINA RESULT:    -5.141      2.503      7.156
REMARK INTER + INTRA:          -7.492
REMARK INTER:                  -6.646
REMARK INTRA:                  -0.846
REMARK UNBOUND:                -0.548
REMARK  Name = 
REMARK  8 active torsions:
REMARK  status: ('A' for Active; 'I' for Inactive)
REMARK    1  A    between atoms: C_1  and  C_2
REMARK    2  A    between atoms: C_2  and  C_3
REMARK    3  A    between atoms: C_2  and  C_12
REMARK    4  A    between atoms: C_3  and  C_4
REMARK    5  A    between atoms: C_8  and  C_9
REMARK    6  A    between atoms: C_9  and  N_10
REMARK    7  A    between atoms: C_16  and  C_17
REMARK    8  A    between atoms: C_17  and  N_18
REMARK                            x       y       z     vdW  Elec       q    Type
REMARK                         _______ _______ _______ _____ _____    ______ ____
ROOT
ATOM      1  C   UNL     1      48.635   7.581  11.822  0.00  0.00    +0.000 C 
ATOM      2  C   UNL     1      47.123   7.495  12.099  0.00  0.00    +0.000 C 
ENDROOT
BRANCH   2   3
ATOM      3  C   UNL     1      46.682   8.653  13.046  0.00  0.00    +0.000 C 
ATOM      4  C   UNL     1      45.218   9.090  12.922  0.00  0.00    +0.000 C 
ATOM      5  C   UNL     1      44.982   9.721  11.564  0.00  0.00    +0.000 C 
ATOM      6  C   UNL     1      45.890  10.923  11.397  0.00  0.00    +0.000 C 
ATOM      7  C   UNL     1      47.206  10.815  12.144  0.00  0.00    +0.000 C 
ATOM      8  N   UNL     1      47.574   9.810  12.868  0.00  0.00    +0.000 NA
BRANCH   7   9
ATOM      9  C   UNL     1      48.150  12.008  12.040  0.00  0.00    +0.000 C 
BRANCH   9  10
ATOM     10  N   UNL     1      47.923  12.901  13.176  0.00  0.00    +0.000 NA
ATOM     11  H   UNL     1      46.921  12.888  13.382  0.00  0.00    +0.000 HD
ATOM     12  H   UNL     1      48.131  13.857  12.887  0.00  0.00    +0.000 HD
ENDBRANCH   9  10
ENDBRANCH   7   9
ENDBRANCH   2   3
BRANCH   2  13
ATOM     13  C   UNL     1      46.748   6.121  12.704  0.00  0.00    +0.000 C 
BRANCH  13  14
ATOM     14  C   UNL     1      45.511   5.467  12.131  0.00  0.00    +0.000 A 
ATOM     15  C   UNL     1      44.364   5.280  12.910  0.00  0.00    +0.000 A 
ATOM     16  C   UNL     1      43.230   4.680  12.361  0.00  0.00    +0.000 A 
ATOM     17  C   UNL     1      43.235   4.253  11.031  0.00  0.00    +0.000 A 
ATOM     18  C   UNL     1      44.379   4.413  10.239  0.00  0.00    +0.000 A 
ATOM     19  C   UNL     1      45.512   5.019  10.804  0.00  0.00    +0.000 A 
BRANCH  18  20
ATOM     20  C   UNL     1      44.412   3.922   8.815  0.00  0.00    +0.000 C 
BRANCH  20  21
ATOM     21  N   UNL     1      45.450   4.591   8.036  0.00  0.00    +0.000 NA
ATOM     22  H   UNL     1      45.065   5.456   7.658  0.00  0.00    +0.000 HD
ATOM     23  H   UNL     1      45.701   4.008   7.242  0.00  0.00    +0.000 HD
ENDBRANCH  20  21
ENDBRANCH  18  20
ENDBRANCH  13  14
ENDBRANCH   2  13
TORSDOF 7
ENDMDL
MODEL 9
REMARK VINA RESULT:    -5.045      2.957      7.103
REMARK INTER + INTRA:          -7.363
REMARK INTER:                  -6.968
REMARK INTRA:                  -0.395
REMARK UNBOUND:                -0.548
REMARK  Name = 
REMARK  8 active torsions:
REMARK  status: ('A' for Active; 'I' for Inactive)
REMARK    1  A    between atoms: C_1  and  C_2
REMARK    2  A    between atoms: C_2  and  C_3
REMARK    3  A    between atoms: C_2  and  C_12
REMARK    4  A    between atoms: C_3  and  C_4
REMARK    5  A    between atoms: C_8  and  C_9
REMARK    6  A    between atoms: C_9  and  N_10
REMARK    7  A    between atoms: C_16  and  C_17
REMARK    8  A    between atoms: C_17  and  N_18
REMARK                            x       y       z     vdW  Elec       q    Type
REMARK                         _______ _______ _______ _____ _____    ______ ____
ROOT
ATOM      1  C   UNL     1      46.950   5.510  13.361  0.00  0.00    +0.000 C 
ATOM      2  C   UNL     1      47.182   6.562  12.261  0.00  0.00    +0.000 C 
ENDROOT
BRANCH   2   3
ATOM      3  C   UNL     1      47.633   7.914  12.895  0.00  0.00    +0.000 C 
ATOM      4  C   UNL     1      48.307   8.903  11.937  0.00  0.00    +0.000 C 
ATOM      5  C   UNL     1      49.637   8.344  11.472  0.00  0.00    +0.000 C 
ATOM      6  C   UNL     1      50.534   8.100  12.669  0.00  0.00    +0.000 C 
ATOM      7  C   UNL     1      49.786   7.753  13.942  0.00  0.00    +0.000 C 
ATOM      8  N   UNL     1      48.502   7.655  14.054  0.00  0.00    +0.000 NA
BRANCH   7   9
ATOM      9  C   UNL     1      50.634   7.526  15.190  0.00  0.00    +0.000 C 
BRANCH   9  10
ATOM     10  N   UNL     1      50.681   8.763  15.970  0.00  0.00    +0.000 NA
ATOM     11  H   UNL     1      49.737   8.942  16.320  0.00  0.00    +0.000 HD
ATOM     12  H   UNL     1      50.891   9.538  15.341  0.00  0.00    +0.000 HD
ENDBRANCH   9  10
ENDBRANCH   7   9
ENDBRANCH   2   3
BRANCH   2  13
ATOM     13  C   UNL     1      45.908   6.759  11.405  0.00  0.00    +0.000 C 
BRANCH  13  14
ATOM     14  C   UNL     1      45.424   5.536  10.659  0.00  0.00    +0.000 A 
ATOM     15  C   UNL     1      45.749   5.333   9.314  0.00  0.00    +0.000 A 
ATOM     16  C   UNL     1      45.296   4.194   8.645  0.00  0.00    +0.000 A 
ATOM     17  C   UNL     1      44.508   3.254   9.312  0.00  0.00    +0.000 A 
ATOM     18  C   UNL     1      44.155   3.447  10.653  0.00  0.00    +0.000 A 
ATOM     19  C   UNL     1      44.617   4.596  11.313  0.00  0.00    +0.000 A 
BRANCH  18  20
ATOM     20  C   UNL     1      43.273   2.461  11.374  0.00  0.00    +0.000 C 
BRANCH  20  21
ATOM     21  N   UNL     1      43.629   2.347  12.785  0.00  0.00    +0.000 NA
ATOM     22  H   UNL     1      43.164   3.096  13.298  0.00  0.00    +0.000 HD
ATOM     23  H   UNL     1      44.629   2.495  12.892  0.00  0.00    +0.000 HD
ENDBRANCH  20  21
ENDBRANCH  18  20
ENDBRANCH  13  14
ENDBRANCH   2  13
TORSDOF 7
ENDMDL
