MODEL 1
REMARK VINA RESULT:    -8.049      0.000      0.000
REMARK INTER + INTRA:         -11.535
REMARK INTER:                 -10.637
REMARK INTRA:                  -0.898
REMARK UNBOUND:                -0.898
REMARK  Name = 
REMARK  6 active torsions:
REMARK  status: ('A' for Active; 'I' for Inactive)
REMARK    1  A    between atoms: C_2  and  C_19
REMARK    2  A    between atoms: N_3  and  C_4
REMARK    3  A    between atoms: C_4  and  C_5
REMARK    4  A    between atoms: C_8  and  C_9
REMARK    5  A    between atoms: C_9  and  O_10
REMARK    6  A    between atoms: C_9  and  C_11
REMARK                            x       y       z     vdW  Elec       q    Type
REMARK                         _______ _______ _______ _____ _____    ______ ____
ROOT
ATOM      1  C   UNL     1      48.046   7.416  14.050  0.00  0.00    +0.000 C 
ENDROOT
BRANCH   1   2
ATOM      2  C   UNL     1      47.036   6.688  13.200  0.00  0.00    +0.000 A 
ATOM      3  C   UNL     1      46.347   7.357  12.182  0.00  0.00    +0.000 A 
ATOM      4  C   UNL     1      45.424   6.678  11.381  0.00  0.00    +0.000 A 
ATOM      5  C   UNL     1      45.156   5.318  11.594  0.00  0.00    +0.000 A 
ATOM      6  C   UNL     1      45.802   4.667  12.657  0.00  0.00    +0.000 A 
ATOM      7  C   UNL     1      46.728   5.344  13.455  0.00  0.00    +0.000 A 
BRANCH   5   8
ATOM      8  C   UNL     1      44.239   4.554  10.661  0.00  0.00    +0.000 C 
BRANCH   8   9
ATOM      9  C   UNL     1      44.955   3.830   9.520  0.00  0.00    +0.000 A 
ATOM     10  N   UNL     1      45.572   4.564   8.570  0.00  0.00    +0.000 NA
ATOM     11  C   UNL     1      46.255   3.881   7.632  0.00  0.00    +0.000 A 
ATOM     12  C   UNL     1      46.342   2.509   7.601  0.00  0.00    +0.000 A 
ATOM     13  C   UNL     1      45.678   1.848   8.607  0.00  0.00    +0.000 A 
ATOM     14  N   UNL     1      44.985   2.474   9.578  0.00  0.00    +0.000 NA
ENDBRANCH   8   9
BRANCH   8  15
ATOM     15  O   UNL     1      43.282   5.505  10.150  0.00  0.00    +0.000 OA
ATOM     16  H   UNL     1      43.691   5.853   9.334  0.00  0.00    +0.000 HD
ENDBRANCH   8  15
ENDBRANCH   5   8
ENDBRANCH   1   2
BRANCH   1  19
ATOM     17  O   UNL     1      48.556   8.176  16.768  0.00  0.00    +0.000 OA
ATOM     18  C   UNL     1      48.776   7.040  16.376  0.00  0.00    +0.000 C 
ATOM     19  N   UNL     1      48.476   6.559  15.119  0.00  0.00    +0.000 N 
ATOM     20  H   UNL     1      48.884   5.687  14.833  0.00  0.00    +0.000 HD
BRANCH  18  21
ATOM     21  C   UNL     1      49.602   6.083  17.104  0.00  0.00    +0.000 A 
ATOM     22  C   UNL     1      50.820   6.418  17.673  0.00  0.00    +0.000 A 
ATOM     23  S   UNL     1      51.804   5.030  17.916  0.00  0.00    +0.000 S 
ATOM     24  C   UNL     1      50.559   3.985  17.398  0.00  0.00    +0.000 A 
ATOM     25  N   UNL     1      50.751   2.654  17.194  0.00  0.00    +0.000 NA
ATOM     26  C   UNL     1      49.682   2.011  16.850  0.00  0.00    +0.000 A 
ATOM     27  N   UNL     1      48.429   2.562  16.748  0.00  0.00    +0.000 N 
ATOM     28  C   UNL     1      48.181   3.898  16.966  0.00  0.00    +0.000 A 
ATOM     29  O   UNL     1      47.047   4.361  16.963  0.00  0.00    +0.000 OA
ATOM     30  C   UNL     1      49.380   4.672  17.210  0.00  0.00    +0.000 A 
ATOM     31  H   UNL     1      47.617   1.989  16.567  0.00  0.00    +0.000 HD
ENDBRANCH  18  21
ENDBRANCH   1  19
TORSDOF 6
ENDMDL
MODEL 2
REMARK VINA RESULT:    -7.892      1.554      1.682
REMARK INTER + INTRA:         -11.327
REMARK INTER:                 -10.423
REMARK INTRA:                  -0.904
REMARK UNBOUND:                -0.898
REMARK  Name = 
REMARK  6 active torsions:
REMARK  status: ('A' for Active; 'I' for Inactive)
REMARK    1  A    between atoms: C_2  and  C_19
REMARK    2  A    between atoms: N_3  and  C_4
REMARK    3  A    between atoms: C_4  and  C_5
REMARK    4  A    between atoms: C_8  and  C_9
REMARK    5  A    between atoms: C_9  and  O_10
REMARK    6  A    between atoms: C_9  and  C_11
REMARK                            x       y       z     vdW  Elec       q    Type
REMARK                         _______ _______ _______ _____ _____    ______ ____
ROOT
ATOM      1  C   UNL     1      47.691   8.689  13.399  0.00  0.00    +0.000 C 
ENDROOT
BRANCH   1   2
ATOM      2  C   UNL     1      46.796   7.719  12.670  0.00  0.00    +0.000 A 
ATOM      3  C   UNL     1      47.328   6.830  11.728  0.00  0.00    +0.000 A 
ATOM      4  C   UNL     1      46.502   5.917  11.064  0.00  0.00    +0.000 A 
ATOM      5  C   UNL     1      45.123   5.887  11.315  0.00  0.00    +0.000 A 
ATOM      6  C   UNL     1      44.584   6.823  12.215  0.00  0.00    +0.000 A 
ATOM      7  C   UNL     1      45.410   7.732  12.881  0.00  0.00    +0.000 A 
BRANCH   5   8
ATOM      8  C   UNL     1      44.243   4.829  10.680  0.00  0.00    +0.000 C 
BRANCH   8   9
ATOM      9  C   UNL     1      44.918   4.029   9.565  0.00  0.00    +0.000 A 
ATOM     10  N   UNL     1      45.488   4.697   8.540  0.00  0.00    +0.000 NA
ATOM     11  C   UNL     1      46.138   3.952   7.625  0.00  0.00    +0.000 A 
ATOM     12  C   UNL     1      46.236   2.582   7.689  0.00  0.00    +0.000 A 
ATOM     13  C   UNL     1      45.621   1.991   8.767  0.00  0.00    +0.000 A 
ATOM     14  N   UNL     1      44.964   2.681   9.719  0.00  0.00    +0.000 NA
ENDBRANCH   8   9
BRANCH   8  15
ATOM     15  O   UNL     1      43.067   5.505  10.193  0.00  0.00    +0.000 OA
ATOM     16  H   UNL     1      42.619   4.845   9.628  0.00  0.00    +0.000 HD
ENDBRANCH   8  15
ENDBRANCH   5   8
ENDBRANCH   1   2
BRANCH   1  19
ATOM     17  O   UNL     1      49.786   6.952  14.303  0.00  0.00    +0.000 OA
ATOM     18  C   UNL     1      48.896   7.318  15.057  0.00  0.00    +0.000 C 
ATOM     19  N   UNL     1      47.905   8.223  14.741  0.00  0.00    +0.000 N 
ATOM     20  H   UNL     1      47.111   8.294  15.353  0.00  0.00    +0.000 HD
BRANCH  18  21
ATOM     21  C   UNL     1      48.612   6.678  16.337  0.00  0.00    +0.000 A 
ATOM     22  C   UNL     1      48.941   7.250  17.555  0.00  0.00    +0.000 A 
ATOM     23  S   UNL     1      49.043   6.068  18.798  0.00  0.00    +0.000 S 
ATOM     24  C   UNL     1      48.517   4.832  17.747  0.00  0.00    +0.000 A 
ATOM     25  N   UNL     1      48.523   3.516  18.094  0.00  0.00    +0.000 NA
ATOM     26  C   UNL     1      48.042   2.728  17.188  0.00  0.00    +0.000 A 
ATOM     27  N   UNL     1      47.503   3.135  15.992  0.00  0.00    +0.000 N 
ATOM     28  C   UNL     1      47.454   4.455  15.607  0.00  0.00    +0.000 A 
ATOM     29  O   UNL     1      46.890   4.815  14.582  0.00  0.00    +0.000 OA
ATOM     30  C   UNL     1      48.116   5.348  16.535  0.00  0.00    +0.000 A 
ATOM     31  H   UNL     1      47.058   2.479  15.367  0.00  0.00    +0.000 HD
ENDBRANCH  18  21
ENDBRANCH   1  19
TORSDOF 6
ENDMDL
MODEL 3
REMARK VINA RESULT:    -7.653      2.783      4.534
REMARK INTER + INTRA:         -11.011
REMARK INTER:                 -10.056
REMARK INTRA:                  -0.955
REMARK UNBOUND:                -0.898
REMARK  Name = 
REMARK  6 active torsions:
REMARK  status: ('A' for Active; 'I' for Inactive)
REMARK    1  A    between atoms: C_2  and  C_19
REMARK    2  A    between atoms: N_3  and  C_4
REMARK    3  A    between atoms: C_4  and  C_5
REMARK    4  A    between atoms: C_8  and  C_9
REMARK    5  A    between atoms: C_9  and  O_10
REMARK    6  A    between atoms: C_9  and  C_11
REMARK                            x       y       z     vdW  Elec       q    Type
REMARK                         _______ _______ _______ _____ _____    ______ ____
ROOT
ATOM      1  C   UNL     1      46.752   5.178  14.448  0.00  0.00    +0.000 C 
ENDROOT
BRANCH   1   2
ATOM      2  C   UNL     1      46.115   4.769  13.144  0.00  0.00    +0.000 A 
ATOM      3  C   UNL     1      46.056   5.664  12.070  0.00  0.00    +0.000 A 
ATOM      4  C   UNL     1      45.482   5.280  10.853  0.00  0.00    +0.000 A 
ATOM      5  C   UNL     1      44.938   3.998  10.693  0.00  0.00    +0.000 A 
ATOM      6  C   UNL     1      44.944   3.125  11.793  0.00  0.00    +0.000 A 
ATOM      7  C   UNL     1      45.521   3.507  13.006  0.00  0.00    +0.000 A 
BRANCH   5   8
ATOM      8  C   UNL     1      44.414   3.542   9.345  0.00  0.00    +0.000 C 
BRANCH   8   9
ATOM      9  C   UNL     1      45.493   3.052   8.378  0.00  0.00    +0.000 A 
ATOM     10  N   UNL     1      45.933   1.780   8.487  0.00  0.00    +0.000 NA
ATOM     11  C   UNL     1      46.823   1.372   7.562  0.00  0.00    +0.000 A 
ATOM     12  C   UNL     1      47.291   2.174   6.549  0.00  0.00    +0.000 A 
ATOM     13  C   UNL     1      46.788   3.453   6.522  0.00  0.00    +0.000 A 
ATOM     14  N   UNL     1      45.890   3.918   7.412  0.00  0.00    +0.000 NA
ENDBRANCH   8   9
BRANCH   8  15
ATOM     15  O   UNL     1      43.685   4.654   8.787  0.00  0.00    +0.000 OA
ATOM     16  H   UNL     1      43.734   5.350   9.471  0.00  0.00    +0.000 HD
ENDBRANCH   8  15
ENDBRANCH   5   8
ENDBRANCH   1   2
BRANCH   1  19
ATOM     17  O   UNL     1      49.230   5.810  15.746  0.00  0.00    +0.000 OA
ATOM     18  C   UNL     1      48.698   6.597  14.977  0.00  0.00    +0.000 C 
ATOM     19  N   UNL     1      47.562   6.345  14.237  0.00  0.00    +0.000 N 
ATOM     20  H   UNL     1      47.094   7.120  13.803  0.00  0.00    +0.000 HD
BRANCH  18  21
ATOM     21  C   UNL     1      49.055   8.009  14.896  0.00  0.00    +0.000 A 
ATOM     22  C   UNL     1      49.239   8.805  16.015  0.00  0.00    +0.000 A 
ATOM     23  S   UNL     1      49.055  10.472  15.639  0.00  0.00    +0.000 S 
ATOM     24  C   UNL     1      48.871  10.136  13.977  0.00  0.00    +0.000 A 
ATOM     25  N   UNL     1      48.514  11.084  13.069  0.00  0.00    +0.000 NA
ATOM     26  C   UNL     1      48.473  10.658  11.847  0.00  0.00    +0.000 A 
ATOM     27  N   UNL     1      48.810   9.391  11.442  0.00  0.00    +0.000 N 
ATOM     28  C   UNL     1      49.199   8.405  12.320  0.00  0.00    +0.000 A 
ATOM     29  O   UNL     1      49.585   7.307  11.940  0.00  0.00    +0.000 OA
ATOM     30  C   UNL     1      49.115   8.808  13.708  0.00  0.00    +0.000 A 
ATOM     31  H   UNL     1      48.847   9.146  10.463  0.00  0.00    +0.000 HD
ENDBRANCH  18  21
ENDBRANCH   1  19
TORSDOF 6
ENDMDL
MODEL 4
REMARK VINA RESULT:    -7.285      2.190      2.996
REMARK INTER + INTRA:         -10.525
REMARK INTER:                  -9.658
REMARK INTRA:                  -0.866
REMARK UNBOUND:                -0.898
REMARK  Name = 
REMARK  6 active torsions:
REMARK  status: ('A' for Active; 'I' for Inactive)
REMARK    1  A    between atoms: C_2  and  C_19
REMARK    2  A    between atoms: N_3  and  C_4
REMARK    3  A    between atoms: C_4  and  C_5
REMARK    4  A    between atoms: C_8  and  C_9
REMARK    5  A    between atoms: C_9  and  O_10
REMARK    6  A    between atoms: C_9  and  C_11
REMARK                            x       y       z     vdW  Elec       q    Type
REMARK                         _______ _______ _______ _____ _____    ______ ____
ROOT
ATOM      1  C   UNL     1      47.909   8.191  13.844  0.00  0.00    +0.000 C 
ENDROOT
BRANCH   1   2
ATOM      2  C   UNL     1      47.004   7.319  13.011  0.00  0.00    +0.000 A 
ATOM      3  C   UNL     1      47.188   5.932  12.975  0.00  0.00    +0.000 A 
ATOM      4  C   UNL     1      46.338   5.120  12.218  0.00  0.00    +0.000 A 
ATOM      5  C   UNL     1      45.296   5.682  11.464  0.00  0.00    +0.000 A 
ATOM      6  C   UNL     1      45.155   7.079  11.454  0.00  0.00    +0.000 A 
ATOM      7  C   UNL     1      46.002   7.890  12.214  0.00  0.00    +0.000 A 
BRANCH   5   8
ATOM      8  C   UNL     1      44.308   4.798  10.730  0.00  0.00    +0.000 C 
BRANCH   8   9
ATOM      9  C   UNL     1      44.918   3.963   9.604  0.00  0.00    +0.000 A 
ATOM     10  N   UNL     1      45.523   4.600   8.578  0.00  0.00    +0.000 NA
ATOM     11  C   UNL     1      46.114   3.820   7.653  0.00  0.00    +0.000 A 
ATOM     12  C   UNL     1      46.121   2.446   7.706  0.00  0.00    +0.000 A 
ATOM     13  C   UNL     1      45.477   1.889   8.784  0.00  0.00    +0.000 A 
ATOM     14  N   UNL     1      44.875   2.614   9.747  0.00  0.00    +0.000 NA
ENDBRANCH   8   9
BRANCH   8  15
ATOM     15  O   UNL     1      43.270   5.664  10.229  0.00  0.00    +0.000 OA
ATOM     16  H   UNL     1      42.895   5.183   9.465  0.00  0.00    +0.000 HD
ENDBRANCH   8  15
ENDBRANCH   5   8
ENDBRANCH   1   2
BRANCH   1  19
ATOM     17  O   UNL     1      50.169   6.888  15.034  0.00  0.00    +0.000 OA
ATOM     18  C   UNL     1      49.102   6.970  15.624  0.00  0.00    +0.000 C 
ATOM     19  N   UNL     1      47.993   7.656  15.174  0.00  0.00    +0.000 N 
ATOM     20  H   UNL     1      47.112   7.488  15.627  0.00  0.00    +0.000 HD
BRANCH  18  21
ATOM     21  C   UNL     1      48.761   6.161  16.789  0.00  0.00    +0.000 A 
ATOM     22  C   UNL     1      48.274   4.868  16.693  0.00  0.00    +0.000 A 
ATOM     23  S   UNL     1      47.426   4.407  18.115  0.00  0.00    +0.000 S 
ATOM     24  C   UNL     1      47.829   5.868  18.899  0.00  0.00    +0.000 A 
ATOM     25  N   UNL     1      47.300   6.231  20.098  0.00  0.00    +0.000 NA
ATOM     26  C   UNL     1      47.760   7.348  20.563  0.00  0.00    +0.000 A 
ATOM     27  N   UNL     1      48.739   8.106  19.970  0.00  0.00    +0.000 N 
ATOM     28  C   UNL     1      49.319   7.768  18.769  0.00  0.00    +0.000 A 
ATOM     29  O   UNL     1      50.255   8.401  18.295  0.00  0.00    +0.000 OA
ATOM     30  C   UNL     1      48.724   6.601  18.152  0.00  0.00    +0.000 A 
ATOM     31  H   UNL     1      49.122   8.920  20.429  0.00  0.00    +0.000 HD
ENDBRANCH  18  21
ENDBRANCH   1  19
TORSDOF 6
ENDMDL
MODEL 5
REMARK VINA RESULT:    -6.975      2.622      3.256
REMARK INTER + INTRA:         -10.115
REMARK INTER:                  -9.124
REMARK INTRA:                  -0.992
REMARK UNBOUND:                -0.898
REMARK  Name = 
REMARK  6 active torsions:
REMARK  status: ('A' for Active; 'I' for Inactive)
REMARK    1  A    between atoms: C_2  and  C_19
REMARK    2  A    between atoms: N_3  and  C_4
REMARK    3  A    between atoms: C_4  and  C_5
REMARK    4  A    between atoms: C_8  and  C_9
REMARK    5  A    between atoms: C_9  and  O_10
REMARK    6  A    between atoms: C_9  and  C_11
REMARK                            x       y       z     vdW  Elec       q    Type
REMARK                         _______ _______ _______ _____ _____    ______ ____
ROOT
ATOM      1  C   UNL     1      48.816   7.138  14.647  0.00  0.00    +0.000 C 
ENDROOT
BRANCH   1   2
ATOM      2  C   UNL     1      47.727   6.625  13.739  0.00  0.00    +0.000 A 
ATOM      3  C   UNL     1      47.233   5.324  13.885  0.00  0.00    +0.000 A 
ATOM      4  C   UNL     1      46.210   4.853  13.056  0.00  0.00    +0.000 A 
ATOM      5  C   UNL     1      45.672   5.669  12.050  0.00  0.00    +0.000 A 
ATOM      6  C   UNL     1      46.214   6.952  11.866  0.00  0.00    +0.000 A 
ATOM      7  C   UNL     1      47.233   7.423  12.697  0.00  0.00    +0.000 A 
BRANCH   5   8
ATOM      8  C   UNL     1      44.492   5.201  11.223  0.00  0.00    +0.000 C 
BRANCH   8   9
ATOM      9  C   UNL     1      44.853   4.248  10.082  0.00  0.00    +0.000 A 
ATOM     10  N   UNL     1      44.506   2.948  10.189  0.00  0.00    +0.000 NA
ATOM     11  C   UNL     1      44.774   2.166   9.126  0.00  0.00    +0.000 A 
ATOM     12  C   UNL     1      45.373   2.623   7.976  0.00  0.00    +0.000 A 
ATOM     13  C   UNL     1      45.693   3.959   7.963  0.00  0.00    +0.000 A 
ATOM     14  N   UNL     1      45.442   4.795   8.989  0.00  0.00    +0.000 NA
ENDBRANCH   8   9
BRANCH   8  15
ATOM     15  O   UNL     1      43.842   6.387  10.720  0.00  0.00    +0.000 OA
ATOM     16  H   UNL     1      44.519   6.822  10.165  0.00  0.00    +0.000 HD
ENDBRANCH   8  15
ENDBRANCH   5   8
ENDBRANCH   1   2
BRANCH   1  19
ATOM     17  O   UNL     1      50.193   8.277  16.890  0.00  0.00    +0.000 OA
ATOM     18  C   UNL     1      48.973   8.213  16.861  0.00  0.00    +0.000 C 
ATOM     19  N   UNL     1      48.223   7.772  15.791  0.00  0.00    +0.000 N 
ATOM     20  H   UNL     1      47.252   7.562  15.944  0.00  0.00    +0.000 HD
BRANCH  18  21
ATOM     21  C   UNL     1      48.130   8.378  18.040  0.00  0.00    +0.000 A 
ATOM     22  C   UNL     1      47.731   9.618  18.514  0.00  0.00    +0.000 A 
ATOM     23  S   UNL     1      47.286   9.544  20.172  0.00  0.00    +0.000 S 
ATOM     24  C   UNL     1      47.491   7.851  20.212  0.00  0.00    +0.000 A 
ATOM     25  N   UNL     1      47.437   7.129  21.364  0.00  0.00    +0.000 NA
ATOM     26  C   UNL     1      47.564   5.852  21.195  0.00  0.00    +0.000 A 
ATOM     27  N   UNL     1      47.683   5.225  19.979  0.00  0.00    +0.000 N 
ATOM     28  C   UNL     1      47.720   5.911  18.787  0.00  0.00    +0.000 A 
ATOM     29  O   UNL     1      47.734   5.338  17.705  0.00  0.00    +0.000 OA
ATOM     30  C   UNL     1      47.726   7.349  18.952  0.00  0.00    +0.000 A 
ATOM     31  H   UNL     1      47.685   4.219  19.907  0.00  0.00    +0.000 HD
ENDBRANCH  18  21
ENDBRANCH   1  19
TORSDOF 6
ENDMDL
MODEL 6
REMARK VINA RESULT:    -6.721      3.251      9.266
REMARK INTER + INTRA:          -9.780
REMARK INTER:                  -8.932
REMARK INTRA:                  -0.848
REMARK UNBOUND:                -0.898
REMARK  Name = 
REMARK  6 active torsions:
REMARK  status: ('A' for Active; 'I' for Inactive)
REMARK    1  A    between atoms: C_2  and  C_19
REMARK    2  A    between atoms: N_3  and  C_4
REMARK    3  A    between atoms: C_4  and  C_5
REMARK    4  A    between atoms: C_8  and  C_9
REMARK    5  A    between atoms: C_9  and  O_10
REMARK    6  A    between atoms: C_9  and  C_11
REMARK                            x       y       z     vdW  Elec       q    Type
REMARK                         _______ _______ _______ _____ _____    ______ ____
ROOT
ATOM      1  C   UNL     1      47.129   3.845  17.096  0.00  0.00    +0.000 C 
ENDROOT
BRANCH   1   2
ATOM      2  C   UNL     1      48.626   3.922  17.259  0.00  0.00    +0.000 A 
ATOM      3  C   UNL     1      49.280   5.160  17.251  0.00  0.00    +0.000 A 
ATOM      4  C   UNL     1      50.666   5.234  17.420  0.00  0.00    +0.000 A 
ATOM      5  C   UNL     1      51.430   4.070  17.582  0.00  0.00    +0.000 A 
ATOM      6  C   UNL     1      50.778   2.827  17.527  0.00  0.00    +0.000 A 
ATOM      7  C   UNL     1      49.393   2.753  17.362  0.00  0.00    +0.000 A 
BRANCH   5   8
ATOM      8  C   UNL     1      52.915   4.153  17.875  0.00  0.00    +0.000 C 
BRANCH   8   9
ATOM      9  C   UNL     1      53.300   3.801  19.312  0.00  0.00    +0.000 A 
ATOM     10  N   UNL     1      54.306   2.924  19.519  0.00  0.00    +0.000 NA
ATOM     11  C   UNL     1      54.660   2.709  20.800  0.00  0.00    +0.000 A 
ATOM     12  C   UNL     1      54.054   3.322  21.872  0.00  0.00    +0.000 A 
ATOM     13  C   UNL     1      53.039   4.194  21.562  0.00  0.00    +0.000 A 
ATOM     14  N   UNL     1      52.644   4.459  20.302  0.00  0.00    +0.000 NA
ENDBRANCH   8   9
BRANCH   8  15
ATOM     15  O   UNL     1      53.329   5.493  17.541  0.00  0.00    +0.000 OA
ATOM     16  H   UNL     1      54.031   5.703  18.188  0.00  0.00    +0.000 HD
ENDBRANCH   8  15
ENDBRANCH   5   8
ENDBRANCH   1   2
BRANCH   1  19
ATOM     17  O   UNL     1      47.495   2.971  14.389  0.00  0.00    +0.000 OA
ATOM     18  C   UNL     1      47.042   4.077  14.643  0.00  0.00    +0.000 C 
ATOM     19  N   UNL     1      46.743   4.546  15.904  0.00  0.00    +0.000 N 
ATOM     20  H   UNL     1      46.576   5.530  16.020  0.00  0.00    +0.000 HD
BRANCH  18  21
ATOM     21  C   UNL     1      46.961   5.157  13.665  0.00  0.00    +0.000 A 
ATOM     22  C   UNL     1      47.794   6.264  13.694  0.00  0.00    +0.000 A 
ATOM     23  S   UNL     1      47.107   7.591  12.846  0.00  0.00    +0.000 S 
ATOM     24  C   UNL     1      45.781   6.650  12.330  0.00  0.00    +0.000 A 
ATOM     25  N   UNL     1      44.703   7.182  11.693  0.00  0.00    +0.000 NA
ATOM     26  C   UNL     1      43.817   6.310  11.333  0.00  0.00    +0.000 A 
ATOM     27  N   UNL     1      43.934   4.952  11.498  0.00  0.00    +0.000 N 
ATOM     28  C   UNL     1      45.015   4.366  12.115  0.00  0.00    +0.000 A 
ATOM     29  O   UNL     1      45.153   3.151  12.175  0.00  0.00    +0.000 OA
ATOM     30  C   UNL     1      45.954   5.324  12.659  0.00  0.00    +0.000 A 
ATOM     31  H   UNL     1      43.252   4.317  11.111  0.00  0.00    +0.000 HD
ENDBRANCH  18  21
ENDBRANCH   1  19
TORSDOF 6
ENDMDL
MODEL 7
REMARK VINA RESULT:    -6.563      4.094      9.308
REMARK INTER + INTRA:          -9.570
REMARK INTER:                  -8.839
REMARK INTRA:                  -0.731
REMARK UNBOUND:                -0.898
REMARK  Name = 
REMARK  6 active torsions:
REMARK  status: ('A' for Active; 'I' for Inactive)
REMARK    1  A    between atoms: C_2  and  C_19
REMARK    2  A    between atoms: N_3  and  C_4
REMARK    3  A    between atoms: C_4  and  C_5
REMARK    4  A    between atoms: C_8  and  C_9
REMARK    5  A    between atoms: C_9  and  O_10
REMARK    6  A    between atoms: C_9  and  C_11
REMARK                            x       y       z     vdW  Elec       q    Type
REMARK                         _______ _______ _______ _____ _____    ______ ____
ROOT
ATOM      1  C   UNL     1      47.352   4.162  16.665  0.00  0.00    +0.000 C 
ENDROOT
BRANCH   1   2
ATOM      2  C   UNL     1      47.723   5.341  17.529  0.00  0.00    +0.000 A 
ATOM      3  C   UNL     1      48.844   6.122  17.223  0.00  0.00    +0.000 A 
ATOM      4  C   UNL     1      49.179   7.227  18.012  0.00  0.00    +0.000 A 
ATOM      5  C   UNL     1      48.410   7.563  19.136  0.00  0.00    +0.000 A 
ATOM      6  C   UNL     1      47.323   6.740  19.474  0.00  0.00    +0.000 A 
ATOM      7  C   UNL     1      46.986   5.639  18.684  0.00  0.00    +0.000 A 
BRANCH   5   8
ATOM      8  C   UNL     1      48.705   8.821  19.928  0.00  0.00    +0.000 C 
BRANCH   8   9
ATOM      9  C   UNL     1      47.470   9.506  20.515  0.00  0.00    +0.000 A 
ATOM     10  N   UNL     1      47.108   9.216  21.783  0.00  0.00    +0.000 NA
ATOM     11  C   UNL     1      46.063   9.904  22.281  0.00  0.00    +0.000 A 
ATOM     12  C   UNL     1      45.369  10.855  21.571  0.00  0.00    +0.000 A 
ATOM     13  C   UNL     1      45.809  11.078  20.288  0.00  0.00    +0.000 A 
ATOM     14  N   UNL     1      46.853  10.430  19.736  0.00  0.00    +0.000 NA
ENDBRANCH   8   9
BRANCH   8  15
ATOM     15  O   UNL     1      49.419   9.709  19.045  0.00  0.00    +0.000 OA
ATOM     16  H   UNL     1      49.004   9.574  18.171  0.00  0.00    +0.000 HD
ENDBRANCH   8  15
ENDBRANCH   5   8
ENDBRANCH   1   2
BRANCH   1  19
ATOM     17  O   UNL     1      47.382   3.028  14.031  0.00  0.00    +0.000 OA
ATOM     18  C   UNL     1      46.767   4.057  14.272  0.00  0.00    +0.000 C 
ATOM     19  N   UNL     1      46.617   4.623  15.521  0.00  0.00    +0.000 N 
ATOM     20  H   UNL     1      46.278   5.566  15.579  0.00  0.00    +0.000 HD
BRANCH  18  21
ATOM     21  C   UNL     1      46.289   4.970  13.239  0.00  0.00    +0.000 A 
ATOM     22  C   UNL     1      46.938   6.151  12.917  0.00  0.00    +0.000 A 
ATOM     23  S   UNL     1      45.878   7.261  12.145  0.00  0.00    +0.000 S 
ATOM     24  C   UNL     1      44.610   6.119  12.116  0.00  0.00    +0.000 A 
ATOM     25  N   UNL     1      43.341   6.437  11.739  0.00  0.00    +0.000 NA
ATOM     26  C   UNL     1      42.525   5.432  11.732  0.00  0.00    +0.000 A 
ATOM     27  N   UNL     1      42.870   4.133  12.009  0.00  0.00    +0.000 N 
ATOM     28  C   UNL     1      44.144   3.761  12.372  0.00  0.00    +0.000 A 
ATOM     29  O   UNL     1      44.462   2.588  12.527  0.00  0.00    +0.000 OA
ATOM     30  C   UNL     1      45.046   4.882  12.531  0.00  0.00    +0.000 A 
ATOM     31  H   UNL     1      42.208   3.379  11.895  0.00  0.00    +0.000 HD
ENDBRANCH  18  21
ENDBRANCH   1  19
TORSDOF 6
ENDMDL
MODEL 8
REMARK VINA RESULT:    -6.386      2.183      3.765
REMARK INTER + INTRA:          -9.338
REMARK INTER:                  -8.938
REMARK INTRA:                  -0.399
REMARK UNBOUND:                -0.898
REMARK  Name = 
REMARK  6 active torsions:
REMARK  status: ('A' for Active; 'I' for Inactive)
REMARK    1  A    between atoms: C_2  and  C_19
REMARK    2  A    between atoms: N_3  and  C_4
REMARK    3  A    between atoms: C_4  and  C_5
REMARK    4  A    between atoms: C_8  and  C_9
REMARK    5  A    between atoms: C_9  and  O_10
REMARK    6  A    between atoms: C_9  and  C_11
REMARK                            x       y       z     vdW  Elec       q    Type
REMARK                         _______ _______ _______ _____ _____    ______ ____
ROOT
ATOM      1  C   UNL     1      47.385   4.114  15.431  0.00  0.00    +0.000 C 
ENDROOT
BRANCH   1   2
ATOM      2  C   UNL     1      46.668   4.327  14.121  0.00  0.00    +0.000 A 
ATOM      3  C   UNL     1      46.484   5.617  13.613  0.00  0.00    +0.000 A 
ATOM      4  C   UNL     1      45.835   5.815  12.389  0.00  0.00    +0.000 A 
ATOM      5  C   UNL     1      45.340   4.725  11.658  0.00  0.00    +0.000 A 
ATOM      6  C   UNL     1      45.472   3.437  12.203  0.00  0.00    +0.000 A 
ATOM      7  C   UNL     1      46.124   3.240  13.423  0.00  0.00    +0.000 A 
BRANCH   5   8
ATOM      8  C   UNL     1      44.735   4.926  10.284  0.00  0.00    +0.000 C 
BRANCH   8   9
ATOM      9  C   UNL     1      45.346   4.054   9.186  0.00  0.00    +0.000 A 
ATOM     10  N   UNL     1      46.009   4.653   8.174  0.00  0.00    +0.000 NA
ATOM     11  C   UNL     1      46.597   3.839   7.277  0.00  0.00    +0.000 A 
ATOM     12  C   UNL     1      46.547   2.467   7.346  0.00  0.00    +0.000 A 
ATOM     13  C   UNL     1      45.846   1.950   8.409  0.00  0.00    +0.000 A 
ATOM     14  N   UNL     1      45.244   2.710   9.344  0.00  0.00    +0.000 NA
ENDBRANCH   8   9
BRANCH   8  15
ATOM     15  O   UNL     1      44.875   6.327   9.969  0.00  0.00    +0.000 OA
ATOM     16  H   UNL     1      44.990   6.764  10.836  0.00  0.00    +0.000 HD
ENDBRANCH   8  15
ENDBRANCH   5   8
ENDBRANCH   1   2
BRANCH   1  19
ATOM     17  O   UNL     1      49.852   4.899  16.665  0.00  0.00    +0.000 OA
ATOM     18  C   UNL     1      48.879   5.638  16.668  0.00  0.00    +0.000 C 
ATOM     19  N   UNL     1      47.686   5.388  16.021  0.00  0.00    +0.000 N 
ATOM     20  H   UNL     1      46.889   5.952  16.257  0.00  0.00    +0.000 HD
BRANCH  18  21
ATOM     21  C   UNL     1      48.748   6.795  17.547  0.00  0.00    +0.000 A 
ATOM     22  C   UNL     1      48.112   6.740  18.776  0.00  0.00    +0.000 A 
ATOM     23  S   UNL     1      47.595   8.297  19.287  0.00  0.00    +0.000 S 
ATOM     24  C   UNL     1      48.338   9.048  17.947  0.00  0.00    +0.000 A 
ATOM     25  N   UNL     1      48.165  10.364  17.650  0.00  0.00    +0.000 NA
ATOM     26  C   UNL     1      48.846  10.770  16.627  0.00  0.00    +0.000 A 
ATOM     27  N   UNL     1      49.727   9.999  15.910  0.00  0.00    +0.000 N 
ATOM     28  C   UNL     1      49.952   8.670  16.186  0.00  0.00    +0.000 A 
ATOM     29  O   UNL     1      50.806   8.017  15.600  0.00  0.00    +0.000 OA
ATOM     30  C   UNL     1      49.097   8.149  17.232  0.00  0.00    +0.000 A 
ATOM     31  H   UNL     1      50.299  10.398  15.180  0.00  0.00    +0.000 HD
ENDBRANCH  18  21
ENDBRANCH   1  19
TORSDOF 6
ENDMDL
MODEL 9
REMARK VINA RESULT:    -6.376      3.648      4.745
REMARK INTER + INTRA:          -9.323
REMARK INTER:                  -8.435
REMARK INTRA:                  -0.888
REMARK UNBOUND:                -0.898
REMARK  Name = 
REMARK  6 active torsions:
REMARK  status: ('A' for Active; 'I' for Inactive)
REMARK    1  A    between atoms: C_2  and  C_19
REMARK    2  A    between atoms: N_3  and  C_4
REMARK    3  A    between atoms: C_4  and  C_5
REMARK    4  A    between atoms: C_8  and  C_9
REMARK    5  A    between atoms: C_9  and  O_10
REMARK    6  A    between atoms: C_9  and  C_11
REMARK                            x       y       z     vdW  Elec       q    Type
REMARK                         _______ _______ _______ _____ _____    ______ ____
ROOT
ATOM      1  C   UNL     1      48.704   6.812  14.717  0.00  0.00    +0.000 C 
ENDROOT
BRANCH   1   2
ATOM      2  C   UNL     1      47.687   6.305  13.726  0.00  0.00    +0.000 A 
ATOM      3  C   UNL     1      47.041   5.080  13.933  0.00  0.00    +0.000 A 
ATOM      4  C   UNL     1      46.084   4.618  13.025  0.00  0.00    +0.000 A 
ATOM      5  C   UNL     1      45.766   5.362  11.879  0.00  0.00    +0.000 A 
ATOM      6  C   UNL     1      46.461   6.560  11.644  0.00  0.00    +0.000 A 
ATOM      7  C   UNL     1      47.415   7.024  12.554  0.00  0.00    +0.000 A 
BRANCH   5   8
ATOM      8  C   UNL     1      44.653   4.918  10.952  0.00  0.00    +0.000 C 
BRANCH   8   9
ATOM      9  C   UNL     1      45.118   4.089   9.754  0.00  0.00    +0.000 A 
ATOM     10  N   UNL     1      45.663   4.726   8.695  0.00  0.00    +0.000 NA
ATOM     11  C   UNL     1      46.130   3.947   7.701  0.00  0.00    +0.000 A 
ATOM     12  C   UNL     1      46.070   2.573   7.717  0.00  0.00    +0.000 A 
ATOM     13  C   UNL     1      45.495   2.016   8.834  0.00  0.00    +0.000 A 
ATOM     14  N   UNL     1      45.018   2.740   9.865  0.00  0.00    +0.000 NA
ENDBRANCH   8   9
BRANCH   8  15
ATOM     15  O   UNL     1      43.971   6.113  10.520  0.00  0.00    +0.000 OA
ATOM     16  H   UNL     1      44.050   6.729  11.275  0.00  0.00    +0.000 HD
ENDBRANCH   8  15
ENDBRANCH   5   8
ENDBRANCH   1   2
BRANCH   1  19
ATOM     17  O   UNL     1      50.053   9.324  15.023  0.00  0.00    +0.000 OA
ATOM     18  C   UNL     1      50.399   8.518  14.172  0.00  0.00    +0.000 C 
ATOM     19  N   UNL     1      49.876   7.252  14.012  0.00  0.00    +0.000 N 
ATOM     20  H   UNL     1      50.079   6.756  13.163  0.00  0.00    +0.000 HD
BRANCH  18  21
ATOM     21  C   UNL     1      51.263   8.857  13.046  0.00  0.00    +0.000 A 
ATOM     22  C   UNL     1      50.816   9.556  11.936  0.00  0.00    +0.000 A 
ATOM     23  S   UNL     1      51.829   9.290  10.574  0.00  0.00    +0.000 S 
ATOM     24  C   UNL     1      52.927   8.366  11.498  0.00  0.00    +0.000 A 
ATOM     25  N   UNL     1      53.960   7.677  10.943  0.00  0.00    +0.000 NA
ATOM     26  C   UNL     1      54.717   7.075  11.802  0.00  0.00    +0.000 A 
ATOM     27  N   UNL     1      54.572   7.143  13.166  0.00  0.00    +0.000 N 
ATOM     28  C   UNL     1      53.556   7.844  13.774  0.00  0.00    +0.000 A 
ATOM     29  O   UNL     1      53.490   7.974  14.990  0.00  0.00    +0.000 OA
ATOM     30  C   UNL     1      52.608   8.409  12.837  0.00  0.00    +0.000 A 
ATOM     31  H   UNL     1      55.251   6.727  13.786  0.00  0.00    +0.000 HD
ENDBRANCH  18  21
ENDBRANCH   1  19
TORSDOF 6
ENDMDL
