MODEL 1
REMARK VINA RESULT:    -7.145      0.000      0.000
REMARK INTER + INTRA:         -10.673
REMARK INTER:                 -10.486
REMARK INTRA:                  -0.187
REMARK UNBOUND:                -0.187
REMARK  Name = 
REMARK  13 active torsions:
REMARK  status: ('A' for Active; 'I' for Inactive)
REMARK    1  A    between atoms: C_1  and  O_2
REMARK    2  A    between atoms: O_2  and  C_3
REMARK    3  A    between atoms: C_5  and  C_6
REMARK    4  A    between atoms: C_6  and  C_7
REMARK    5  A    between atoms: C_6  and  C_8
REMARK    6  A    between atoms: C_8  and  N_9
REMARK    7  A    between atoms: N_9  and  C_10
REMARK    8  A    between atoms: C_13  and  C_14
REMARK    9  A    between atoms: N_16  and  C_17
REMARK   10  A    between atoms: N_16  and  C_18
REMARK   11  A    between atoms: C_24  and  O_25
REMARK   12  A    between atoms: O_25  and  C_26
REMARK   13  A    between atoms: N_28  and  C_29
REMARK                            x       y       z     vdW  Elec       q    Type
REMARK                         _______ _______ _______ _____ _____    ______ ____
ROOT
ATOM      1  C   UNL     1      43.722   4.529  13.305  0.00  0.00    +0.000 C 
ATOM      2  C   UNL     1      42.782   5.519  12.594  0.00  0.00    +0.000 C 
ENDROOT
BRANCH   1   5
ATOM      3  C   UNL     1      47.371   5.158  14.343  0.00  0.00    +0.000 A 
ATOM      4  C   UNL     1      46.050   4.676  14.307  0.00  0.00    +0.000 A 
ATOM      5  C   UNL     1      45.156   5.055  13.289  0.00  0.00    +0.000 A 
ATOM      6  C   UNL     1      45.638   5.918  12.298  0.00  0.00    +0.000 A 
ATOM      7  C   UNL     1      46.947   6.388  12.319  0.00  0.00    +0.000 A 
ATOM      8  F   UNL     1      47.315   7.215  11.330  0.00  0.00    +0.000 F 
ATOM      9  C   UNL     1      47.831   6.022  13.335  0.00  0.00    +0.000 A 
BRANCH   3  11
ATOM     10  C   UNL     1      47.706   4.611  16.634  0.00  0.00    +0.000 C 
ATOM     11  O   UNL     1      48.261   4.867  15.350  0.00  0.00    +0.000 OA
ENDBRANCH   3  11
BRANCH   9  12
ATOM     12  O   UNL     1      49.128   6.473  13.430  0.00  0.00    +0.000 OA
BRANCH  12  13
ATOM     13  C   UNL     1      49.363   7.855  13.788  0.00  0.00    +0.000 C 
ATOM     14  C   UNL     1      50.374   8.655  12.935  0.00  0.00    +0.000 C 
ATOM     15  N   UNL     1      51.090   9.081  14.154  0.00  0.00    +0.000 NA
ATOM     16  C   UNL     1      50.698  10.439  14.531  0.00  0.00    +0.000 C 
ATOM     17  C   UNL     1      50.351   8.083  14.952  0.00  0.00    +0.000 C 
ENDBRANCH  12  13
ENDBRANCH   9  12
ENDBRANCH   1   5
BRANCH   1  18
ATOM     18  C   UNL     1      43.510   3.139  12.656  0.00  0.00    +0.000 C 
BRANCH  18  19
ATOM     19  N   UNL     1      43.010   3.246  11.281  0.00  0.00    +0.000 N 
ATOM     20  H   UNL     1      42.258   3.923  11.169  0.00  0.00    +0.000 HD
BRANCH  19  21
ATOM     21  C   UNL     1      43.932   3.249  10.236  0.00  0.00    +0.000 A 
ATOM     22  C   UNL     1      44.531   2.123   9.696  0.00  0.00    +0.000 A 
ATOM     23  N   UNL     1      45.377   2.120   8.649  0.00  0.00    +0.000 NA
ATOM     24  C   UNL     1      45.609   3.312   8.065  0.00  0.00    +0.000 A 
ATOM     25  N   UNL     1      45.044   4.474   8.446  0.00  0.00    +0.000 NA
ATOM     26  C   UNL     1      44.219   4.402   9.515  0.00  0.00    +0.000 A 
BRANCH  24  27
ATOM     27  C   UNL     1      46.502   3.278   6.844  0.00  0.00    +0.000 C 
ATOM     28  O   UNL     1      46.518   4.281   6.123  0.00  0.00    +0.000 OA
ATOM     29  N   UNL     1      47.279   2.149   6.519  0.00  0.00    +0.000 N 
ATOM     30  C   UNL     1      47.246   0.853   7.177  0.00  0.00    +0.000 C 
ATOM     31  C   UNL     1      48.134   2.228   5.344  0.00  0.00    +0.000 C 
ENDBRANCH  24  27
ENDBRANCH  19  21
ENDBRANCH  18  19
ENDBRANCH   1  18
TORSDOF 8
ENDMDL
MODEL 2
REMARK VINA RESULT:    -6.761      3.765      8.548
REMARK INTER + INTRA:         -10.111
REMARK INTER:                  -9.714
REMARK INTRA:                  -0.397
REMARK UNBOUND:                -0.187
REMARK  Name = 
REMARK  13 active torsions:
REMARK  status: ('A' for Active; 'I' for Inactive)
REMARK    1  A    between atoms: C_1  and  O_2
REMARK    2  A    between atoms: O_2  and  C_3
REMARK    3  A    between atoms: C_5  and  C_6
REMARK    4  A    between atoms: C_6  and  C_7
REMARK    5  A    between atoms: C_6  and  C_8
REMARK    6  A    between atoms: C_8  and  N_9
REMARK    7  A    between atoms: N_9  and  C_10
REMARK    8  A    between atoms: C_13  and  C_14
REMARK    9  A    between atoms: N_16  and  C_17
REMARK   10  A    between atoms: N_16  and  C_18
REMARK   11  A    between atoms: C_24  and  O_25
REMARK   12  A    between atoms: O_25  and  C_26
REMARK   13  A    between atoms: N_28  and  C_29
REMARK                            x       y       z     vdW  Elec       q    Type
REMARK                         _______ _______ _______ _____ _____    ______ ____
ROOT
ATOM      1  C   UNL     1      48.975   7.048  14.344  0.00  0.00    +0.000 C 
ATOM      2  C   UNL     1      49.687   8.079  13.451  0.00  0.00    +0.000 C 
ENDROOT
BRANCH   1   5
ATOM      3  C   UNL     1      45.620   7.154  12.468  0.00  0.00    +0.000 A 
ATOM      4  C   UNL     1      46.838   7.530  13.060  0.00  0.00    +0.000 A 
ATOM      5  C   UNL     1      47.673   6.589  13.689  0.00  0.00    +0.000 A 
ATOM      6  C   UNL     1      47.254   5.254  13.686  0.00  0.00    +0.000 A 
ATOM      7  C   UNL     1      46.056   4.870  13.089  0.00  0.00    +0.000 A 
ATOM      8  F   UNL     1      45.736   3.570  13.142  0.00  0.00    +0.000 F 
ATOM      9  C   UNL     1      45.222   5.806  12.477  0.00  0.00    +0.000 A 
BRANCH   3  11
ATOM     10  C   UNL     1      45.101   9.420  11.960  0.00  0.00    +0.000 C 
ATOM     11  O   UNL     1      44.741   8.045  11.899  0.00  0.00    +0.000 OA
ENDBRANCH   3  11
BRANCH   9  12
ATOM     12  O   UNL     1      44.013   5.498  11.895  0.00  0.00    +0.000 OA
BRANCH  12  13
ATOM     13  C   UNL     1      43.999   4.983  10.542  0.00  0.00    +0.000 C 
ATOM     14  C   UNL     1      44.034   3.449  10.359  0.00  0.00    +0.000 C 
ATOM     15  N   UNL     1      45.166   3.572   9.418  0.00  0.00    +0.000 NA
ATOM     16  C   UNL     1      44.694   3.486   8.036  0.00  0.00    +0.000 C 
ATOM     17  C   UNL     1      45.361   4.979   9.817  0.00  0.00    +0.000 C 
ENDBRANCH  12  13
ENDBRANCH   9  12
ENDBRANCH   1   5
BRANCH   1  18
ATOM     18  C   UNL     1      48.832   7.672  15.754  0.00  0.00    +0.000 C 
BRANCH  18  19
ATOM     19  N   UNL     1      48.331   6.703  16.735  0.00  0.00    +0.000 N 
ATOM     20  H   UNL     1      47.332   6.526  16.663  0.00  0.00    +0.000 HD
BRANCH  19  21
ATOM     21  C   UNL     1      49.090   5.562  16.990  0.00  0.00    +0.000 A 
ATOM     22  C   UNL     1      48.598   4.268  17.023  0.00  0.00    +0.000 A 
ATOM     23  N   UNL     1      49.340   3.160  17.213  0.00  0.00    +0.000 NA
ATOM     24  C   UNL     1      50.669   3.344  17.329  0.00  0.00    +0.000 A 
ATOM     25  N   UNL     1      51.287   4.539  17.251  0.00  0.00    +0.000 NA
ATOM     26  C   UNL     1      50.475   5.608  17.077  0.00  0.00    +0.000 A 
BRANCH  24  27
ATOM     27  C   UNL     1      51.494   2.083  17.466  0.00  0.00    +0.000 C 
ATOM     28  O   UNL     1      51.040   1.050  16.963  0.00  0.00    +0.000 OA
ATOM     29  N   UNL     1      52.725   2.066  18.150  0.00  0.00    +0.000 N 
ATOM     30  C   UNL     1      53.305   3.155  18.919  0.00  0.00    +0.000 C 
ATOM     31  C   UNL     1      53.460   0.812  18.195  0.00  0.00    +0.000 C 
ENDBRANCH  24  27
ENDBRANCH  19  21
ENDBRANCH  18  19
ENDBRANCH   1  18
TORSDOF 8
ENDMDL
MODEL 3
REMARK VINA RESULT:    -6.718      1.637      2.392
REMARK INTER + INTRA:         -10.047
REMARK INTER:                 -10.196
REMARK INTRA:                   0.149
REMARK UNBOUND:                -0.187
REMARK  Name = 
REMARK  13 active torsions:
REMARK  status: ('A' for Active; 'I' for Inactive)
REMARK    1  A    between atoms: C_1  and  O_2
REMARK    2  A    between atoms: O_2  and  C_3
REMARK    3  A    between atoms: C_5  and  C_6
REMARK    4  A    between atoms: C_6  and  C_7
REMARK    5  A    between atoms: C_6  and  C_8
REMARK    6  A    between atoms: C_8  and  N_9
REMARK    7  A    between atoms: N_9  and  C_10
REMARK    8  A    between atoms: C_13  and  C_14
REMARK    9  A    between atoms: N_16  and  C_17
REMARK   10  A    between atoms: N_16  and  C_18
REMARK   11  A    between atoms: C_24  and  O_25
REMARK   12  A    between atoms: O_25  and  C_26
REMARK   13  A    between atoms: N_28  and  C_29
REMARK                            x       y       z     vdW  Elec       q    Type
REMARK                         _______ _______ _______ _____ _____    ______ ____
ROOT
ATOM      1  C   UNL     1      43.437   5.337  12.978  0.00  0.00    +0.000 C 
ATOM      2  C   UNL     1      42.363   5.858  12.006  0.00  0.00    +0.000 C 
ENDROOT
BRANCH   1   5
ATOM      3  C   UNL     1      45.826   8.291  12.380  0.00  0.00    +0.000 A 
ATOM      4  C   UNL     1      44.663   7.520  12.555  0.00  0.00    +0.000 A 
ATOM      5  C   UNL     1      44.727   6.140  12.822  0.00  0.00    +0.000 A 
ATOM      6  C   UNL     1      45.998   5.564  12.928  0.00  0.00    +0.000 A 
ATOM      7  C   UNL     1      47.154   6.323  12.770  0.00  0.00    +0.000 A 
ATOM      8  F   UNL     1      48.326   5.681  12.882  0.00  0.00    +0.000 F 
ATOM      9  C   UNL     1      47.090   7.688  12.492  0.00  0.00    +0.000 A 
BRANCH   3  11
ATOM     10  C   UNL     1      44.648  10.110  11.399  0.00  0.00    +0.000 C 
ATOM     11  O   UNL     1      45.812   9.627  12.055  0.00  0.00    +0.000 OA
ENDBRANCH   3  11
BRANCH   9  12
ATOM     12  O   UNL     1      48.193   8.489  12.297  0.00  0.00    +0.000 OA
BRANCH  12  13
ATOM     13  C   UNL     1      48.895   9.007  13.452  0.00  0.00    +0.000 C 
ATOM     14  C   UNL     1      50.197   8.293  13.879  0.00  0.00    +0.000 C 
ATOM     15  N   UNL     1      49.700   8.180  15.265  0.00  0.00    +0.000 NA
ATOM     16  C   UNL     1      50.282   9.227  16.104  0.00  0.00    +0.000 C 
ATOM     17  C   UNL     1      48.344   8.559  14.822  0.00  0.00    +0.000 C 
ENDBRANCH  12  13
ENDBRANCH   9  12
ENDBRANCH   1   5
BRANCH   1  18
ATOM     18  C   UNL     1      43.567   3.810  12.752  0.00  0.00    +0.000 C 
BRANCH  18  19
ATOM     19  N   UNL     1      43.079   3.408  11.428  0.00  0.00    +0.000 N 
ATOM     20  H   UNL     1      42.180   3.816  11.180  0.00  0.00    +0.000 HD
BRANCH  19  21
ATOM     21  C   UNL     1      43.987   3.359  10.371  0.00  0.00    +0.000 A 
ATOM     22  C   UNL     1      44.411   2.203   9.737  0.00  0.00    +0.000 A 
ATOM     23  N   UNL     1      45.243   2.159   8.680  0.00  0.00    +0.000 NA
ATOM     24  C   UNL     1      45.645   3.346   8.185  0.00  0.00    +0.000 A 
ATOM     25  N   UNL     1      45.257   4.545   8.663  0.00  0.00    +0.000 NA
ATOM     26  C   UNL     1      44.436   4.510   9.737  0.00  0.00    +0.000 A 
BRANCH  24  27
ATOM     27  C   UNL     1      46.518   3.278   6.951  0.00  0.00    +0.000 C 
ATOM     28  O   UNL     1      46.556   4.278   6.226  0.00  0.00    +0.000 OA
ATOM     29  N   UNL     1      47.252   2.124   6.619  0.00  0.00    +0.000 N 
ATOM     30  C   UNL     1      47.186   0.831   7.283  0.00  0.00    +0.000 C 
ATOM     31  C   UNL     1      48.091   2.169   5.431  0.00  0.00    +0.000 C 
ENDBRANCH  24  27
ENDBRANCH  19  21
ENDBRANCH  18  19
ENDBRANCH   1  18
TORSDOF 8
ENDMDL
MODEL 4
REMARK VINA RESULT:    -6.531      2.839      8.565
REMARK INTER + INTRA:          -9.773
REMARK INTER:                  -8.641
REMARK INTRA:                  -1.132
REMARK UNBOUND:                -0.187
REMARK  Name = 
REMARK  13 active torsions:
REMARK  status: ('A' for Active; 'I' for Inactive)
REMARK    1  A    between atoms: C_1  and  O_2
REMARK    2  A    between atoms: O_2  and  C_3
REMARK    3  A    between atoms: C_5  and  C_6
REMARK    4  A    between atoms: C_6  and  C_7
REMARK    5  A    between atoms: C_6  and  C_8
REMARK    6  A    between atoms: C_8  and  N_9
REMARK    7  A    between atoms: N_9  and  C_10
REMARK    8  A    between atoms: C_13  and  C_14
REMARK    9  A    between atoms: N_16  and  C_17
REMARK   10  A    between atoms: N_16  and  C_18
REMARK   11  A    between atoms: C_24  and  O_25
REMARK   12  A    between atoms: O_25  and  C_26
REMARK   13  A    between atoms: N_28  and  C_29
REMARK                            x       y       z     vdW  Elec       q    Type
REMARK                         _______ _______ _______ _____ _____    ______ ____
ROOT
ATOM      1  C   UNL     1      48.271   8.532  13.348  0.00  0.00    +0.000 C 
ATOM      2  C   UNL     1      48.105   9.367  12.066  0.00  0.00    +0.000 C 
ENDROOT
BRANCH   1   5
ATOM      3  C   UNL     1      46.827   5.012  13.908  0.00  0.00    +0.000 A 
ATOM      4  C   UNL     1      47.682   6.127  13.914  0.00  0.00    +0.000 A 
ATOM      5  C   UNL     1      47.297   7.355  13.344  0.00  0.00    +0.000 A 
ATOM      6  C   UNL     1      46.017   7.430  12.785  0.00  0.00    +0.000 A 
ATOM      7  C   UNL     1      45.158   6.335  12.787  0.00  0.00    +0.000 A 
ATOM      8  F   UNL     1      43.954   6.501  12.222  0.00  0.00    +0.000 F 
ATOM      9  C   UNL     1      45.545   5.114  13.341  0.00  0.00    +0.000 A 
BRANCH   3  11
ATOM     10  C   UNL     1      47.458   3.697  15.788  0.00  0.00    +0.000 C 
ATOM     11  O   UNL     1      47.182   3.776  14.396  0.00  0.00    +0.000 OA
ENDBRANCH   3  11
BRANCH   9  12
ATOM     12  O   UNL     1      44.756   3.986  13.351  0.00  0.00    +0.000 OA
BRANCH  12  13
ATOM     13  C   UNL     1      44.734   3.138  12.178  0.00  0.00    +0.000 C 
ATOM     14  C   UNL     1      45.353   3.698  10.877  0.00  0.00    +0.000 C 
ATOM     15  N   UNL     1      44.126   3.356  10.129  0.00  0.00    +0.000 NA
ATOM     16  C   UNL     1      44.307   2.105   9.393  0.00  0.00    +0.000 C 
ATOM     17  C   UNL     1      43.405   3.119  11.395  0.00  0.00    +0.000 C 
ENDBRANCH  12  13
ENDBRANCH   9  12
ENDBRANCH   1   5
BRANCH   1  18
ATOM     18  C   UNL     1      48.148   9.498  14.552  0.00  0.00    +0.000 C 
BRANCH  18  19
ATOM     19  N   UNL     1      49.335   9.455  15.413  0.00  0.00    +0.000 N 
ATOM     20  H   UNL     1      49.357  10.187  16.120  0.00  0.00    +0.000 HD
BRANCH  19  21
ATOM     21  C   UNL     1      49.782   8.216  15.870  0.00  0.00    +0.000 A 
ATOM     22  C   UNL     1      50.957   7.597  15.478  0.00  0.00    +0.000 A 
ATOM     23  N   UNL     1      51.417   6.428  15.962  0.00  0.00    +0.000 NA
ATOM     24  C   UNL     1      50.686   5.856  16.938  0.00  0.00    +0.000 A 
ATOM     25  N   UNL     1      49.559   6.381  17.459  0.00  0.00    +0.000 NA
ATOM     26  C   UNL     1      49.149   7.548  16.910  0.00  0.00    +0.000 A 
BRANCH  24  27
ATOM     27  C   UNL     1      51.257   4.583  17.522  0.00  0.00    +0.000 C 
ATOM     28  O   UNL     1      50.796   3.512  17.113  0.00  0.00    +0.000 OA
ATOM     29  N   UNL     1      52.265   4.599  18.506  0.00  0.00    +0.000 N 
ATOM     30  C   UNL     1      52.790   5.769  19.191  0.00  0.00    +0.000 C 
ATOM     31  C   UNL     1      52.775   3.321  18.979  0.00  0.00    +0.000 C 
ENDBRANCH  24  27
ENDBRANCH  19  21
ENDBRANCH  18  19
ENDBRANCH   1  18
TORSDOF 8
ENDMDL
MODEL 5
REMARK VINA RESULT:    -6.452      2.756      8.535
REMARK INTER + INTRA:          -9.656
REMARK INTER:                  -8.390
REMARK INTRA:                  -1.267
REMARK UNBOUND:                -0.187
REMARK  Name = 
REMARK  13 active torsions:
REMARK  status: ('A' for Active; 'I' for Inactive)
REMARK    1  A    between atoms: C_1  and  O_2
REMARK    2  A    between atoms: O_2  and  C_3
REMARK    3  A    between atoms: C_5  and  C_6
REMARK    4  A    between atoms: C_6  and  C_7
REMARK    5  A    between atoms: C_6  and  C_8
REMARK    6  A    between atoms: C_8  and  N_9
REMARK    7  A    between atoms: N_9  and  C_10
REMARK    8  A    between atoms: C_13  and  C_14
REMARK    9  A    between atoms: N_16  and  C_17
REMARK   10  A    between atoms: N_16  and  C_18
REMARK   11  A    between atoms: C_24  and  O_25
REMARK   12  A    between atoms: O_25  and  C_26
REMARK   13  A    between atoms: N_28  and  C_29
REMARK                            x       y       z     vdW  Elec       q    Type
REMARK                         _______ _______ _______ _____ _____    ______ ____
ROOT
ATOM      1  C   UNL     1      49.494   9.336  12.858  0.00  0.00    +0.000 C 
ATOM      2  C   UNL     1      49.622  10.332  11.692  0.00  0.00    +0.000 C 
ENDROOT
BRANCH   1   5
ATOM      3  C   UNL     1      45.992   8.050  11.926  0.00  0.00    +0.000 A 
ATOM      4  C   UNL     1      47.100   8.888  12.138  0.00  0.00    +0.000 A 
ATOM      5  C   UNL     1      48.324   8.384  12.616  0.00  0.00    +0.000 A 
ATOM      6  C   UNL     1      48.403   7.007  12.855  0.00  0.00    +0.000 A 
ATOM      7  C   UNL     1      47.314   6.169  12.635  0.00  0.00    +0.000 A 
ATOM      8  F   UNL     1      47.484   4.865  12.899  0.00  0.00    +0.000 F 
ATOM      9  C   UNL     1      46.097   6.670  12.173  0.00  0.00    +0.000 A 
BRANCH   3  11
ATOM     10  C   UNL     1      44.494   9.887  11.721  0.00  0.00    +0.000 C 
ATOM     11  O   UNL     1      44.759   8.505  11.522  0.00  0.00    +0.000 OA
ENDBRANCH   3  11
BRANCH   9  12
ATOM     12  O   UNL     1      44.975   5.901  11.962  0.00  0.00    +0.000 OA
BRANCH  12  13
ATOM     13  C   UNL     1      45.026   4.847  10.971  0.00  0.00    +0.000 C 
ATOM     14  C   UNL     1      43.731   4.538  10.186  0.00  0.00    +0.000 C 
ATOM     15  N   UNL     1      43.857   3.103  10.514  0.00  0.00    +0.000 NA
ATOM     16  C   UNL     1      44.432   2.369   9.386  0.00  0.00    +0.000 C 
ATOM     17  C   UNL     1      44.894   3.411  11.519  0.00  0.00    +0.000 C 
ENDBRANCH  12  13
ENDBRANCH   9  12
ENDBRANCH   1   5
BRANCH   1  18
ATOM     18  C   UNL     1      49.428  10.160  14.168  0.00  0.00    +0.000 C 
BRANCH  18  19
ATOM     19  N   UNL     1      50.374   9.666  15.174  0.00  0.00    +0.000 N 
ATOM     20  H   UNL     1      50.765  10.397  15.764  0.00  0.00    +0.000 HD
BRANCH  19  21
ATOM     21  C   UNL     1      50.063   8.493  15.861  0.00  0.00    +0.000 A 
ATOM     22  C   UNL     1      48.935   8.300  16.641  0.00  0.00    +0.000 A 
ATOM     23  N   UNL     1      48.606   7.150  17.258  0.00  0.00    +0.000 NA
ATOM     24  C   UNL     1      49.427   6.102  17.048  0.00  0.00    +0.000 A 
ATOM     25  N   UNL     1      50.521   6.133  16.261  0.00  0.00    +0.000 NA
ATOM     26  C   UNL     1      50.799   7.327  15.690  0.00  0.00    +0.000 A 
BRANCH  24  27
ATOM     27  C   UNL     1      49.001   4.799  17.687  0.00  0.00    +0.000 C 
ATOM     28  O   UNL     1      49.612   4.434  18.696  0.00  0.00    +0.000 OA
ATOM     29  N   UNL     1      47.960   4.013  17.156  0.00  0.00    +0.000 N 
ATOM     30  C   UNL     1      47.260   4.231  15.900  0.00  0.00    +0.000 C 
ATOM     31  C   UNL     1      47.599   2.794  17.863  0.00  0.00    +0.000 C 
ENDBRANCH  24  27
ENDBRANCH  19  21
ENDBRANCH  18  19
ENDBRANCH   1  18
TORSDOF 8
ENDMDL
MODEL 6
REMARK VINA RESULT:    -6.312      1.937      2.969
REMARK INTER + INTRA:          -9.451
REMARK INTER:                  -9.600
REMARK INTRA:                   0.149
REMARK UNBOUND:                -0.187
REMARK  Name = 
REMARK  13 active torsions:
REMARK  status: ('A' for Active; 'I' for Inactive)
REMARK    1  A    between atoms: C_1  and  O_2
REMARK    2  A    between atoms: O_2  and  C_3
REMARK    3  A    between atoms: C_5  and  C_6
REMARK    4  A    between atoms: C_6  and  C_7
REMARK    5  A    between atoms: C_6  and  C_8
REMARK    6  A    between atoms: C_8  and  N_9
REMARK    7  A    between atoms: N_9  and  C_10
REMARK    8  A    between atoms: C_13  and  C_14
REMARK    9  A    between atoms: N_16  and  C_17
REMARK   10  A    between atoms: N_16  and  C_18
REMARK   11  A    between atoms: C_24  and  O_25
REMARK   12  A    between atoms: O_25  and  C_26
REMARK   13  A    between atoms: N_28  and  C_29
REMARK                            x       y       z     vdW  Elec       q    Type
REMARK                         _______ _______ _______ _____ _____    ______ ____
ROOT
ATOM      1  C   UNL     1      45.795   4.821  12.779  0.00  0.00    +0.000 C 
ATOM      2  C   UNL     1      46.464   3.699  13.592  0.00  0.00    +0.000 C 
ENDROOT
BRANCH   1   5
ATOM      3  C   UNL     1      46.503   8.601  12.821  0.00  0.00    +0.000 A 
ATOM      4  C   UNL     1      45.890   7.353  12.612  0.00  0.00    +0.000 A 
ATOM      5  C   UNL     1      46.484   6.157  13.053  0.00  0.00    +0.000 A 
ATOM      6  C   UNL     1      47.706   6.257  13.728  0.00  0.00    +0.000 A 
ATOM      7  C   UNL     1      48.313   7.489  13.951  0.00  0.00    +0.000 A 
ATOM      8  F   UNL     1      49.485   7.484  14.602  0.00  0.00    +0.000 F 
ATOM      9  C   UNL     1      47.729   8.675  13.503  0.00  0.00    +0.000 A 
BRANCH   3  11
ATOM     10  C   UNL     1      44.656   9.760  11.867  0.00  0.00    +0.000 C 
ATOM     11  O   UNL     1      45.992   9.789  12.353  0.00  0.00    +0.000 OA
ENDBRANCH   3  11
BRANCH   9  12
ATOM     12  O   UNL     1      48.290   9.922  13.665  0.00  0.00    +0.000 OA
BRANCH  12  13
ATOM     13  C   UNL     1      49.271  10.378  12.704  0.00  0.00    +0.000 C 
ATOM     14  C   UNL     1      49.695   9.394  11.590  0.00  0.00    +0.000 C 
ATOM     15  N   UNL     1      51.118   9.621  11.909  0.00  0.00    +0.000 NA
ATOM     16  C   UNL     1      51.709  10.570  10.966  0.00  0.00    +0.000 C 
ATOM     17  C   UNL     1      50.741  10.300  13.165  0.00  0.00    +0.000 C 
ENDBRANCH  12  13
ENDBRANCH   9  12
ENDBRANCH   1   5
BRANCH   1  18
ATOM     18  C   UNL     1      44.277   4.775  13.084  0.00  0.00    +0.000 C 
BRANCH  18  19
ATOM     19  N   UNL     1      43.494   4.387  11.906  0.00  0.00    +0.000 N 
ATOM     20  H   UNL     1      42.631   4.915  11.794  0.00  0.00    +0.000 HD
BRANCH  19  21
ATOM     21  C   UNL     1      44.166   4.144  10.709  0.00  0.00    +0.000 A 
ATOM     22  C   UNL     1      44.788   5.108   9.934  0.00  0.00    +0.000 A 
ATOM     23  N   UNL     1      45.486   4.867   8.809  0.00  0.00    +0.000 NA
ATOM     24  C   UNL     1      45.618   3.574   8.452  0.00  0.00    +0.000 A 
ATOM     25  N   UNL     1      45.120   2.534   9.149  0.00  0.00    +0.000 NA
ATOM     26  C   UNL     1      44.415   2.854  10.258  0.00  0.00    +0.000 A 
BRANCH  24  27
ATOM     27  C   UNL     1      46.468   3.317   7.228  0.00  0.00    +0.000 C 
ATOM     28  O   UNL     1      46.630   4.255   6.440  0.00  0.00    +0.000 OA
ATOM     29  N   UNL     1      47.048   2.060   6.972  0.00  0.00    +0.000 N 
ATOM     30  C   UNL     1      46.821   0.831   7.717  0.00  0.00    +0.000 C 
ATOM     31  C   UNL     1      47.879   1.922   5.786  0.00  0.00    +0.000 C 
ENDBRANCH  24  27
ENDBRANCH  19  21
ENDBRANCH  18  19
ENDBRANCH   1  18
TORSDOF 8
ENDMDL
MODEL 7
REMARK VINA RESULT:    -6.202      4.015      6.496
REMARK INTER + INTRA:          -9.290
REMARK INTER:                  -8.188
REMARK INTRA:                  -1.103
REMARK UNBOUND:                -0.187
REMARK  Name = 
REMARK  13 active torsions:
REMARK  status: ('A' for Active; 'I' for Inactive)
REMARK    1  A    between atoms: C_1  and  O_2
REMARK    2  A    between atoms: O_2  and  C_3
REMARK    3  A    between atoms: C_5  and  C_6
REMARK    4  A    between atoms: C_6  and  C_7
REMARK    5  A    between atoms: C_6  and  C_8
REMARK    6  A    between atoms: C_8  and  N_9
REMARK    7  A    between atoms: N_9  and  C_10
REMARK    8  A    between atoms: C_13  and  C_14
REMARK    9  A    between atoms: N_16  and  C_17
REMARK   10  A    between atoms: N_16  and  C_18
REMARK   11  A    between atoms: C_24  and  O_25
REMARK   12  A    between atoms: O_25  and  C_26
REMARK   13  A    between atoms: N_28  and  C_29
REMARK                            x       y       z     vdW  Elec       q    Type
REMARK                         _______ _______ _______ _____ _____    ______ ____
ROOT
ATOM      1  C   UNL     1      48.273   8.826  16.424  0.00  0.00    +0.000 C 
ATOM      2  C   UNL     1      48.711  10.110  17.152  0.00  0.00    +0.000 C 
ENDROOT
BRANCH   1   5
ATOM      3  C   UNL     1      49.284   5.175  17.084  0.00  0.00    +0.000 A 
ATOM      4  C   UNL     1      48.690   6.324  16.532  0.00  0.00    +0.000 A 
ATOM      5  C   UNL     1      48.962   7.608  17.037  0.00  0.00    +0.000 A 
ATOM      6  C   UNL     1      49.864   7.702  18.103  0.00  0.00    +0.000 A 
ATOM      7  C   UNL     1      50.466   6.571  18.646  0.00  0.00    +0.000 A 
ATOM      8  F   UNL     1      51.311   6.760  19.669  0.00  0.00    +0.000 F 
ATOM      9  C   UNL     1      50.187   5.296  18.153  0.00  0.00    +0.000 A 
BRANCH   3  11
ATOM     10  C   UNL     1      47.626   3.567  16.509  0.00  0.00    +0.000 C 
ATOM     11  O   UNL     1      49.001   3.896  16.665  0.00  0.00    +0.000 OA
ENDBRANCH   3  11
BRANCH   9  12
ATOM     12  O   UNL     1      50.726   4.136  18.662  0.00  0.00    +0.000 OA
BRANCH  12  13
ATOM     13  C   UNL     1      52.048   3.732  18.233  0.00  0.00    +0.000 C 
ATOM     14  C   UNL     1      52.257   2.247  17.857  0.00  0.00    +0.000 C 
ATOM     15  N   UNL     1      53.427   2.168  18.755  0.00  0.00    +0.000 NA
ATOM     16  C   UNL     1      54.668   2.289  17.991  0.00  0.00    +0.000 C 
ATOM     17  C   UNL     1      53.061   3.462  19.365  0.00  0.00    +0.000 C 
ENDBRANCH  12  13
ENDBRANCH   9  12
ENDBRANCH   1   5
BRANCH   1  18
ATOM     18  C   UNL     1      48.518   9.044  14.911  0.00  0.00    +0.000 C 
BRANCH  18  19
ATOM     19  N   UNL     1      47.266   9.271  14.180  0.00  0.00    +0.000 N 
ATOM     20  H   UNL     1      47.169  10.216  13.816  0.00  0.00    +0.000 HD
BRANCH  19  21
ATOM     21  C   UNL     1      46.816   8.281  13.307  0.00  0.00    +0.000 A 
ATOM     22  C   UNL     1      47.438   7.063  13.093  0.00  0.00    +0.000 A 
ATOM     23  N   UNL     1      46.973   6.084  12.294  0.00  0.00    +0.000 NA
ATOM     24  C   UNL     1      45.783   6.310  11.703  0.00  0.00    +0.000 A 
ATOM     25  N   UNL     1      45.041   7.421  11.876  0.00  0.00    +0.000 NA
ATOM     26  C   UNL     1      45.581   8.367  12.678  0.00  0.00    +0.000 A 
BRANCH  24  27
ATOM     27  C   UNL     1      45.241   5.169  10.870  0.00  0.00    +0.000 C 
ATOM     28  O   UNL     1      45.534   5.152   9.670  0.00  0.00    +0.000 OA
ATOM     29  N   UNL     1      44.419   4.167  11.421  0.00  0.00    +0.000 N 
ATOM     30  C   UNL     1      43.867   4.139  12.766  0.00  0.00    +0.000 C 
ATOM     31  C   UNL     1      43.977   3.092  10.546  0.00  0.00    +0.000 C 
ENDBRANCH  24  27
ENDBRANCH  19  21
ENDBRANCH  18  19
ENDBRANCH   1  18
TORSDOF 8
ENDMDL
MODEL 8
REMARK VINA RESULT:    -6.145      3.541      6.369
REMARK INTER + INTRA:          -9.206
REMARK INTER:                  -7.853
REMARK INTRA:                  -1.353
REMARK UNBOUND:                -0.187
REMARK  Name = 
REMARK  13 active torsions:
REMARK  status: ('A' for Active; 'I' for Inactive)
REMARK    1  A    between atoms: C_1  and  O_2
REMARK    2  A    between atoms: O_2  and  C_3
REMARK    3  A    between atoms: C_5  and  C_6
REMARK    4  A    between atoms: C_6  and  C_7
REMARK    5  A    between atoms: C_6  and  C_8
REMARK    6  A    between atoms: C_8  and  N_9
REMARK    7  A    between atoms: N_9  and  C_10
REMARK    8  A    between atoms: C_13  and  C_14
REMARK    9  A    between atoms: N_16  and  C_17
REMARK   10  A    between atoms: N_16  and  C_18
REMARK   11  A    between atoms: C_24  and  O_25
REMARK   12  A    between atoms: O_25  and  C_26
REMARK   13  A    between atoms: N_28  and  C_29
REMARK                            x       y       z     vdW  Elec       q    Type
REMARK                         _______ _______ _______ _____ _____    ______ ____
ROOT
ATOM      1  C   UNL     1      49.427  10.289  13.468  0.00  0.00    +0.000 C 
ATOM      2  C   UNL     1      50.829  10.850  13.173  0.00  0.00    +0.000 C 
ENDROOT
BRANCH   1   5
ATOM      3  C   UNL     1      48.578   8.533  16.782  0.00  0.00    +0.000 A 
ATOM      4  C   UNL     1      48.544   9.403  15.678  0.00  0.00    +0.000 A 
ATOM      5  C   UNL     1      49.484   9.305  14.635  0.00  0.00    +0.000 A 
ATOM      6  C   UNL     1      50.446   8.293  14.729  0.00  0.00    +0.000 A 
ATOM      7  C   UNL     1      50.477   7.419  15.812  0.00  0.00    +0.000 A 
ATOM      8  F   UNL     1      51.439   6.486  15.817  0.00  0.00    +0.000 F 
ATOM      9  C   UNL     1      49.553   7.524  16.852  0.00  0.00    +0.000 A 
BRANCH   3  11
ATOM     10  C   UNL     1      47.851   9.788  18.669  0.00  0.00    +0.000 C 
ATOM     11  O   UNL     1      47.721   8.630  17.854  0.00  0.00    +0.000 OA
ENDBRANCH   3  11
BRANCH   9  12
ATOM     12  O   UNL     1      49.546   6.712  17.964  0.00  0.00    +0.000 OA
BRANCH  12  13
ATOM     13  C   UNL     1      49.067   5.352  17.833  0.00  0.00    +0.000 C 
ATOM     14  C   UNL     1      48.176   5.020  16.614  0.00  0.00    +0.000 C 
ATOM     15  N   UNL     1      47.163   4.413  17.501  0.00  0.00    +0.000 NA
ATOM     16  C   UNL     1      47.291   2.956  17.503  0.00  0.00    +0.000 C 
ATOM     17  C   UNL     1      47.829   4.997  18.682  0.00  0.00    +0.000 C 
ENDBRANCH  12  13
ENDBRANCH   9  12
ENDBRANCH   1   5
BRANCH   1  18
ATOM     18  C   UNL     1      48.863   9.724  12.141  0.00  0.00    +0.000 C 
BRANCH  18  19
ATOM     19  N   UNL     1      47.399   9.641  12.158  0.00  0.00    +0.000 N 
ATOM     20  H   UNL     1      46.948  10.198  11.436  0.00  0.00    +0.000 HD
BRANCH  19  21
ATOM     21  C   UNL     1      46.805   8.397  12.365  0.00  0.00    +0.000 A 
ATOM     22  C   UNL     1      45.475   8.193  12.693  0.00  0.00    +0.000 A 
ATOM     23  N   UNL     1      44.887   6.990  12.836  0.00  0.00    +0.000 NA
ATOM     24  C   UNL     1      45.659   5.914  12.589  0.00  0.00    +0.000 A 
ATOM     25  N   UNL     1      46.948   5.970  12.198  0.00  0.00    +0.000 NA
ATOM     26  C   UNL     1      47.475   7.211  12.094  0.00  0.00    +0.000 A 
BRANCH  24  27
ATOM     27  C   UNL     1      44.961   4.575  12.680  0.00  0.00    +0.000 C 
ATOM     28  O   UNL     1      45.193   3.880  13.675  0.00  0.00    +0.000 OA
ATOM     29  N   UNL     1      44.091   4.115  11.673  0.00  0.00    +0.000 N 
ATOM     30  C   UNL     1      43.845   4.744  10.385  0.00  0.00    +0.000 C 
ATOM     31  C   UNL     1      43.441   2.829  11.870  0.00  0.00    +0.000 C 
ENDBRANCH  24  27
ENDBRANCH  19  21
ENDBRANCH  18  19
ENDBRANCH   1  18
TORSDOF 8
ENDMDL
MODEL 9
REMARK VINA RESULT:    -6.024      4.148      6.800
REMARK INTER + INTRA:          -9.028
REMARK INTER:                  -8.165
REMARK INTRA:                  -0.863
REMARK UNBOUND:                -0.187
REMARK  Name = 
REMARK  13 active torsions:
REMARK  status: ('A' for Active; 'I' for Inactive)
REMARK    1  A    between atoms: C_1  and  O_2
REMARK    2  A    between atoms: O_2  and  C_3
REMARK    3  A    between atoms: C_5  and  C_6
REMARK    4  A    between atoms: C_6  and  C_7
REMARK    5  A    between atoms: C_6  and  C_8
REMARK    6  A    between atoms: C_8  and  N_9
REMARK    7  A    between atoms: N_9  and  C_10
REMARK    8  A    between atoms: C_13  and  C_14
REMARK    9  A    between atoms: N_16  and  C_17
REMARK   10  A    between atoms: N_16  and  C_18
REMARK   11  A    between atoms: C_24  and  O_25
REMARK   12  A    between atoms: O_25  and  C_26
REMARK   13  A    between atoms: N_28  and  C_29
REMARK                            x       y       z     vdW  Elec       q    Type
REMARK                         _______ _______ _______ _____ _____    ______ ____
ROOT
ATOM      1  C   UNL     1      50.109   8.239  15.434  0.00  0.00    +0.000 C 
ATOM      2  C   UNL     1      50.639   8.219  13.989  0.00  0.00    +0.000 C 
ENDROOT
BRANCH   1   5
ATOM      3  C   UNL     1      50.041   4.920  17.376  0.00  0.00    +0.000 A 
ATOM      4  C   UNL     1      49.646   6.061  16.655  0.00  0.00    +0.000 A 
ATOM      5  C   UNL     1      50.586   6.999  16.189  0.00  0.00    +0.000 A 
ATOM      6  C   UNL     1      51.936   6.744  16.455  0.00  0.00    +0.000 A 
ATOM      7  C   UNL     1      52.335   5.610  17.156  0.00  0.00    +0.000 A 
ATOM      8  F   UNL     1      53.650   5.454  17.367  0.00  0.00    +0.000 F 
ATOM      9  C   UNL     1      51.403   4.686  17.629  0.00  0.00    +0.000 A 
BRANCH   3  11
ATOM     10  C   UNL     1      48.258   3.391  16.994  0.00  0.00    +0.000 C 
ATOM     11  O   UNL     1      49.156   4.010  17.906  0.00  0.00    +0.000 OA
ENDBRANCH   3  11
BRANCH   9  12
ATOM     12  O   UNL     1      51.729   3.561  18.352  0.00  0.00    +0.000 OA
BRANCH  12  13
ATOM     13  C   UNL     1      52.532   2.534  17.723  0.00  0.00    +0.000 C 
ATOM     14  C   UNL     1      51.953   1.101  17.675  0.00  0.00    +0.000 C 
ATOM     15  N   UNL     1      53.201   0.561  18.251  0.00  0.00    +0.000 NA
ATOM     16  C   UNL     1      54.049  -0.002  17.200  0.00  0.00    +0.000 C 
ATOM     17  C   UNL     1      53.643   1.925  18.603  0.00  0.00    +0.000 C 
ENDBRANCH  12  13
ENDBRANCH   9  12
ENDBRANCH   1   5
BRANCH   1  18
ATOM     18  C   UNL     1      48.574   8.433  15.364  0.00  0.00    +0.000 C 
BRANCH  18  19
ATOM     19  N   UNL     1      48.083   8.428  13.982  0.00  0.00    +0.000 N 
ATOM     20  H   UNL     1      48.777   8.723  13.299  0.00  0.00    +0.000 HD
BRANCH  19  21
ATOM     21  C   UNL     1      47.293   7.360  13.559  0.00  0.00    +0.000 A 
ATOM     22  C   UNL     1      46.085   7.476  12.892  0.00  0.00    +0.000 A 
ATOM     23  N   UNL     1      45.351   6.445  12.433  0.00  0.00    +0.000 NA
ATOM     24  C   UNL     1      45.874   5.216  12.603  0.00  0.00    +0.000 A 
ATOM     25  N   UNL     1      47.067   4.964  13.176  0.00  0.00    +0.000 NA
ATOM     26  C   UNL     1      47.740   6.047  13.629  0.00  0.00    +0.000 A 
BRANCH  24  27
ATOM     27  C   UNL     1      45.071   4.077  12.014  0.00  0.00    +0.000 C 
ATOM     28  O   UNL     1      44.617   3.236  12.797  0.00  0.00    +0.000 OA
ATOM     29  N   UNL     1      44.853   3.956  10.628  0.00  0.00    +0.000 N 
ATOM     30  C   UNL     1      45.449   4.771   9.581  0.00  0.00    +0.000 C 
ATOM     31  C   UNL     1      44.037   2.845  10.162  0.00  0.00    +0.000 C 
ENDBRANCH  24  27
ENDBRANCH  19  21
ENDBRANCH  18  19
ENDBRANCH   1  18
TORSDOF 8
ENDMDL
