MODEL 1
REMARK VINA RESULT:    -7.837      0.000      0.000
REMARK INTER + INTRA:         -11.648
REMARK INTER:                 -10.586
REMARK INTRA:                  -1.061
REMARK UNBOUND:                -1.061
REMARK  Name = 
REMARK  8 active torsions:
REMARK  status: ('A' for Active; 'I' for Inactive)
REMARK    1  A    between atoms: C_1  and  C_2
REMARK    2  A    between atoms: C_2  and  C_3
REMARK    3  A    between atoms: C_2  and  C_4
REMARK    4  A    between atoms: C_6  and  C_7
REMARK    5  A    between atoms: C_7  and  C_8
REMARK    6  A    between atoms: C_8  and  C_9
REMARK    7  A    between atoms: C_13  and  C_14
REMARK    8  A    between atoms: C_23  and  C_24
REMARK                            x       y       z     vdW  Elec       q    Type
REMARK                         _______ _______ _______ _____ _____    ______ ____
ROOT
ATOM      1  C   UNL     1      48.492   6.058  15.783  0.00  0.00    +0.000 A 
ATOM      2  N   UNL     1      48.428   6.624  14.542  0.00  0.00    +0.000 NA
ATOM      3  C   UNL     1      47.681   6.050  13.575  0.00  0.00    +0.000 A 
ATOM      4  C   UNL     1      46.954   4.893  13.804  0.00  0.00    +0.000 A 
ATOM      5  C   UNL     1      47.014   4.305  15.067  0.00  0.00    +0.000 A 
ATOM      6  C   UNL     1      47.780   4.889  16.086  0.00  0.00    +0.000 A 
ENDROOT
BRANCH   6   7
ATOM      7  C   UNL     1      47.840   4.226  17.420  0.00  0.00    +0.000 C 
ATOM      8  N   UNL     1      47.066   4.761  18.418  0.00  0.00    +0.000 N 
ATOM      9  O   UNL     1      48.536   3.252  17.651  0.00  0.00    +0.000 OA
ATOM     10  H   UNL     1      46.587   5.649  18.346  0.00  0.00    +0.000 HD
ATOM     11  H   UNL     1      47.150   4.340  19.332  0.00  0.00    +0.000 HD
ENDBRANCH   6   7
BRANCH   1  13
ATOM     12  C   UNL     1      50.872   6.613  16.266  0.00  0.00    +0.000 C 
ATOM     13  C   UNL     1      49.427   6.760  16.751  0.00  0.00    +0.000 C 
ATOM     14  C   UNL     1      49.098   8.251  16.916  0.00  0.00    +0.000 C 
ENDBRANCH   1  13
BRANCH   3  15
ATOM     15  C   UNL     1      47.597   6.756  12.245  0.00  0.00    +0.000 C 
BRANCH  15  16
ATOM     16  C   UNL     1      46.209   7.344  11.959  0.00  0.00    +0.000 C 
BRANCH  16  17
ATOM     17  C   UNL     1      45.300   6.302  11.356  0.00  0.00    +0.000 A 
ATOM     18  C   UNL     1      43.923   6.323  11.587  0.00  0.00    +0.000 A 
ATOM     19  C   UNL     1      43.101   5.384  10.970  0.00  0.00    +0.000 A 
ATOM     20  C   UNL     1      43.646   4.439  10.094  0.00  0.00    +0.000 A 
ATOM     21  C   UNL     1      45.021   4.417   9.804  0.00  0.00    +0.000 A 
ATOM     22  C   UNL     1      45.834   5.342  10.480  0.00  0.00    +0.000 A 
BRANCH  21  23
ATOM     23  C   UNL     1      45.587   3.542   8.753  0.00  0.00    +0.000 A 
ATOM     24  C   UNL     1      46.235   4.097   7.634  0.00  0.00    +0.000 A 
ATOM     25  C   UNL     1      46.884   3.295   6.691  0.00  0.00    +0.000 A 
ATOM     26  C   UNL     1      46.902   1.913   6.848  0.00  0.00    +0.000 A 
ATOM     27  C   UNL     1      46.251   1.335   7.933  0.00  0.00    +0.000 A 
ATOM     28  C   UNL     1      45.591   2.139   8.869  0.00  0.00    +0.000 A 
ENDBRANCH  21  23
ENDBRANCH  16  17
ENDBRANCH  15  16
ENDBRANCH   3  15
TORSDOF 6
ENDMDL
MODEL 2
REMARK VINA RESULT:    -7.583      1.606      3.079
REMARK INTER + INTRA:         -11.305
REMARK INTER:                 -10.315
REMARK INTRA:                  -0.990
REMARK UNBOUND:                -1.061
REMARK  Name = 
REMARK  8 active torsions:
REMARK  status: ('A' for Active; 'I' for Inactive)
REMARK    1  A    between atoms: C_1  and  C_2
REMARK    2  A    between atoms: C_2  and  C_3
REMARK    3  A    between atoms: C_2  and  C_4
REMARK    4  A    between atoms: C_6  and  C_7
REMARK    5  A    between atoms: C_7  and  C_8
REMARK    6  A    between atoms: C_8  and  C_9
REMARK    7  A    between atoms: C_13  and  C_14
REMARK    8  A    between atoms: C_23  and  C_24
REMARK                            x       y       z     vdW  Elec       q    Type
REMARK                         _______ _______ _______ _____ _____    ______ ____
ROOT
ATOM      1  C   UNL     1      47.237   5.970  13.757  0.00  0.00    +0.000 A 
ATOM      2  N   UNL     1      46.312   6.044  12.755  0.00  0.00    +0.000 NA
ATOM      3  C   UNL     1      45.958   7.244  12.248  0.00  0.00    +0.000 A 
ATOM      4  C   UNL     1      46.518   8.425  12.708  0.00  0.00    +0.000 A 
ATOM      5  C   UNL     1      47.461   8.362  13.734  0.00  0.00    +0.000 A 
ATOM      6  C   UNL     1      47.846   7.124  14.269  0.00  0.00    +0.000 A 
ENDROOT
BRANCH   6   7
ATOM      7  C   UNL     1      48.842   7.092  15.378  0.00  0.00    +0.000 C 
ATOM      8  N   UNL     1      48.487   7.704  16.553  0.00  0.00    +0.000 N 
ATOM      9  O   UNL     1      49.934   6.558  15.280  0.00  0.00    +0.000 OA
ATOM     10  H   UNL     1      47.673   8.293  16.658  0.00  0.00    +0.000 HD
ATOM     11  H   UNL     1      49.186   7.724  17.282  0.00  0.00    +0.000 HD
ENDBRANCH   6   7
BRANCH   1  13
ATOM     12  C   UNL     1      47.014   4.481  15.742  0.00  0.00    +0.000 C 
ATOM     13  C   UNL     1      47.485   4.570  14.287  0.00  0.00    +0.000 C 
ATOM     14  C   UNL     1      46.775   3.489  13.458  0.00  0.00    +0.000 C 
ENDBRANCH   1  13
BRANCH   3  15
ATOM     15  C   UNL     1      44.982   7.258  11.099  0.00  0.00    +0.000 C 
BRANCH  15  16
ATOM     16  C   UNL     1      43.697   6.470  11.387  0.00  0.00    +0.000 C 
BRANCH  16  17
ATOM     17  C   UNL     1      43.893   5.002  11.101  0.00  0.00    +0.000 A 
ATOM     18  C   UNL     1      43.145   4.029  11.767  0.00  0.00    +0.000 A 
ATOM     19  C   UNL     1      43.306   2.685  11.441  0.00  0.00    +0.000 A 
ATOM     20  C   UNL     1      44.190   2.309  10.425  0.00  0.00    +0.000 A 
ATOM     21  C   UNL     1      44.926   3.265   9.703  0.00  0.00    +0.000 A 
ATOM     22  C   UNL     1      44.784   4.608  10.088  0.00  0.00    +0.000 A 
BRANCH  21  23
ATOM     23  C   UNL     1      45.732   2.901   8.516  0.00  0.00    +0.000 A 
ATOM     24  C   UNL     1      46.194   1.583   8.342  0.00  0.00    +0.000 A 
ATOM     25  C   UNL     1      46.849   1.186   7.173  0.00  0.00    +0.000 A 
ATOM     26  C   UNL     1      47.057   2.100   6.146  0.00  0.00    +0.000 A 
ATOM     27  C   UNL     1      46.631   3.415   6.299  0.00  0.00    +0.000 A 
ATOM     28  C   UNL     1      45.986   3.815   7.476  0.00  0.00    +0.000 A 
ENDBRANCH  21  23
ENDBRANCH  16  17
ENDBRANCH  15  16
ENDBRANCH   3  15
TORSDOF 6
ENDMDL
MODEL 3
REMARK VINA RESULT:    -7.373      1.704      2.667
REMARK INTER + INTRA:         -11.021
REMARK INTER:                 -10.032
REMARK INTRA:                  -0.989
REMARK UNBOUND:                -1.061
REMARK  Name = 
REMARK  8 active torsions:
REMARK  status: ('A' for Active; 'I' for Inactive)
REMARK    1  A    between atoms: C_1  and  C_2
REMARK    2  A    between atoms: C_2  and  C_3
REMARK    3  A    between atoms: C_2  and  C_4
REMARK    4  A    between atoms: C_6  and  C_7
REMARK    5  A    between atoms: C_7  and  C_8
REMARK    6  A    between atoms: C_8  and  C_9
REMARK    7  A    between atoms: C_13  and  C_14
REMARK    8  A    between atoms: C_23  and  C_24
REMARK                            x       y       z     vdW  Elec       q    Type
REMARK                         _______ _______ _______ _____ _____    ______ ____
ROOT
ATOM      1  C   UNL     1      48.840   4.787  16.777  0.00  0.00    +0.000 A 
ATOM      2  N   UNL     1      48.025   4.719  15.684  0.00  0.00    +0.000 NA
ATOM      3  C   UNL     1      47.939   5.767  14.838  0.00  0.00    +0.000 A 
ATOM      4  C   UNL     1      48.670   6.927  15.036  0.00  0.00    +0.000 A 
ATOM      5  C   UNL     1      49.504   7.009  16.151  0.00  0.00    +0.000 A 
ATOM      6  C   UNL     1      49.611   5.929  17.038  0.00  0.00    +0.000 A 
ENDROOT
BRANCH   6   7
ATOM      7  C   UNL     1      50.496   6.055  18.231  0.00  0.00    +0.000 C 
ATOM      8  N   UNL     1      51.849   6.026  18.010  0.00  0.00    +0.000 N 
ATOM      9  O   UNL     1      50.072   6.176  19.368  0.00  0.00    +0.000 OA
ATOM     10  H   UNL     1      52.271   5.776  17.126  0.00  0.00    +0.000 HD
ATOM     11  H   UNL     1      52.442   6.058  18.827  0.00  0.00    +0.000 HD
ENDBRANCH   6   7
BRANCH   1  13
ATOM     12  C   UNL     1      47.407   2.910  17.572  0.00  0.00    +0.000 C 
ATOM     13  C   UNL     1      48.783   3.573  17.686  0.00  0.00    +0.000 C 
ATOM     14  C   UNL     1      49.871   2.539  17.359  0.00  0.00    +0.000 C 
ENDBRANCH   1  13
BRANCH   3  15
ATOM     15  C   UNL     1      47.073   5.609  13.613  0.00  0.00    +0.000 C 
BRANCH  15  16
ATOM     16  C   UNL     1      45.821   4.758  13.863  0.00  0.00    +0.000 C 
BRANCH  16  17
ATOM     17  C   UNL     1      44.974   4.674  12.618  0.00  0.00    +0.000 A 
ATOM     18  C   UNL     1      43.764   5.364  12.519  0.00  0.00    +0.000 A 
ATOM     19  C   UNL     1      43.031   5.316  11.337  0.00  0.00    +0.000 A 
ATOM     20  C   UNL     1      43.519   4.605  10.235  0.00  0.00    +0.000 A 
ATOM     21  C   UNL     1      44.754   3.937  10.284  0.00  0.00    +0.000 A 
ATOM     22  C   UNL     1      45.447   3.958  11.506  0.00  0.00    +0.000 A 
BRANCH  21  23
ATOM     23  C   UNL     1      45.365   3.328   9.081  0.00  0.00    +0.000 A 
ATOM     24  C   UNL     1      45.839   4.140   8.033  0.00  0.00    +0.000 A 
ATOM     25  C   UNL     1      46.529   3.600   6.944  0.00  0.00    +0.000 A 
ATOM     26  C   UNL     1      46.764   2.231   6.878  0.00  0.00    +0.000 A 
ATOM     27  C   UNL     1      46.288   1.402   7.889  0.00  0.00    +0.000 A 
ATOM     28  C   UNL     1      45.586   1.943   8.972  0.00  0.00    +0.000 A 
ENDBRANCH  21  23
ENDBRANCH  16  17
ENDBRANCH  15  16
ENDBRANCH   3  15
TORSDOF 6
ENDMDL
MODEL 4
REMARK VINA RESULT:    -7.244      1.495      1.926
REMARK INTER + INTRA:         -10.846
REMARK INTER:                  -9.830
REMARK INTRA:                  -1.016
REMARK UNBOUND:                -1.061
REMARK  Name = 
REMARK  8 active torsions:
REMARK  status: ('A' for Active; 'I' for Inactive)
REMARK    1  A    between atoms: C_1  and  C_2
REMARK    2  A    between atoms: C_2  and  C_3
REMARK    3  A    between atoms: C_2  and  C_4
REMARK    4  A    between atoms: C_6  and  C_7
REMARK    5  A    between atoms: C_7  and  C_8
REMARK    6  A    between atoms: C_8  and  C_9
REMARK    7  A    between atoms: C_13  and  C_14
REMARK    8  A    between atoms: C_23  and  C_24
REMARK                            x       y       z     vdW  Elec       q    Type
REMARK                         _______ _______ _______ _____ _____    ______ ____
ROOT
ATOM      1  C   UNL     1      49.040   5.536  16.827  0.00  0.00    +0.000 A 
ATOM      2  N   UNL     1      48.399   5.368  15.633  0.00  0.00    +0.000 NA
ATOM      3  C   UNL     1      47.610   4.291  15.435  0.00  0.00    +0.000 A 
ATOM      4  C   UNL     1      47.413   3.338  16.422  0.00  0.00    +0.000 A 
ATOM      5  C   UNL     1      48.065   3.498  17.644  0.00  0.00    +0.000 A 
ATOM      6  C   UNL     1      48.885   4.613  17.871  0.00  0.00    +0.000 A 
ENDROOT
BRANCH   6   7
ATOM      7  C   UNL     1      49.584   4.745  19.181  0.00  0.00    +0.000 C 
ATOM      8  N   UNL     1      50.801   4.125  19.304  0.00  0.00    +0.000 N 
ATOM      9  O   UNL     1      49.123   5.365  20.125  0.00  0.00    +0.000 OA
ATOM     10  H   UNL     1      51.172   3.472  18.627  0.00  0.00    +0.000 HD
ATOM     11  H   UNL     1      51.245   4.174  20.210  0.00  0.00    +0.000 HD
ENDBRANCH   6   7
BRANCH   1  13
ATOM     12  C   UNL     1      50.400   7.125  15.475  0.00  0.00    +0.000 C 
ATOM     13  C   UNL     1      49.955   6.745  16.890  0.00  0.00    +0.000 C 
ATOM     14  C   UNL     1      49.287   7.959  17.553  0.00  0.00    +0.000 C 
ENDBRANCH   1  13
BRANCH   3  15
ATOM     15  C   UNL     1      46.877   4.194  14.121  0.00  0.00    +0.000 C 
BRANCH  15  16
ATOM     16  C   UNL     1      45.937   5.379  13.863  0.00  0.00    +0.000 C 
BRANCH  16  17
ATOM     17  C   UNL     1      45.015   5.088  12.705  0.00  0.00    +0.000 A 
ATOM     18  C   UNL     1      43.725   5.620  12.657  0.00  0.00    +0.000 A 
ATOM     19  C   UNL     1      42.917   5.384  11.548  0.00  0.00    +0.000 A 
ATOM     20  C   UNL     1      43.405   4.642  10.467  0.00  0.00    +0.000 A 
ATOM     21  C   UNL     1      44.713   4.129  10.463  0.00  0.00    +0.000 A 
ATOM     22  C   UNL     1      45.488   4.339  11.616  0.00  0.00    +0.000 A 
BRANCH  21  23
ATOM     23  C   UNL     1      45.302   3.494   9.262  0.00  0.00    +0.000 A 
ATOM     24  C   UNL     1      45.863   4.283   8.240  0.00  0.00    +0.000 A 
ATOM     25  C   UNL     1      46.533   3.707   7.157  0.00  0.00    +0.000 A 
ATOM     26  C   UNL     1      46.662   2.325   7.072  0.00  0.00    +0.000 A 
ATOM     27  C   UNL     1      46.098   1.520   8.057  0.00  0.00    +0.000 A 
ATOM     28  C   UNL     1      45.416   2.097   9.134  0.00  0.00    +0.000 A 
ENDBRANCH  21  23
ENDBRANCH  16  17
ENDBRANCH  15  16
ENDBRANCH   3  15
TORSDOF 6
ENDMDL
MODEL 5
REMARK VINA RESULT:    -7.085      3.900      5.144
REMARK INTER + INTRA:         -10.632
REMARK INTER:                  -9.399
REMARK INTRA:                  -1.233
REMARK UNBOUND:                -1.061
REMARK  Name = 
REMARK  8 active torsions:
REMARK  status: ('A' for Active; 'I' for Inactive)
REMARK    1  A    between atoms: C_1  and  C_2
REMARK    2  A    between atoms: C_2  and  C_3
REMARK    3  A    between atoms: C_2  and  C_4
REMARK    4  A    between atoms: C_6  and  C_7
REMARK    5  A    between atoms: C_7  and  C_8
REMARK    6  A    between atoms: C_8  and  C_9
REMARK    7  A    between atoms: C_13  and  C_14
REMARK    8  A    between atoms: C_23  and  C_24
REMARK                            x       y       z     vdW  Elec       q    Type
REMARK                         _______ _______ _______ _____ _____    ______ ____
ROOT
ATOM      1  C   UNL     1      47.096  10.069  11.865  0.00  0.00    +0.000 A 
ATOM      2  N   UNL     1      47.187   8.721  12.067  0.00  0.00    +0.000 NA
ATOM      3  C   UNL     1      46.076   7.955  12.021  0.00  0.00    +0.000 A 
ATOM      4  C   UNL     1      44.827   8.494  11.761  0.00  0.00    +0.000 A 
ATOM      5  C   UNL     1      44.722   9.870  11.556  0.00  0.00    +0.000 A 
ATOM      6  C   UNL     1      45.865  10.682  11.594  0.00  0.00    +0.000 A 
ENDROOT
BRANCH   6   7
ATOM      7  C   UNL     1      45.718  12.151  11.391  0.00  0.00    +0.000 C 
ATOM      8  N   UNL     1      45.393  12.903  12.491  0.00  0.00    +0.000 N 
ATOM      9  O   UNL     1      45.868  12.696  10.310  0.00  0.00    +0.000 OA
ATOM     10  H   UNL     1      45.104  12.511  13.377  0.00  0.00    +0.000 HD
ATOM     11  H   UNL     1      45.243  13.890  12.337  0.00  0.00    +0.000 HD
ENDBRANCH   6   7
BRANCH   1  13
ATOM     12  C   UNL     1      49.259  10.148  13.100  0.00  0.00    +0.000 C 
ATOM     13  C   UNL     1      48.406  10.821  12.020  0.00  0.00    +0.000 C 
ATOM     14  C   UNL     1      49.207  10.890  10.712  0.00  0.00    +0.000 C 
ENDBRANCH   1  13
BRANCH   3  15
ATOM     15  C   UNL     1      46.247   6.466  12.186  0.00  0.00    +0.000 C 
BRANCH  15  16
ATOM     16  C   UNL     1      45.045   5.789  12.857  0.00  0.00    +0.000 C 
BRANCH  16  17
ATOM     17  C   UNL     1      44.646   4.541  12.109  0.00  0.00    +0.000 A 
ATOM     18  C   UNL     1      43.548   3.778  12.509  0.00  0.00    +0.000 A 
ATOM     19  C   UNL     1      43.168   2.665  11.765  0.00  0.00    +0.000 A 
ATOM     20  C   UNL     1      43.863   2.326  10.599  0.00  0.00    +0.000 A 
ATOM     21  C   UNL     1      44.946   3.098  10.143  0.00  0.00    +0.000 A 
ATOM     22  C   UNL     1      45.340   4.185  10.940  0.00  0.00    +0.000 A 
BRANCH  21  23
ATOM     23  C   UNL     1      45.580   2.858   8.827  0.00  0.00    +0.000 A 
ATOM     24  C   UNL     1      45.772   3.919   7.922  0.00  0.00    +0.000 A 
ATOM     25  C   UNL     1      46.477   3.744   6.729  0.00  0.00    +0.000 A 
ATOM     26  C   UNL     1      47.010   2.500   6.411  0.00  0.00    +0.000 A 
ATOM     27  C   UNL     1      46.817   1.427   7.275  0.00  0.00    +0.000 A 
ATOM     28  C   UNL     1      46.100   1.601   8.465  0.00  0.00    +0.000 A 
ENDBRANCH  21  23
ENDBRANCH  16  17
ENDBRANCH  15  16
ENDBRANCH   3  15
TORSDOF 6
ENDMDL
MODEL 6
REMARK VINA RESULT:    -7.003      1.519      3.170
REMARK INTER + INTRA:         -10.521
REMARK INTER:                  -9.004
REMARK INTRA:                  -1.517
REMARK UNBOUND:                -1.061
REMARK  Name = 
REMARK  8 active torsions:
REMARK  status: ('A' for Active; 'I' for Inactive)
REMARK    1  A    between atoms: C_1  and  C_2
REMARK    2  A    between atoms: C_2  and  C_3
REMARK    3  A    between atoms: C_2  and  C_4
REMARK    4  A    between atoms: C_6  and  C_7
REMARK    5  A    between atoms: C_7  and  C_8
REMARK    6  A    between atoms: C_8  and  C_9
REMARK    7  A    between atoms: C_13  and  C_14
REMARK    8  A    between atoms: C_23  and  C_24
REMARK                            x       y       z     vdW  Elec       q    Type
REMARK                         _______ _______ _______ _____ _____    ______ ____
ROOT
ATOM      1  C   UNL     1      48.218   5.654  15.782  0.00  0.00    +0.000 A 
ATOM      2  N   UNL     1      48.531   5.982  14.494  0.00  0.00    +0.000 NA
ATOM      3  C   UNL     1      49.283   7.074  14.239  0.00  0.00    +0.000 A 
ATOM      4  C   UNL     1      49.767   7.882  15.255  0.00  0.00    +0.000 A 
ATOM      5  C   UNL     1      49.451   7.557  16.574  0.00  0.00    +0.000 A 
ATOM      6  C   UNL     1      48.676   6.424  16.860  0.00  0.00    +0.000 A 
ENDROOT
BRANCH   6   7
ATOM      7  C   UNL     1      48.339   6.115  18.279  0.00  0.00    +0.000 C 
ATOM      8  N   UNL     1      47.201   6.688  18.788  0.00  0.00    +0.000 N 
ATOM      9  O   UNL     1      49.020   5.393  18.987  0.00  0.00    +0.000 OA
ATOM     10  H   UNL     1      46.675   7.412  18.318  0.00  0.00    +0.000 HD
ATOM     11  H   UNL     1      47.006   6.518  19.765  0.00  0.00    +0.000 HD
ENDBRANCH   6   7
BRANCH   1  13
ATOM     12  C   UNL     1      46.592   4.187  14.593  0.00  0.00    +0.000 C 
ATOM     13  C   UNL     1      47.304   4.450  15.923  0.00  0.00    +0.000 C 
ATOM     14  C   UNL     1      48.058   3.183  16.353  0.00  0.00    +0.000 C 
ENDBRANCH   1  13
BRANCH   3  15
ATOM     15  C   UNL     1      49.651   7.349  12.803  0.00  0.00    +0.000 C 
BRANCH  15  16
ATOM     16  C   UNL     1      48.796   8.448  12.158  0.00  0.00    +0.000 C 
BRANCH  16  17
ATOM     17  C   UNL     1      47.357   8.009  12.045  0.00  0.00    +0.000 A 
ATOM     18  C   UNL     1      46.311   8.856  12.416  0.00  0.00    +0.000 A 
ATOM     19  C   UNL     1      44.992   8.447  12.245  0.00  0.00    +0.000 A 
ATOM     20  C   UNL     1      44.709   7.202  11.674  0.00  0.00    +0.000 A 
ATOM     21  C   UNL     1      45.736   6.342  11.248  0.00  0.00    +0.000 A 
ATOM     22  C   UNL     1      47.058   6.758  11.480  0.00  0.00    +0.000 A 
BRANCH  21  23
ATOM     23  C   UNL     1      45.457   5.104  10.487  0.00  0.00    +0.000 A 
ATOM     24  C   UNL     1      44.836   4.006  11.112  0.00  0.00    +0.000 A 
ATOM     25  C   UNL     1      44.451   2.874  10.389  0.00  0.00    +0.000 A 
ATOM     26  C   UNL     1      44.676   2.814   9.018  0.00  0.00    +0.000 A 
ATOM     27  C   UNL     1      45.307   3.875   8.377  0.00  0.00    +0.000 A 
ATOM     28  C   UNL     1      45.704   5.002   9.105  0.00  0.00    +0.000 A 
ENDBRANCH  21  23
ENDBRANCH  16  17
ENDBRANCH  15  16
ENDBRANCH   3  15
TORSDOF 6
ENDMDL
MODEL 7
REMARK VINA RESULT:    -6.992      1.917      3.577
REMARK INTER + INTRA:         -10.506
REMARK INTER:                  -9.483
REMARK INTRA:                  -1.023
REMARK UNBOUND:                -1.061
REMARK  Name = 
REMARK  8 active torsions:
REMARK  status: ('A' for Active; 'I' for Inactive)
REMARK    1  A    between atoms: C_1  and  C_2
REMARK    2  A    between atoms: C_2  and  C_3
REMARK    3  A    between atoms: C_2  and  C_4
REMARK    4  A    between atoms: C_6  and  C_7
REMARK    5  A    between atoms: C_7  and  C_8
REMARK    6  A    between atoms: C_8  and  C_9
REMARK    7  A    between atoms: C_13  and  C_14
REMARK    8  A    between atoms: C_23  and  C_24
REMARK                            x       y       z     vdW  Elec       q    Type
REMARK                         _______ _______ _______ _____ _____    ______ ____
ROOT
ATOM      1  C   UNL     1      49.563   4.496  17.065  0.00  0.00    +0.000 A 
ATOM      2  N   UNL     1      48.828   5.371  16.317  0.00  0.00    +0.000 NA
ATOM      3  C   UNL     1      49.364   6.549  15.933  0.00  0.00    +0.000 A 
ATOM      4  C   UNL     1      50.661   6.904  16.267  0.00  0.00    +0.000 A 
ATOM      5  C   UNL     1      51.420   6.020  17.034  0.00  0.00    +0.000 A 
ATOM      6  C   UNL     1      50.882   4.790  17.438  0.00  0.00    +0.000 A 
ENDROOT
BRANCH   6   7
ATOM      7  C   UNL     1      51.711   3.875  18.273  0.00  0.00    +0.000 C 
ATOM      8  N   UNL     1      51.737   4.116  19.624  0.00  0.00    +0.000 N 
ATOM      9  O   UNL     1      52.354   2.947  17.813  0.00  0.00    +0.000 OA
ATOM     10  H   UNL     1      51.359   4.948  20.055  0.00  0.00    +0.000 HD
ATOM     11  H   UNL     1      52.341   3.526  20.177  0.00  0.00    +0.000 HD
ENDBRANCH   6   7
BRANCH   1  13
ATOM     12  C   UNL     1      47.307   3.508  17.441  0.00  0.00    +0.000 C 
ATOM     13  C   UNL     1      48.815   3.247  17.494  0.00  0.00    +0.000 C 
ATOM     14  C   UNL     1      49.149   2.029  16.620  0.00  0.00    +0.000 C 
ENDBRANCH   1  13
BRANCH   3  15
ATOM     15  C   UNL     1      48.528   7.443  15.053  0.00  0.00    +0.000 C 
BRANCH  15  16
ATOM     16  C   UNL     1      48.658   7.116  13.560  0.00  0.00    +0.000 C 
BRANCH  16  17
ATOM     17  C   UNL     1      47.319   7.216  12.871  0.00  0.00    +0.000 A 
ATOM     18  C   UNL     1      46.606   8.416  12.848  0.00  0.00    +0.000 A 
ATOM     19  C   UNL     1      45.401   8.495  12.156  0.00  0.00    +0.000 A 
ATOM     20  C   UNL     1      44.918   7.385  11.455  0.00  0.00    +0.000 A 
ATOM     21  C   UNL     1      45.632   6.174  11.420  0.00  0.00    +0.000 A 
ATOM     22  C   UNL     1      46.818   6.107  12.170  0.00  0.00    +0.000 A 
BRANCH  21  23
ATOM     23  C   UNL     1      45.226   5.050  10.547  0.00  0.00    +0.000 A 
ATOM     24  C   UNL     1      45.580   5.040   9.184  0.00  0.00    +0.000 A 
ATOM     25  C   UNL     1      45.318   3.936   8.368  0.00  0.00    +0.000 A 
ATOM     26  C   UNL     1      44.694   2.812   8.898  0.00  0.00    +0.000 A 
ATOM     27  C   UNL     1      44.312   2.802  10.236  0.00  0.00    +0.000 A 
ATOM     28  C   UNL     1      44.565   3.913  11.048  0.00  0.00    +0.000 A 
ENDBRANCH  21  23
ENDBRANCH  16  17
ENDBRANCH  15  16
ENDBRANCH   3  15
TORSDOF 6
ENDMDL
MODEL 8
REMARK VINA RESULT:    -6.314      2.789      5.227
REMARK INTER + INTRA:          -9.590
REMARK INTER:                  -8.026
REMARK INTRA:                  -1.565
REMARK UNBOUND:                -1.061
REMARK  Name = 
REMARK  8 active torsions:
REMARK  status: ('A' for Active; 'I' for Inactive)
REMARK    1  A    between atoms: C_1  and  C_2
REMARK    2  A    between atoms: C_2  and  C_3
REMARK    3  A    between atoms: C_2  and  C_4
REMARK    4  A    between atoms: C_6  and  C_7
REMARK    5  A    between atoms: C_7  and  C_8
REMARK    6  A    between atoms: C_8  and  C_9
REMARK    7  A    between atoms: C_13  and  C_14
REMARK    8  A    between atoms: C_23  and  C_24
REMARK                            x       y       z     vdW  Elec       q    Type
REMARK                         _______ _______ _______ _____ _____    ______ ____
ROOT
ATOM      1  C   UNL     1      49.250   4.764  17.994  0.00  0.00    +0.000 A 
ATOM      2  N   UNL     1      49.993   5.240  16.951  0.00  0.00    +0.000 NA
ATOM      3  C   UNL     1      50.566   6.460  17.031  0.00  0.00    +0.000 A 
ATOM      4  C   UNL     1      50.435   7.256  18.157  0.00  0.00    +0.000 A 
ATOM      5  C   UNL     1      49.676   6.782  19.227  0.00  0.00    +0.000 A 
ATOM      6  C   UNL     1      49.077   5.515  19.165  0.00  0.00    +0.000 A 
ENDROOT
BRANCH   6   7
ATOM      7  C   UNL     1      48.255   5.044  20.317  0.00  0.00    +0.000 C 
ATOM      8  N   UNL     1      46.979   5.538  20.415  0.00  0.00    +0.000 N 
ATOM      9  O   UNL     1      48.666   4.260  21.155  0.00  0.00    +0.000 OA
ATOM     10  H   UNL     1      46.625   6.301  19.854  0.00  0.00    +0.000 HD
ATOM     11  H   UNL     1      46.446   5.257  21.225  0.00  0.00    +0.000 HD
ENDBRANCH   6   7
BRANCH   1  13
ATOM     12  C   UNL     1      47.341   3.605  16.890  0.00  0.00    +0.000 C 
ATOM     13  C   UNL     1      48.598   3.416  17.743  0.00  0.00    +0.000 C 
ATOM     14  C   UNL     1      49.541   2.425  17.044  0.00  0.00    +0.000 C 
ENDBRANCH   1  13
BRANCH   3  15
ATOM     15  C   UNL     1      51.428   6.904  15.877  0.00  0.00    +0.000 C 
BRANCH  15  16
ATOM     16  C   UNL     1      51.011   8.261  15.296  0.00  0.00    +0.000 C 
BRANCH  16  17
ATOM     17  C   UNL     1      50.352   8.088  13.950  0.00  0.00    +0.000 A 
ATOM     18  C   UNL     1      50.983   8.505  12.777  0.00  0.00    +0.000 A 
ATOM     19  C   UNL     1      50.377   8.280  11.544  0.00  0.00    +0.000 A 
ATOM     20  C   UNL     1      49.153   7.607  11.475  0.00  0.00    +0.000 A 
ATOM     21  C   UNL     1      48.511   7.134  12.632  0.00  0.00    +0.000 A 
ATOM     22  C   UNL     1      49.119   7.421  13.865  0.00  0.00    +0.000 A 
BRANCH  21  23
ATOM     23  C   UNL     1      47.308   6.274  12.565  0.00  0.00    +0.000 A 
ATOM     24  C   UNL     1      46.471   6.303  11.434  0.00  0.00    +0.000 A 
ATOM     25  C   UNL     1      45.401   5.414  11.293  0.00  0.00    +0.000 A 
ATOM     26  C   UNL     1      45.144   4.471  12.281  0.00  0.00    +0.000 A 
ATOM     27  C   UNL     1      45.942   4.434  13.421  0.00  0.00    +0.000 A 
ATOM     28  C   UNL     1      47.005   5.333  13.567  0.00  0.00    +0.000 A 
ENDBRANCH  21  23
ENDBRANCH  16  17
ENDBRANCH  15  16
ENDBRANCH   3  15
TORSDOF 6
ENDMDL
MODEL 9
REMARK VINA RESULT:    -6.259      3.336      9.231
REMARK INTER + INTRA:          -9.515
REMARK INTER:                  -8.388
REMARK INTRA:                  -1.128
REMARK UNBOUND:                -1.061
REMARK  Name = 
REMARK  8 active torsions:
REMARK  status: ('A' for Active; 'I' for Inactive)
REMARK    1  A    between atoms: C_1  and  C_2
REMARK    2  A    between atoms: C_2  and  C_3
REMARK    3  A    between atoms: C_2  and  C_4
REMARK    4  A    between atoms: C_6  and  C_7
REMARK    5  A    between atoms: C_7  and  C_8
REMARK    6  A    between atoms: C_8  and  C_9
REMARK    7  A    between atoms: C_13  and  C_14
REMARK    8  A    between atoms: C_23  and  C_24
REMARK                            x       y       z     vdW  Elec       q    Type
REMARK                         _______ _______ _______ _____ _____    ______ ____
ROOT
ATOM      1  C   UNL     1      46.473   6.336  12.469  0.00  0.00    +0.000 A 
ATOM      2  N   UNL     1      47.130   6.209  13.660  0.00  0.00    +0.000 NA
ATOM      3  C   UNL     1      47.095   5.037  14.329  0.00  0.00    +0.000 A 
ATOM      4  C   UNL     1      46.416   3.934  13.836  0.00  0.00    +0.000 A 
ATOM      5  C   UNL     1      45.739   4.054  12.622  0.00  0.00    +0.000 A 
ATOM      6  C   UNL     1      45.768   5.261  11.910  0.00  0.00    +0.000 A 
ENDROOT
BRANCH   6   7
ATOM      7  C   UNL     1      45.019   5.363  10.625  0.00  0.00    +0.000 C 
ATOM      8  N   UNL     1      43.704   5.747  10.699  0.00  0.00    +0.000 N 
ATOM      9  O   UNL     1      45.517   5.121   9.539  0.00  0.00    +0.000 OA
ATOM     10  H   UNL     1      43.183   5.814  11.563  0.00  0.00    +0.000 HD
ATOM     11  H   UNL     1      43.187   5.764   9.831  0.00  0.00    +0.000 HD
ENDBRANCH   6   7
BRANCH   1  13
ATOM     12  C   UNL     1      45.472   8.617  12.523  0.00  0.00    +0.000 C 
ATOM     13  C   UNL     1      46.528   7.726  11.862  0.00  0.00    +0.000 C 
ATOM     14  C   UNL     1      47.908   8.383  12.011  0.00  0.00    +0.000 C 
ENDBRANCH   1  13
BRANCH   3  15
ATOM     15  C   UNL     1      47.893   4.936  15.605  0.00  0.00    +0.000 C 
BRANCH  15  16
ATOM     16  C   UNL     1      47.273   3.980  16.632  0.00  0.00    +0.000 C 
BRANCH  16  17
ATOM     17  C   UNL     1      47.685   4.359  18.033  0.00  0.00    +0.000 A 
ATOM     18  C   UNL     1      48.504   3.525  18.796  0.00  0.00    +0.000 A 
ATOM     19  C   UNL     1      48.917   3.927  20.064  0.00  0.00    +0.000 A 
ATOM     20  C   UNL     1      48.541   5.179  20.562  0.00  0.00    +0.000 A 
ATOM     21  C   UNL     1      47.755   6.062  19.803  0.00  0.00    +0.000 A 
ATOM     22  C   UNL     1      47.309   5.610  18.550  0.00  0.00    +0.000 A 
BRANCH  21  23
ATOM     23  C   UNL     1      47.493   7.452  20.241  0.00  0.00    +0.000 A 
ATOM     24  C   UNL     1      47.314   8.478  19.293  0.00  0.00    +0.000 A 
ATOM     25  C   UNL     1      46.945   9.770  19.675  0.00  0.00    +0.000 A 
ATOM     26  C   UNL     1      46.743  10.069  21.018  0.00  0.00    +0.000 A 
ATOM     27  C   UNL     1      46.935   9.081  21.978  0.00  0.00    +0.000 A 
ATOM     28  C   UNL     1      47.317   7.790  21.596  0.00  0.00    +0.000 A 
ENDBRANCH  21  23
ENDBRANCH  16  17
ENDBRANCH  15  16
ENDBRANCH   3  15
TORSDOF 6
ENDMDL
