MODEL 1
REMARK VINA RESULT:    -8.605      0.000      0.000
REMARK INTER + INTRA:         -12.651
REMARK INTER:                 -11.623
REMARK INTRA:                  -1.028
REMARK UNBOUND:                -1.028
REMARK  Name = 
REMARK  6 active torsions:
REMARK  status: ('A' for Active; 'I' for Inactive)
REMARK    1  A    between atoms: C_2  and  C_25
REMARK    2  A    between atoms: N_3  and  C_4
REMARK    3  A    between atoms: C_4  and  C_5
REMARK    4  A    between atoms: C_7  and  C_8
REMARK    5  A    between atoms: C_8  and  N_9
REMARK    6  A    between atoms: C_10  and  C_12
REMARK                            x       y       z     vdW  Elec       q    Type
REMARK                         _______ _______ _______ _____ _____    ______ ____
ROOT
ATOM      1  C   UNL     1      45.824   5.780  11.752  0.00  0.00    +0.000 A 
ATOM      2  C   UNL     1      45.724   4.968  12.885  0.00  0.00    +0.000 A 
ATOM      3  C   UNL     1      46.641   5.132  13.930  0.00  0.00    +0.000 A 
ATOM      4  C   UNL     1      47.643   6.094  13.786  0.00  0.00    +0.000 A 
ATOM      5  C   UNL     1      47.661   6.868  12.638  0.00  0.00    +0.000 A 
ATOM      6  N   UNL     1      46.773   6.742  11.630  0.00  0.00    +0.000 NA
ENDROOT
BRANCH   1   7
ATOM      7  C   UNL     1      44.843   5.626  10.613  0.00  0.00    +0.000 C 
BRANCH   7  10
ATOM      8  O   UNL     1      44.150   3.030   9.812  0.00  0.00    +0.000 OA
ATOM      9  C   UNL     1      45.046   3.608   9.204  0.00  0.00    +0.000 C 
ATOM     10  N   UNL     1      45.416   4.911   9.494  0.00  0.00    +0.000 N 
ATOM     11  H   UNL     1      46.258   5.271   9.056  0.00  0.00    +0.000 HD
BRANCH   9  12
ATOM     12  C   UNL     1      45.817   2.948   8.081  0.00  0.00    +0.000 A 
ATOM     13  N   UNL     1      46.054   3.683   6.978  0.00  0.00    +0.000 NA
ATOM     14  C   UNL     1      46.773   3.080   6.014  0.00  0.00    +0.000 A 
ATOM     15  C   UNL     1      47.250   1.792   6.117  0.00  0.00    +0.000 A 
ATOM     16  C   UNL     1      46.947   1.130   7.288  0.00  0.00    +0.000 A 
ATOM     17  N   UNL     1      46.236   1.676   8.294  0.00  0.00    +0.000 NA
ENDBRANCH   9  12
ENDBRANCH   7  10
ENDBRANCH   1   7
BRANCH   3  18
ATOM     18  C   UNL     1      46.587   4.268  15.161  0.00  0.00    +0.000 C 
BRANCH  18  19
ATOM     19  N   UNL     1      47.872   4.199  15.810  0.00  0.00    +0.000 N 
ATOM     20  C   UNL     1      47.989   4.391  17.164  0.00  0.00    +0.000 C 
ATOM     21  O   UNL     1      47.008   4.590  17.876  0.00  0.00    +0.000 OA
ATOM     22  H   UNL     1      48.698   4.269  15.224  0.00  0.00    +0.000 HD
BRANCH  20  23
ATOM     23  C   UNL     1      49.339   4.286  17.731  0.00  0.00    +0.000 A 
ATOM     24  C   UNL     1      49.833   5.317  18.521  0.00  0.00    +0.000 A 
ATOM     25  S   UNL     1      51.389   5.017  19.148  0.00  0.00    +0.000 S 
ATOM     26  C   UNL     1      51.482   3.520  18.347  0.00  0.00    +0.000 A 
ATOM     27  N   UNL     1      52.592   2.740  18.449  0.00  0.00    +0.000 NA
ATOM     28  C   UNL     1      52.541   1.648  17.765  0.00  0.00    +0.000 A 
ATOM     29  N   UNL     1      51.480   1.260  16.989  0.00  0.00    +0.000 N 
ATOM     30  C   UNL     1      50.328   2.002  16.874  0.00  0.00    +0.000 A 
ATOM     31  O   UNL     1      49.382   1.613  16.196  0.00  0.00    +0.000 OA
ATOM     32  C   UNL     1      50.335   3.246  17.620  0.00  0.00    +0.000 A 
ATOM     33  H   UNL     1      51.503   0.388  16.482  0.00  0.00    +0.000 HD
ENDBRANCH  20  23
ENDBRANCH  18  19
ENDBRANCH   3  18
TORSDOF 6
ENDMDL
MODEL 2
REMARK VINA RESULT:    -8.502      1.718      2.126
REMARK INTER + INTRA:         -12.512
REMARK INTER:                 -11.529
REMARK INTRA:                  -0.983
REMARK UNBOUND:                -1.028
REMARK  Name = 
REMARK  6 active torsions:
REMARK  status: ('A' for Active; 'I' for Inactive)
REMARK    1  A    between atoms: C_2  and  C_25
REMARK    2  A    between atoms: N_3  and  C_4
REMARK    3  A    between atoms: C_4  and  C_5
REMARK    4  A    between atoms: C_7  and  C_8
REMARK    5  A    between atoms: C_8  and  N_9
REMARK    6  A    between atoms: C_10  and  C_12
REMARK                            x       y       z     vdW  Elec       q    Type
REMARK                         _______ _______ _______ _____ _____    ______ ____
ROOT
ATOM      1  C   UNL     1      44.962   5.597  11.677  0.00  0.00    +0.000 A 
ATOM      2  C   UNL     1      45.477   4.652  12.568  0.00  0.00    +0.000 A 
ATOM      3  C   UNL     1      46.319   5.073  13.605  0.00  0.00    +0.000 A 
ATOM      4  C   UNL     1      46.632   6.431  13.692  0.00  0.00    +0.000 A 
ATOM      5  C   UNL     1      46.066   7.303  12.778  0.00  0.00    +0.000 A 
ATOM      6  N   UNL     1      45.234   6.921  11.786  0.00  0.00    +0.000 NA
ENDROOT
BRANCH   1   7
ATOM      7  C   UNL     1      44.047   5.167  10.553  0.00  0.00    +0.000 C 
BRANCH   7  10
ATOM      8  O   UNL     1      44.011   2.449   9.868  0.00  0.00    +0.000 OA
ATOM      9  C   UNL     1      44.736   3.202   9.226  0.00  0.00    +0.000 C 
ATOM     10  N   UNL     1      44.775   4.567   9.457  0.00  0.00    +0.000 N 
ATOM     11  H   UNL     1      45.502   5.104   8.994  0.00  0.00    +0.000 HD
BRANCH   9  12
ATOM     12  C   UNL     1      45.643   2.704   8.121  0.00  0.00    +0.000 A 
ATOM     13  N   UNL     1      45.859   3.528   7.079  0.00  0.00    +0.000 NA
ATOM     14  C   UNL     1      46.698   3.071   6.132  0.00  0.00    +0.000 A 
ATOM     15  C   UNL     1      47.313   1.841   6.195  0.00  0.00    +0.000 A 
ATOM     16  C   UNL     1      47.020   1.077   7.304  0.00  0.00    +0.000 A 
ATOM     17  N   UNL     1      46.192   1.476   8.290  0.00  0.00    +0.000 NA
ENDBRANCH   9  12
ENDBRANCH   7  10
ENDBRANCH   1   7
BRANCH   3  18
ATOM     18  C   UNL     1      46.914   4.090  14.577  0.00  0.00    +0.000 C 
BRANCH  18  19
ATOM     19  N   UNL     1      47.431   4.756  15.745  0.00  0.00    +0.000 N 
ATOM     20  C   UNL     1      47.185   4.266  17.003  0.00  0.00    +0.000 C 
ATOM     21  O   UNL     1      46.552   3.229  17.181  0.00  0.00    +0.000 OA
ATOM     22  H   UNL     1      47.747   5.715  15.637  0.00  0.00    +0.000 HD
BRANCH  20  23
ATOM     23  C   UNL     1      47.768   5.010  18.127  0.00  0.00    +0.000 A 
ATOM     24  C   UNL     1      46.939   5.741  18.969  0.00  0.00    +0.000 A 
ATOM     25  S   UNL     1      47.762   6.498  20.255  0.00  0.00    +0.000 S 
ATOM     26  C   UNL     1      49.264   5.918  19.706  0.00  0.00    +0.000 A 
ATOM     27  N   UNL     1      50.414   6.227  20.363  0.00  0.00    +0.000 NA
ATOM     28  C   UNL     1      51.483   5.749  19.820  0.00  0.00    +0.000 A 
ATOM     29  N   UNL     1      51.507   4.987  18.681  0.00  0.00    +0.000 N 
ATOM     30  C   UNL     1      50.369   4.629  17.998  0.00  0.00    +0.000 A 
ATOM     31  O   UNL     1      50.421   3.918  16.999  0.00  0.00    +0.000 OA
ATOM     32  C   UNL     1      49.138   5.146  18.564  0.00  0.00    +0.000 A 
ATOM     33  H   UNL     1      52.379   4.639  18.312  0.00  0.00    +0.000 HD
ENDBRANCH  20  23
ENDBRANCH  18  19
ENDBRANCH   3  18
TORSDOF 6
ENDMDL
MODEL 3
REMARK VINA RESULT:    -8.367      2.176      2.974
REMARK INTER + INTRA:         -12.330
REMARK INTER:                 -11.169
REMARK INTRA:                  -1.162
REMARK UNBOUND:                -1.028
REMARK  Name = 
REMARK  6 active torsions:
REMARK  status: ('A' for Active; 'I' for Inactive)
REMARK    1  A    between atoms: C_2  and  C_25
REMARK    2  A    between atoms: N_3  and  C_4
REMARK    3  A    between atoms: C_4  and  C_5
REMARK    4  A    between atoms: C_7  and  C_8
REMARK    5  A    between atoms: C_8  and  N_9
REMARK    6  A    between atoms: C_10  and  C_12
REMARK                            x       y       z     vdW  Elec       q    Type
REMARK                         _______ _______ _______ _____ _____    ______ ____
ROOT
ATOM      1  C   UNL     1      45.262   6.935  11.420  0.00  0.00    +0.000 A 
ATOM      2  C   UNL     1      46.609   6.757  11.744  0.00  0.00    +0.000 A 
ATOM      3  C   UNL     1      47.359   7.852  12.188  0.00  0.00    +0.000 A 
ATOM      4  C   UNL     1      46.730   9.096  12.268  0.00  0.00    +0.000 A 
ATOM      5  C   UNL     1      45.386   9.183  11.944  0.00  0.00    +0.000 A 
ATOM      6  N   UNL     1      44.640   8.135  11.535  0.00  0.00    +0.000 NA
ENDROOT
BRANCH   1   7
ATOM      7  C   UNL     1      44.430   5.767  10.943  0.00  0.00    +0.000 C 
BRANCH   7  10
ATOM      8  O   UNL     1      43.797   3.168  10.101  0.00  0.00    +0.000 OA
ATOM      9  C   UNL     1      44.715   3.756   9.537  0.00  0.00    +0.000 C 
ATOM     10  N   UNL     1      45.060   5.061   9.848  0.00  0.00    +0.000 N 
ATOM     11  H   UNL     1      45.918   5.430   9.450  0.00  0.00    +0.000 HD
BRANCH   9  12
ATOM     12  C   UNL     1      45.542   3.108   8.449  0.00  0.00    +0.000 A 
ATOM     13  N   UNL     1      45.940   3.888   7.426  0.00  0.00    +0.000 NA
ATOM     14  C   UNL     1      46.704   3.290   6.494  0.00  0.00    +0.000 A 
ATOM     15  C   UNL     1      47.072   1.965   6.552  0.00  0.00    +0.000 A 
ATOM     16  C   UNL     1      46.608   1.258   7.641  0.00  0.00    +0.000 A 
ATOM     17  N   UNL     1      45.844   1.796   8.612  0.00  0.00    +0.000 NA
ENDBRANCH   9  12
ENDBRANCH   7  10
ENDBRANCH   1   7
BRANCH   3  18
ATOM     18  C   UNL     1      48.819   7.714  12.530  0.00  0.00    +0.000 C 
BRANCH  18  19
ATOM     19  N   UNL     1      49.009   6.887  13.694  0.00  0.00    +0.000 N 
ATOM     20  C   UNL     1      48.940   7.419  14.956  0.00  0.00    +0.000 C 
ATOM     21  O   UNL     1      48.678   8.604  15.146  0.00  0.00    +0.000 OA
ATOM     22  H   UNL     1      49.447   5.981  13.558  0.00  0.00    +0.000 HD
BRANCH  20  23
ATOM     23  C   UNL     1      49.134   6.490  16.076  0.00  0.00    +0.000 A 
ATOM     24  C   UNL     1      50.119   6.750  17.020  0.00  0.00    +0.000 A 
ATOM     25  S   UNL     1      50.178   5.609  18.285  0.00  0.00    +0.000 S 
ATOM     26  C   UNL     1      48.922   4.695  17.591  0.00  0.00    +0.000 A 
ATOM     27  N   UNL     1      48.487   3.548  18.177  0.00  0.00    +0.000 NA
ATOM     28  C   UNL     1      47.553   2.939  17.528  0.00  0.00    +0.000 A 
ATOM     29  N   UNL     1      47.011   3.374  16.346  0.00  0.00    +0.000 N 
ATOM     30  C   UNL     1      47.401   4.539  15.729  0.00  0.00    +0.000 A 
ATOM     31  O   UNL     1      46.874   4.919  14.688  0.00  0.00    +0.000 OA
ATOM     32  C   UNL     1      48.455   5.261  16.416  0.00  0.00    +0.000 A 
ATOM     33  H   UNL     1      46.277   2.851  15.892  0.00  0.00    +0.000 HD
ENDBRANCH  20  23
ENDBRANCH  18  19
ENDBRANCH   3  18
TORSDOF 6
ENDMDL
MODEL 4
REMARK VINA RESULT:    -8.171      2.897      3.408
REMARK INTER + INTRA:         -12.065
REMARK INTER:                 -11.077
REMARK INTRA:                  -0.988
REMARK UNBOUND:                -1.028
REMARK  Name = 
REMARK  6 active torsions:
REMARK  status: ('A' for Active; 'I' for Inactive)
REMARK    1  A    between atoms: C_2  and  C_25
REMARK    2  A    between atoms: N_3  and  C_4
REMARK    3  A    between atoms: C_4  and  C_5
REMARK    4  A    between atoms: C_7  and  C_8
REMARK    5  A    between atoms: C_8  and  N_9
REMARK    6  A    between atoms: C_10  and  C_12
REMARK                            x       y       z     vdW  Elec       q    Type
REMARK                         _______ _______ _______ _____ _____    ______ ____
ROOT
ATOM      1  C   UNL     1      44.728   6.087  11.423  0.00  0.00    +0.000 A 
ATOM      2  C   UNL     1      45.807   5.583  12.155  0.00  0.00    +0.000 A 
ATOM      3  C   UNL     1      46.575   6.456  12.935  0.00  0.00    +0.000 A 
ATOM      4  C   UNL     1      46.242   7.812  12.933  0.00  0.00    +0.000 A 
ATOM      5  C   UNL     1      45.147   8.227  12.193  0.00  0.00    +0.000 A 
ATOM      6  N   UNL     1      44.380   7.398  11.453  0.00  0.00    +0.000 NA
ENDROOT
BRANCH   1   7
ATOM      7  C   UNL     1      43.881   5.164  10.578  0.00  0.00    +0.000 C 
BRANCH   7  10
ATOM      8  O   UNL     1      43.998   2.426   9.988  0.00  0.00    +0.000 OA
ATOM      9  C   UNL     1      44.675   3.196   9.315  0.00  0.00    +0.000 C 
ATOM     10  N   UNL     1      44.637   4.569   9.498  0.00  0.00    +0.000 N 
ATOM     11  H   UNL     1      45.329   5.129   9.011  0.00  0.00    +0.000 HD
BRANCH   9  12
ATOM     12  C   UNL     1      45.603   2.712   8.222  0.00  0.00    +0.000 A 
ATOM     13  N   UNL     1      45.854   3.557   7.204  0.00  0.00    +0.000 NA
ATOM     14  C   UNL     1      46.710   3.111   6.268  0.00  0.00    +0.000 A 
ATOM     15  C   UNL     1      47.310   1.872   6.317  0.00  0.00    +0.000 A 
ATOM     16  C   UNL     1      46.981   1.087   7.402  0.00  0.00    +0.000 A 
ATOM     17  N   UNL     1      46.134   1.474   8.376  0.00  0.00    +0.000 NA
ENDBRANCH   9  12
ENDBRANCH   7  10
ENDBRANCH   1   7
BRANCH   3  18
ATOM     18  C   UNL     1      47.759   5.964  13.724  0.00  0.00    +0.000 C 
BRANCH  18  19
ATOM     19  N   UNL     1      47.764   6.510  15.057  0.00  0.00    +0.000 N 
ATOM     20  C   UNL     1      48.944   6.776  15.705  0.00  0.00    +0.000 C 
ATOM     21  O   UNL     1      50.033   6.598  15.166  0.00  0.00    +0.000 OA
ATOM     22  H   UNL     1      46.904   6.445  15.594  0.00  0.00    +0.000 HD
BRANCH  20  23
ATOM     23  C   UNL     1      48.841   7.344  17.055  0.00  0.00    +0.000 A 
ATOM     24  C   UNL     1      49.371   8.602  17.312  0.00  0.00    +0.000 A 
ATOM     25  S   UNL     1      49.119   9.141  18.910  0.00  0.00    +0.000 S 
ATOM     26  C   UNL     1      48.338   7.690  19.333  0.00  0.00    +0.000 A 
ATOM     27  N   UNL     1      47.879   7.486  20.596  0.00  0.00    +0.000 NA
ATOM     28  C   UNL     1      47.337   6.331  20.787  0.00  0.00    +0.000 A 
ATOM     29  N   UNL     1      47.209   5.360  19.829  0.00  0.00    +0.000 N 
ATOM     30  C   UNL     1      47.635   5.529  18.532  0.00  0.00    +0.000 A 
ATOM     31  O   UNL     1      47.476   4.653  17.688  0.00  0.00    +0.000 OA
ATOM     32  C   UNL     1      48.258   6.812  18.265  0.00  0.00    +0.000 A 
ATOM     33  H   UNL     1      46.768   4.479  20.043  0.00  0.00    +0.000 HD
ENDBRANCH  20  23
ENDBRANCH  18  19
ENDBRANCH   3  18
TORSDOF 6
ENDMDL
MODEL 5
REMARK VINA RESULT:    -7.641      2.494      3.713
REMARK INTER + INTRA:         -11.350
REMARK INTER:                 -10.433
REMARK INTRA:                  -0.917
REMARK UNBOUND:                -1.028
REMARK  Name = 
REMARK  6 active torsions:
REMARK  status: ('A' for Active; 'I' for Inactive)
REMARK    1  A    between atoms: C_2  and  C_25
REMARK    2  A    between atoms: N_3  and  C_4
REMARK    3  A    between atoms: C_4  and  C_5
REMARK    4  A    between atoms: C_7  and  C_8
REMARK    5  A    between atoms: C_8  and  N_9
REMARK    6  A    between atoms: C_10  and  C_12
REMARK                            x       y       z     vdW  Elec       q    Type
REMARK                         _______ _______ _______ _____ _____    ______ ____
ROOT
ATOM      1  C   UNL     1      45.730   5.685  11.888  0.00  0.00    +0.000 A 
ATOM      2  C   UNL     1      45.963   4.827  12.966  0.00  0.00    +0.000 A 
ATOM      3  C   UNL     1      46.915   5.179  13.931  0.00  0.00    +0.000 A 
ATOM      4  C   UNL     1      47.616   6.374  13.763  0.00  0.00    +0.000 A 
ATOM      5  C   UNL     1      47.313   7.176  12.675  0.00  0.00    +0.000 A 
ATOM      6  N   UNL     1      46.383   6.866  11.746  0.00  0.00    +0.000 NA
ENDROOT
BRANCH   1   7
ATOM      7  C   UNL     1      44.704   5.330  10.837  0.00  0.00    +0.000 C 
BRANCH   7  10
ATOM      8  O   UNL     1      44.036   2.777   9.890  0.00  0.00    +0.000 OA
ATOM      9  C   UNL     1      44.941   3.388   9.330  0.00  0.00    +0.000 C 
ATOM     10  N   UNL     1      45.301   4.675   9.694  0.00  0.00    +0.000 N 
ATOM     11  H   UNL     1      46.150   5.059   9.291  0.00  0.00    +0.000 HD
BRANCH   9  12
ATOM     12  C   UNL     1      45.736   2.789   8.190  0.00  0.00    +0.000 A 
ATOM     13  N   UNL     1      45.966   3.571   7.118  0.00  0.00    +0.000 NA
ATOM     14  C   UNL     1      46.705   3.022   6.138  0.00  0.00    +0.000 A 
ATOM     15  C   UNL     1      47.209   1.742   6.195  0.00  0.00    +0.000 A 
ATOM     16  C   UNL     1      46.911   1.028   7.337  0.00  0.00    +0.000 A 
ATOM     17  N   UNL     1      46.181   1.519   8.357  0.00  0.00    +0.000 NA
ENDBRANCH   9  12
ENDBRANCH   7  10
ENDBRANCH   1   7
BRANCH   3  18
ATOM     18  C   UNL     1      47.216   4.277  15.098  0.00  0.00    +0.000 C 
BRANCH  18  19
ATOM     19  N   UNL     1      47.204   5.007  16.341  0.00  0.00    +0.000 N 
ATOM     20  C   UNL     1      48.347   5.146  17.087  0.00  0.00    +0.000 C 
ATOM     21  O   UNL     1      49.425   4.691  16.712  0.00  0.00    +0.000 OA
ATOM     22  H   UNL     1      46.303   5.183  16.773  0.00  0.00    +0.000 HD
BRANCH  20  23
ATOM     23  C   UNL     1      48.234   5.919  18.330  0.00  0.00    +0.000 A 
ATOM     24  C   UNL     1      48.058   5.255  19.537  0.00  0.00    +0.000 A 
ATOM     25  S   UNL     1      48.002   6.290  20.890  0.00  0.00    +0.000 S 
ATOM     26  C   UNL     1      48.161   7.670  19.907  0.00  0.00    +0.000 A 
ATOM     27  N   UNL     1      48.165   8.917  20.450  0.00  0.00    +0.000 NA
ATOM     28  C   UNL     1      48.260   9.873  19.588  0.00  0.00    +0.000 A 
ATOM     29  N   UNL     1      48.353   9.696  18.232  0.00  0.00    +0.000 N 
ATOM     30  C   UNL     1      48.377   8.456  17.640  0.00  0.00    +0.000 A 
ATOM     31  O   UNL     1      48.494   8.329  16.425  0.00  0.00    +0.000 OA
ATOM     32  C   UNL     1      48.268   7.344  18.566  0.00  0.00    +0.000 A 
ATOM     33  H   UNL     1      48.429  10.489  17.613  0.00  0.00    +0.000 HD
ENDBRANCH  20  23
ENDBRANCH  18  19
ENDBRANCH   3  18
TORSDOF 6
ENDMDL
MODEL 6
REMARK VINA RESULT:    -7.501      3.117      4.082
REMARK INTER + INTRA:         -11.160
REMARK INTER:                 -10.093
REMARK INTRA:                  -1.067
REMARK UNBOUND:                -1.028
REMARK  Name = 
REMARK  6 active torsions:
REMARK  status: ('A' for Active; 'I' for Inactive)
REMARK    1  A    between atoms: C_2  and  C_25
REMARK    2  A    between atoms: N_3  and  C_4
REMARK    3  A    between atoms: C_4  and  C_5
REMARK    4  A    between atoms: C_7  and  C_8
REMARK    5  A    between atoms: C_8  and  N_9
REMARK    6  A    between atoms: C_10  and  C_12
REMARK                            x       y       z     vdW  Elec       q    Type
REMARK                         _______ _______ _______ _____ _____    ______ ____
ROOT
ATOM      1  C   UNL     1      44.580   5.322  11.429  0.00  0.00    +0.000 A 
ATOM      2  C   UNL     1      44.865   6.677  11.618  0.00  0.00    +0.000 A 
ATOM      3  C   UNL     1      45.641   7.068  12.715  0.00  0.00    +0.000 A 
ATOM      4  C   UNL     1      46.085   6.081  13.598  0.00  0.00    +0.000 A 
ATOM      5  C   UNL     1      45.772   4.759  13.328  0.00  0.00    +0.000 A 
ATOM      6  N   UNL     1      45.044   4.359  12.264  0.00  0.00    +0.000 NA
ENDROOT
BRANCH   1   7
ATOM      7  C   UNL     1      43.748   4.874  10.249  0.00  0.00    +0.000 C 
BRANCH   7  10
ATOM      8  O   UNL     1      44.316   2.180   9.720  0.00  0.00    +0.000 OA
ATOM      9  C   UNL     1      44.833   3.035   9.008  0.00  0.00    +0.000 C 
ATOM     10  N   UNL     1      44.565   4.386   9.160  0.00  0.00    +0.000 N 
ATOM     11  H   UNL     1      45.138   5.042   8.639  0.00  0.00    +0.000 HD
BRANCH   9  12
ATOM     12  C   UNL     1      45.801   2.687   7.898  0.00  0.00    +0.000 A 
ATOM     13  N   UNL     1      45.931   3.569   6.890  0.00  0.00    +0.000 NA
ATOM     14  C   UNL     1      46.825   3.247   5.938  0.00  0.00    +0.000 A 
ATOM     15  C   UNL     1      47.575   2.093   5.963  0.00  0.00    +0.000 A 
ATOM     16  C   UNL     1      47.361   1.258   7.040  0.00  0.00    +0.000 A 
ATOM     17  N   UNL     1      46.485   1.523   8.029  0.00  0.00    +0.000 NA
ENDBRANCH   9  12
ENDBRANCH   7  10
ENDBRANCH   1   7
BRANCH   3  18
ATOM     18  C   UNL     1      45.957   8.517  12.972  0.00  0.00    +0.000 C 
BRANCH  18  19
ATOM     19  N   UNL     1      46.899   8.664  14.053  0.00  0.00    +0.000 N 
ATOM     20  C   UNL     1      48.043   9.405  13.894  0.00  0.00    +0.000 C 
ATOM     21  O   UNL     1      48.290   9.999  12.848  0.00  0.00    +0.000 OA
ATOM     22  H   UNL     1      46.833   8.009  14.825  0.00  0.00    +0.000 HD
BRANCH  20  23
ATOM     23  C   UNL     1      48.931   9.506  15.059  0.00  0.00    +0.000 A 
ATOM     24  C   UNL     1      49.142  10.742  15.657  0.00  0.00    +0.000 A 
ATOM     25  S   UNL     1      50.150  10.680  17.029  0.00  0.00    +0.000 S 
ATOM     26  C   UNL     1      50.385   9.005  16.847  0.00  0.00    +0.000 A 
ATOM     27  N   UNL     1      51.182   8.313  17.705  0.00  0.00    +0.000 NA
ATOM     28  C   UNL     1      51.297   7.058  17.431  0.00  0.00    +0.000 A 
ATOM     29  N   UNL     1      50.685   6.428  16.379  0.00  0.00    +0.000 N 
ATOM     30  C   UNL     1      49.851   7.079  15.501  0.00  0.00    +0.000 A 
ATOM     31  O   UNL     1      49.291   6.481  14.587  0.00  0.00    +0.000 OA
ATOM     32  C   UNL     1      49.692   8.498  15.761  0.00  0.00    +0.000 A 
ATOM     33  H   UNL     1      50.813   5.439  16.224  0.00  0.00    +0.000 HD
ENDBRANCH  20  23
ENDBRANCH  18  19
ENDBRANCH   3  18
TORSDOF 6
ENDMDL
MODEL 7
REMARK VINA RESULT:    -7.408      3.959      8.104
REMARK INTER + INTRA:         -11.034
REMARK INTER:                  -9.551
REMARK INTRA:                  -1.483
REMARK UNBOUND:                -1.028
REMARK  Name = 
REMARK  6 active torsions:
REMARK  status: ('A' for Active; 'I' for Inactive)
REMARK    1  A    between atoms: C_2  and  C_25
REMARK    2  A    between atoms: N_3  and  C_4
REMARK    3  A    between atoms: C_4  and  C_5
REMARK    4  A    between atoms: C_7  and  C_8
REMARK    5  A    between atoms: C_8  and  N_9
REMARK    6  A    between atoms: C_10  and  C_12
REMARK                            x       y       z     vdW  Elec       q    Type
REMARK                         _______ _______ _______ _____ _____    ______ ____
ROOT
ATOM      1  C   UNL     1      50.472   5.435  17.160  0.00  0.00    +0.000 A 
ATOM      2  C   UNL     1      49.139   5.154  16.846  0.00  0.00    +0.000 A 
ATOM      3  C   UNL     1      48.664   3.844  16.976  0.00  0.00    +0.000 A 
ATOM      4  C   UNL     1      49.556   2.856  17.398  0.00  0.00    +0.000 A 
ATOM      5  C   UNL     1      50.856   3.222  17.705  0.00  0.00    +0.000 A 
ATOM      6  N   UNL     1      51.328   4.483  17.609  0.00  0.00    +0.000 NA
ENDROOT
BRANCH   1   7
ATOM      7  C   UNL     1      51.006   6.843  17.032  0.00  0.00    +0.000 C 
BRANCH   7  10
ATOM      8  O   UNL     1      49.153   8.849  16.398  0.00  0.00    +0.000 OA
ATOM      9  C   UNL     1      49.805   8.349  15.487  0.00  0.00    +0.000 C 
ATOM     10  N   UNL     1      50.781   7.393  15.713  0.00  0.00    +0.000 N 
ATOM     11  H   UNL     1      51.173   6.917  14.906  0.00  0.00    +0.000 HD
BRANCH   9  12
ATOM     12  C   UNL     1      49.603   8.739  14.039  0.00  0.00    +0.000 A 
ATOM     13  N   UNL     1      50.119   7.924  13.100  0.00  0.00    +0.000 NA
ATOM     14  C   UNL     1      49.891   8.280  11.822  0.00  0.00    +0.000 A 
ATOM     15  C   UNL     1      49.180   9.403  11.464  0.00  0.00    +0.000 A 
ATOM     16  C   UNL     1      48.700  10.169  12.505  0.00  0.00    +0.000 A 
ATOM     17  N   UNL     1      48.888   9.868  13.805  0.00  0.00    +0.000 NA
ENDBRANCH   9  12
ENDBRANCH   7  10
ENDBRANCH   1   7
BRANCH   3  18
ATOM     18  C   UNL     1      47.244   3.488  16.629  0.00  0.00    +0.000 C 
BRANCH  18  19
ATOM     19  N   UNL     1      46.671   4.446  15.717  0.00  0.00    +0.000 N 
ATOM     20  C   UNL     1      46.696   4.231  14.362  0.00  0.00    +0.000 C 
ATOM     21  O   UNL     1      47.168   3.206  13.878  0.00  0.00    +0.000 OA
ATOM     22  H   UNL     1      46.493   5.381  16.070  0.00  0.00    +0.000 HD
BRANCH  20  23
ATOM     23  C   UNL     1      46.073   5.260  13.520  0.00  0.00    +0.000 A 
ATOM     24  C   UNL     1      46.744   6.455  13.289  0.00  0.00    +0.000 A 
ATOM     25  S   UNL     1      45.914   7.518  12.246  0.00  0.00    +0.000 S 
ATOM     26  C   UNL     1      44.604   6.442  12.104  0.00  0.00    +0.000 A 
ATOM     27  N   UNL     1      43.518   6.760  11.351  0.00  0.00    +0.000 NA
ATOM     28  C   UNL     1      42.585   5.868  11.357  0.00  0.00    +0.000 A 
ATOM     29  N   UNL     1      42.640   4.685  12.047  0.00  0.00    +0.000 N 
ATOM     30  C   UNL     1      43.726   4.310  12.801  0.00  0.00    +0.000 A 
ATOM     31  O   UNL     1      43.759   3.229  13.382  0.00  0.00    +0.000 OA
ATOM     32  C   UNL     1      44.803   5.281  12.833  0.00  0.00    +0.000 A 
ATOM     33  H   UNL     1      41.876   4.028  12.005  0.00  0.00    +0.000 HD
ENDBRANCH  20  23
ENDBRANCH  18  19
ENDBRANCH   3  18
TORSDOF 6
ENDMDL
MODEL 8
REMARK VINA RESULT:    -7.261      4.327      6.404
REMARK INTER + INTRA:         -10.836
REMARK INTER:                  -9.880
REMARK INTRA:                  -0.956
REMARK UNBOUND:                -1.028
REMARK  Name = 
REMARK  6 active torsions:
REMARK  status: ('A' for Active; 'I' for Inactive)
REMARK    1  A    between atoms: C_2  and  C_25
REMARK    2  A    between atoms: N_3  and  C_4
REMARK    3  A    between atoms: C_4  and  C_5
REMARK    4  A    between atoms: C_7  and  C_8
REMARK    5  A    between atoms: C_8  and  N_9
REMARK    6  A    between atoms: C_10  and  C_12
REMARK                            x       y       z     vdW  Elec       q    Type
REMARK                         _______ _______ _______ _____ _____    ______ ____
ROOT
ATOM      1  C   UNL     1      44.142   6.574  11.526  0.00  0.00    +0.000 A 
ATOM      2  C   UNL     1      45.167   5.901  12.198  0.00  0.00    +0.000 A 
ATOM      3  C   UNL     1      45.016   4.541  12.493  0.00  0.00    +0.000 A 
ATOM      4  C   UNL     1      43.827   3.911  12.121  0.00  0.00    +0.000 A 
ATOM      5  C   UNL     1      42.869   4.647  11.444  0.00  0.00    +0.000 A 
ATOM      6  N   UNL     1      43.004   5.953  11.129  0.00  0.00    +0.000 NA
ENDROOT
BRANCH   1   7
ATOM      7  C   UNL     1      44.284   8.041  11.192  0.00  0.00    +0.000 C 
BRANCH   7  10
ATOM      8  O   UNL     1      43.893  10.587  10.083  0.00  0.00    +0.000 OA
ATOM      9  C   UNL     1      42.910   9.963  10.472  0.00  0.00    +0.000 C 
ATOM     10  N   UNL     1      43.003   8.678  10.981  0.00  0.00    +0.000 N 
ATOM     11  H   UNL     1      42.176   8.284  11.420  0.00  0.00    +0.000 HD
BRANCH   9  12
ATOM     12  C   UNL     1      41.513  10.543  10.423  0.00  0.00    +0.000 A 
ATOM     13  N   UNL     1      41.297  11.565   9.573  0.00  0.00    +0.000 NA
ATOM     14  C   UNL     1      40.037  12.033   9.526  0.00  0.00    +0.000 A 
ATOM     15  C   UNL     1      39.010  11.523  10.288  0.00  0.00    +0.000 A 
ATOM     16  C   UNL     1      39.343  10.480  11.126  0.00  0.00    +0.000 A 
ATOM     17  N   UNL     1      40.582   9.961  11.219  0.00  0.00    +0.000 NA
ENDBRANCH   9  12
ENDBRANCH   7  10
ENDBRANCH   1   7
BRANCH   3  18
ATOM     18  C   UNL     1      46.082   3.778  13.233  0.00  0.00    +0.000 C 
BRANCH  18  19
ATOM     19  N   UNL     1      46.526   4.496  14.401  0.00  0.00    +0.000 N 
ATOM     20  C   UNL     1      47.378   3.914  15.304  0.00  0.00    +0.000 C 
ATOM     21  O   UNL     1      47.823   2.781  15.137  0.00  0.00    +0.000 OA
ATOM     22  H   UNL     1      46.000   5.321  14.672  0.00  0.00    +0.000 HD
BRANCH  20  23
ATOM     23  C   UNL     1      47.782   4.734  16.454  0.00  0.00    +0.000 A 
ATOM     24  C   UNL     1      47.413   4.346  17.736  0.00  0.00    +0.000 A 
ATOM     25  S   UNL     1      48.008   5.371  18.961  0.00  0.00    +0.000 S 
ATOM     26  C   UNL     1      48.739   6.400  17.820  0.00  0.00    +0.000 A 
ATOM     27  N   UNL     1      49.414   7.512  18.214  0.00  0.00    +0.000 NA
ATOM     28  C   UNL     1      49.891   8.218  17.245  0.00  0.00    +0.000 A 
ATOM     29  N   UNL     1      49.755   7.913  15.916  0.00  0.00    +0.000 N 
ATOM     30  C   UNL     1      49.103   6.788  15.470  0.00  0.00    +0.000 A 
ATOM     31  O   UNL     1      49.026   6.524  14.274  0.00  0.00    +0.000 OA
ATOM     32  C   UNL     1      48.543   5.960  16.522  0.00  0.00    +0.000 A 
ATOM     33  H   UNL     1      50.157   8.507  15.206  0.00  0.00    +0.000 HD
ENDBRANCH  20  23
ENDBRANCH  18  19
ENDBRANCH   3  18
TORSDOF 6
ENDMDL
MODEL 9
REMARK VINA RESULT:    -6.972      4.289      6.781
REMARK INTER + INTRA:         -10.446
REMARK INTER:                  -8.535
REMARK INTRA:                  -1.911
REMARK UNBOUND:                -1.028
REMARK  Name = 
REMARK  6 active torsions:
REMARK  status: ('A' for Active; 'I' for Inactive)
REMARK    1  A    between atoms: C_2  and  C_25
REMARK    2  A    between atoms: N_3  and  C_4
REMARK    3  A    between atoms: C_4  and  C_5
REMARK    4  A    between atoms: C_7  and  C_8
REMARK    5  A    between atoms: C_8  and  N_9
REMARK    6  A    between atoms: C_10  and  C_12
REMARK                            x       y       z     vdW  Elec       q    Type
REMARK                         _______ _______ _______ _____ _____    ______ ____
ROOT
ATOM      1  C   UNL     1      47.972   4.385  17.925  0.00  0.00    +0.000 A 
ATOM      2  C   UNL     1      47.840   5.767  17.767  0.00  0.00    +0.000 A 
ATOM      3  C   UNL     1      48.250   6.618  18.800  0.00  0.00    +0.000 A 
ATOM      4  C   UNL     1      48.760   6.045  19.967  0.00  0.00    +0.000 A 
ATOM      5  C   UNL     1      48.872   4.666  20.036  0.00  0.00    +0.000 A 
ATOM      6  N   UNL     1      48.504   3.829  19.043  0.00  0.00    +0.000 NA
ENDROOT
BRANCH   1   7
ATOM      7  C   UNL     1      47.541   3.446  16.822  0.00  0.00    +0.000 C 
BRANCH   7  10
ATOM      8  O   UNL     1      47.745   3.242  14.033  0.00  0.00    +0.000 OA
ATOM      9  C   UNL     1      46.879   3.974  14.503  0.00  0.00    +0.000 C 
ATOM     10  N   UNL     1      46.669   4.093  15.867  0.00  0.00    +0.000 N 
ATOM     11  H   UNL     1      46.041   4.824  16.186  0.00  0.00    +0.000 HD
BRANCH   9  12
ATOM     12  C   UNL     1      45.962   4.804  13.630  0.00  0.00    +0.000 A 
ATOM     13  N   UNL     1      46.425   5.995  13.203  0.00  0.00    +0.000 NA
ATOM     14  C   UNL     1      45.600   6.692  12.401  0.00  0.00    +0.000 A 
ATOM     15  C   UNL     1      44.354   6.245  12.022  0.00  0.00    +0.000 A 
ATOM     16  C   UNL     1      43.980   5.014  12.519  0.00  0.00    +0.000 A 
ATOM     17  N   UNL     1      44.758   4.263  13.323  0.00  0.00    +0.000 NA
ENDBRANCH   9  12
ENDBRANCH   7  10
ENDBRANCH   1   7
BRANCH   3  18
ATOM     18  C   UNL     1      48.109   8.112  18.686  0.00  0.00    +0.000 C 
BRANCH  18  19
ATOM     19  N   UNL     1      48.172   8.541  17.312  0.00  0.00    +0.000 N 
ATOM     20  C   UNL     1      49.278   9.193  16.827  0.00  0.00    +0.000 C 
ATOM     21  O   UNL     1      50.265   9.401  17.528  0.00  0.00    +0.000 OA
ATOM     22  H   UNL     1      47.300   8.588  16.794  0.00  0.00    +0.000 HD
BRANCH  20  23
ATOM     23  C   UNL     1      49.250   9.576  15.410  0.00  0.00    +0.000 A 
ATOM     24  C   UNL     1      49.123  10.916  15.064  0.00  0.00    +0.000 A 
ATOM     25  S   UNL     1      49.165  11.198  13.384  0.00  0.00    +0.000 S 
ATOM     26  C   UNL     1      49.303   9.536  13.053  0.00  0.00    +0.000 A 
ATOM     27  N   UNL     1      49.366   9.081  11.773  0.00  0.00    +0.000 NA
ATOM     28  C   UNL     1      49.437   7.797  11.666  0.00  0.00    +0.000 A 
ATOM     29  N   UNL     1      49.453   6.925  12.723  0.00  0.00    +0.000 N 
ATOM     30  C   UNL     1      49.416   7.338  14.034  0.00  0.00    +0.000 A 
ATOM     31  O   UNL     1      49.464   6.534  14.960  0.00  0.00    +0.000 OA
ATOM     32  C   UNL     1      49.330   8.775  14.210  0.00  0.00    +0.000 A 
ATOM     33  H   UNL     1      49.515   5.929  12.570  0.00  0.00    +0.000 HD
ENDBRANCH  20  23
ENDBRANCH  18  19
ENDBRANCH   3  18
TORSDOF 6
ENDMDL
