MODEL 1
REMARK VINA RESULT:    -7.924      0.000      0.000
REMARK INTER + INTRA:         -12.711
REMARK INTER:                 -11.861
REMARK INTRA:                  -0.850
REMARK UNBOUND:                -0.850
REMARK  Name = 
REMARK  9 active torsions:
REMARK  status: ('A' for Active; 'I' for Inactive)
REMARK    1  A    between atoms: N_1  and  C_2
REMARK    2  A    between atoms: C_2  and  C_3
REMARK    3  A    between atoms: C_2  and  C_19
REMARK    4  A    between atoms: C_3  and  C_4
REMARK    5  A    between atoms: C_7  and  C_8
REMARK    6  A    between atoms: C_8  and  C_9
REMARK    7  A    between atoms: C_9  and  N_10
REMARK    8  A    between atoms: N_10  and  C_11
REMARK    9  A    between atoms: C_19  and  C_21
REMARK                            x       y       z     vdW  Elec       q    Type
REMARK                         _______ _______ _______ _____ _____    ______ ____
ROOT
ATOM      1  C   UNL     1      47.703   4.470  15.767  0.00  0.00    +0.000 C 
ENDROOT
BRANCH   1   2
ATOM      2  C   UNL     1      47.195   4.892  14.418  0.00  0.00    +0.000 A 
ATOM      3  C   UNL     1      45.948   4.391  14.022  0.00  0.00    +0.000 A 
ATOM      4  C   UNL     1      45.390   4.815  12.821  0.00  0.00    +0.000 A 
ATOM      5  C   UNL     1      46.088   5.717  12.029  0.00  0.00    +0.000 A 
ATOM      6  C   UNL     1      47.325   6.160  12.518  0.00  0.00    +0.000 A 
ATOM      7  N   UNL     1      47.897   5.764  13.677  0.00  0.00    +0.000 NA
BRANCH   5   8
ATOM      8  C   UNL     1      45.501   6.206  10.728  0.00  0.00    +0.000 C 
BRANCH   8   9
ATOM      9  C   UNL     1      45.080   5.032   9.847  0.00  0.00    +0.000 C 
BRANCH   9  10
ATOM     10  N   UNL     1      45.848   4.883   8.620  0.00  0.00    +0.000 NA
ATOM     11  H   UNL     1      46.795   4.576   8.840  0.00  0.00    +0.000 HD
BRANCH  10  12
ATOM     12  C   UNL     1      45.193   3.912   7.717  0.00  0.00    +0.000 C 
ATOM     13  C   UNL     1      44.584   2.672   8.413  0.00  0.00    +0.000 C 
ATOM     14  C   UNL     1      45.638   1.677   8.886  0.00  0.00    +0.000 C 
ATOM     15  N   UNL     1      46.537   1.290   7.799  0.00  0.00    +0.000 NA
ATOM     16  C   UNL     1      47.218   2.466   7.249  0.00  0.00    +0.000 C 
ATOM     17  C   UNL     1      46.218   3.463   6.670  0.00  0.00    +0.000 C 
ATOM     18  H   UNL     1      45.987   0.855   7.056  0.00  0.00    +0.000 HD
ENDBRANCH  10  12
ENDBRANCH   9  10
ENDBRANCH   8   9
ENDBRANCH   5   8
ENDBRANCH   1   2
BRANCH   1  19
ATOM     19  C   UNL     1      48.488   5.482  16.627  0.00  0.00    +0.000 C 
BRANCH  19  20
ATOM     20  N   UNL     1      49.666   6.050  15.926  0.00  0.00    +0.000 NA
ATOM     21  H   UNL     1      50.356   6.265  16.658  0.00  0.00    +0.000 HD
ATOM     22  H   UNL     1      49.414   6.956  15.532  0.00  0.00    +0.000 HD
ENDBRANCH  19  20
BRANCH  19  23
ATOM     23  C   UNL     1      48.956   4.716  17.892  0.00  0.00    +0.000 C 
ATOM     24  O   UNL     1      48.109   4.353  18.714  0.00  0.00    +0.000 OA
BRANCH  23  25
ATOM     25  C   UNL     1      50.352   4.298  18.072  0.00  0.00    +0.000 A 
ATOM     26  C   UNL     1      51.244   5.189  18.660  0.00  0.00    +0.000 A 
ATOM     27  S   UNL     1      52.798   4.535  18.907  0.00  0.00    +0.000 S 
ATOM     28  C   UNL     1      52.334   3.051  18.213  0.00  0.00    +0.000 A 
ATOM     29  N   UNL     1      53.196   2.002  18.163  0.00  0.00    +0.000 NA
ATOM     30  C   UNL     1      52.687   0.924  17.666  0.00  0.00    +0.000 A 
ATOM     31  N   UNL     1      51.415   0.818  17.165  0.00  0.00    +0.000 N 
ATOM     32  C   UNL     1      50.615   1.921  16.981  0.00  0.00    +0.000 A 
ATOM     33  O   UNL     1      49.692   1.918  16.171  0.00  0.00    +0.000 OA
ATOM     34  C   UNL     1      51.037   3.087  17.727  0.00  0.00    +0.000 A 
ATOM     35  H   UNL     1      51.126  -0.024  16.691  0.00  0.00    +0.000 HD
ENDBRANCH  23  25
ENDBRANCH  19  23
ENDBRANCH   1  19
TORSDOF 9
ENDMDL
MODEL 2
REMARK VINA RESULT:    -7.330      3.543      8.910
REMARK INTER + INTRA:         -11.823
REMARK INTER:                 -10.282
REMARK INTRA:                  -1.541
REMARK UNBOUND:                -0.850
REMARK  Name = 
REMARK  9 active torsions:
REMARK  status: ('A' for Active; 'I' for Inactive)
REMARK    1  A    between atoms: N_1  and  C_2
REMARK    2  A    between atoms: C_2  and  C_3
REMARK    3  A    between atoms: C_2  and  C_19
REMARK    4  A    between atoms: C_3  and  C_4
REMARK    5  A    between atoms: C_7  and  C_8
REMARK    6  A    between atoms: C_8  and  C_9
REMARK    7  A    between atoms: C_9  and  N_10
REMARK    8  A    between atoms: N_10  and  C_11
REMARK    9  A    between atoms: C_19  and  C_21
REMARK                            x       y       z     vdW  Elec       q    Type
REMARK                         _______ _______ _______ _____ _____    ______ ____
ROOT
ATOM      1  C   UNL     1      47.782   5.878  12.794  0.00  0.00    +0.000 C 
ENDROOT
BRANCH   1   2
ATOM      2  C   UNL     1      47.789   5.647  14.277  0.00  0.00    +0.000 A 
ATOM      3  C   UNL     1      46.992   4.602  14.763  0.00  0.00    +0.000 A 
ATOM      4  C   UNL     1      47.025   4.288  16.118  0.00  0.00    +0.000 A 
ATOM      5  C   UNL     1      47.839   5.027  16.966  0.00  0.00    +0.000 A 
ATOM      6  C   UNL     1      48.599   6.048  16.379  0.00  0.00    +0.000 A 
ATOM      7  N   UNL     1      48.586   6.382  15.069  0.00  0.00    +0.000 NA
BRANCH   5   8
ATOM      8  C   UNL     1      47.906   4.700  18.437  0.00  0.00    +0.000 C 
BRANCH   8   9
ATOM      9  C   UNL     1      48.663   3.394  18.670  0.00  0.00    +0.000 C 
BRANCH   9  10
ATOM     10  N   UNL     1      50.096   3.545  18.869  0.00  0.00    +0.000 NA
ATOM     11  H   UNL     1      50.424   2.864  19.552  0.00  0.00    +0.000 HD
BRANCH  10  12
ATOM     12  C   UNL     1      50.815   3.374  17.588  0.00  0.00    +0.000 C 
ATOM     13  C   UNL     1      50.794   1.941  17.008  0.00  0.00    +0.000 C 
ATOM     14  C   UNL     1      51.703   0.978  17.765  0.00  0.00    +0.000 C 
ATOM     15  N   UNL     1      53.068   1.494  17.863  0.00  0.00    +0.000 NA
ATOM     16  C   UNL     1      53.083   2.789  18.550  0.00  0.00    +0.000 C 
ATOM     17  C   UNL     1      52.265   3.828  17.787  0.00  0.00    +0.000 C 
ATOM     18  H   UNL     1      53.440   1.621  16.921  0.00  0.00    +0.000 HD
ENDBRANCH  10  12
ENDBRANCH   9  10
ENDBRANCH   8   9
ENDBRANCH   5   8
ENDBRANCH   1   2
BRANCH   1  19
ATOM     19  C   UNL     1      47.352   7.255  12.247  0.00  0.00    +0.000 C 
BRANCH  19  20
ATOM     20  N   UNL     1      47.465   8.340  13.253  0.00  0.00    +0.000 NA
ATOM     21  H   UNL     1      47.366   7.888  14.171  0.00  0.00    +0.000 HD
ATOM     22  H   UNL     1      46.653   8.952  13.175  0.00  0.00    +0.000 HD
ENDBRANCH  19  20
BRANCH  19  23
ATOM     23  C   UNL     1      45.873   7.111  11.802  0.00  0.00    +0.000 C 
ATOM     24  O   UNL     1      45.107   8.062  11.972  0.00  0.00    +0.000 OA
BRANCH  23  25
ATOM     25  C   UNL     1      45.397   5.931  11.070  0.00  0.00    +0.000 A 
ATOM     26  C   UNL     1      45.769   5.777   9.738  0.00  0.00    +0.000 A 
ATOM     27  S   UNL     1      45.239   4.313   9.047  0.00  0.00    +0.000 S 
ATOM     28  C   UNL     1      44.475   3.851  10.496  0.00  0.00    +0.000 A 
ATOM     29  N   UNL     1      43.862   2.644  10.610  0.00  0.00    +0.000 NA
ATOM     30  C   UNL     1      43.380   2.405  11.785  0.00  0.00    +0.000 A 
ATOM     31  N   UNL     1      43.407   3.287  12.835  0.00  0.00    +0.000 N 
ATOM     32  C   UNL     1      43.796   4.596  12.672  0.00  0.00    +0.000 A 
ATOM     33  O   UNL     1      43.432   5.476  13.446  0.00  0.00    +0.000 OA
ATOM     34  C   UNL     1      44.555   4.839  11.464  0.00  0.00    +0.000 A 
ATOM     35  H   UNL     1      42.910   3.074  13.687  0.00  0.00    +0.000 HD
ENDBRANCH  23  25
ENDBRANCH  19  23
ENDBRANCH   1  19
TORSDOF 9
ENDMDL
MODEL 3
REMARK VINA RESULT:    -7.229      1.458      2.009
REMARK INTER + INTRA:         -11.671
REMARK INTER:                 -10.699
REMARK INTRA:                  -0.972
REMARK UNBOUND:                -0.850
REMARK  Name = 
REMARK  9 active torsions:
REMARK  status: ('A' for Active; 'I' for Inactive)
REMARK    1  A    between atoms: N_1  and  C_2
REMARK    2  A    between atoms: C_2  and  C_3
REMARK    3  A    between atoms: C_2  and  C_19
REMARK    4  A    between atoms: C_3  and  C_4
REMARK    5  A    between atoms: C_7  and  C_8
REMARK    6  A    between atoms: C_8  and  C_9
REMARK    7  A    between atoms: C_9  and  N_10
REMARK    8  A    between atoms: N_10  and  C_11
REMARK    9  A    between atoms: C_19  and  C_21
REMARK                            x       y       z     vdW  Elec       q    Type
REMARK                         _______ _______ _______ _____ _____    ______ ____
ROOT
ATOM      1  C   UNL     1      48.708   5.722  16.686  0.00  0.00    +0.000 C 
ENDROOT
BRANCH   1   2
ATOM      2  C   UNL     1      48.185   6.012  15.309  0.00  0.00    +0.000 A 
ATOM      3  C   UNL     1      48.516   7.254  14.750  0.00  0.00    +0.000 A 
ATOM      4  C   UNL     1      48.131   7.543  13.445  0.00  0.00    +0.000 A 
ATOM      5  C   UNL     1      47.412   6.597  12.725  0.00  0.00    +0.000 A 
ATOM      6  C   UNL     1      47.135   5.386  13.374  0.00  0.00    +0.000 A 
ATOM      7  N   UNL     1      47.490   5.076  14.641  0.00  0.00    +0.000 NA
BRANCH   5   8
ATOM      8  C   UNL     1      46.993   6.877  11.303  0.00  0.00    +0.000 C 
BRANCH   8   9
ATOM      9  C   UNL     1      45.682   6.166  10.972  0.00  0.00    +0.000 C 
BRANCH   9  10
ATOM     10  N   UNL     1      45.698   5.402   9.734  0.00  0.00    +0.000 NA
ATOM     11  H   UNL     1      46.400   4.664   9.792  0.00  0.00    +0.000 HD
BRANCH  10  12
ATOM     12  C   UNL     1      44.364   4.821   9.471  0.00  0.00    +0.000 C 
ATOM     13  C   UNL     1      43.596   4.339  10.724  0.00  0.00    +0.000 C 
ATOM     14  C   UNL     1      44.158   3.047  11.307  0.00  0.00    +0.000 C 
ATOM     15  N   UNL     1      44.240   1.994  10.295  0.00  0.00    +0.000 NA
ATOM     16  C   UNL     1      45.095   2.414   9.181  0.00  0.00    +0.000 C 
ATOM     17  C   UNL     1      44.533   3.655   8.491  0.00  0.00    +0.000 C 
ATOM     18  H   UNL     1      43.303   1.809   9.935  0.00  0.00    +0.000 HD
ENDBRANCH  10  12
ENDBRANCH   9  10
ENDBRANCH   8   9
ENDBRANCH   5   8
ENDBRANCH   1   2
BRANCH   1  19
ATOM     19  C   UNL     1      48.321   4.397  17.375  0.00  0.00    +0.000 C 
BRANCH  19  20
ATOM     20  N   UNL     1      46.899   4.355  17.798  0.00  0.00    +0.000 NA
ATOM     21  H   UNL     1      46.617   3.368  17.748  0.00  0.00    +0.000 HD
ATOM     22  H   UNL     1      46.329   4.826  17.096  0.00  0.00    +0.000 HD
ENDBRANCH  19  20
BRANCH  19  23
ATOM     23  C   UNL     1      49.238   4.264  18.620  0.00  0.00    +0.000 C 
ATOM     24  O   UNL     1      48.723   4.281  19.741  0.00  0.00    +0.000 OA
BRANCH  23  25
ATOM     25  C   UNL     1      50.674   3.987  18.497  0.00  0.00    +0.000 A 
ATOM     26  C   UNL     1      51.579   4.931  18.969  0.00  0.00    +0.000 A 
ATOM     27  S   UNL     1      53.205   4.432  18.863  0.00  0.00    +0.000 S 
ATOM     28  C   UNL     1      52.752   2.950  18.160  0.00  0.00    +0.000 A 
ATOM     29  N   UNL     1      53.680   2.003  17.866  0.00  0.00    +0.000 NA
ATOM     30  C   UNL     1      53.185   0.906  17.395  0.00  0.00    +0.000 A 
ATOM     31  N   UNL     1      51.854   0.695  17.141  0.00  0.00    +0.000 N 
ATOM     32  C   UNL     1      50.934   1.716  17.197  0.00  0.00    +0.000 A 
ATOM     33  O   UNL     1      49.874   1.662  16.581  0.00  0.00    +0.000 OA
ATOM     34  C   UNL     1      51.386   2.876  17.936  0.00  0.00    +0.000 A 
ATOM     35  H   UNL     1      51.556  -0.145  16.667  0.00  0.00    +0.000 HD
ENDBRANCH  23  25
ENDBRANCH  19  23
ENDBRANCH   1  19
TORSDOF 9
ENDMDL
MODEL 4
REMARK VINA RESULT:    -7.127      3.529      9.484
REMARK INTER + INTRA:         -11.519
REMARK INTER:                 -10.317
REMARK INTRA:                  -1.202
REMARK UNBOUND:                -0.850
REMARK  Name = 
REMARK  9 active torsions:
REMARK  status: ('A' for Active; 'I' for Inactive)
REMARK    1  A    between atoms: N_1  and  C_2
REMARK    2  A    between atoms: C_2  and  C_3
REMARK    3  A    between atoms: C_2  and  C_19
REMARK    4  A    between atoms: C_3  and  C_4
REMARK    5  A    between atoms: C_7  and  C_8
REMARK    6  A    between atoms: C_8  and  C_9
REMARK    7  A    between atoms: C_9  and  N_10
REMARK    8  A    between atoms: N_10  and  C_11
REMARK    9  A    between atoms: C_19  and  C_21
REMARK                            x       y       z     vdW  Elec       q    Type
REMARK                         _______ _______ _______ _____ _____    ______ ____
ROOT
ATOM      1  C   UNL     1      46.958   6.177  12.353  0.00  0.00    +0.000 C 
ENDROOT
BRANCH   1   2
ATOM      2  C   UNL     1      47.336   5.835  13.765  0.00  0.00    +0.000 A 
ATOM      3  C   UNL     1      46.809   4.651  14.297  0.00  0.00    +0.000 A 
ATOM      4  C   UNL     1      47.192   4.241  15.570  0.00  0.00    +0.000 A 
ATOM      5  C   UNL     1      48.082   5.023  16.295  0.00  0.00    +0.000 A 
ATOM      6  C   UNL     1      48.553   6.186  15.671  0.00  0.00    +0.000 A 
ATOM      7  N   UNL     1      48.197   6.615  14.439  0.00  0.00    +0.000 NA
BRANCH   5   8
ATOM      8  C   UNL     1      48.527   4.597  17.672  0.00  0.00    +0.000 C 
BRANCH   8   9
ATOM      9  C   UNL     1      49.380   3.332  17.600  0.00  0.00    +0.000 C 
BRANCH   9  10
ATOM     10  N   UNL     1      50.509   3.304  18.518  0.00  0.00    +0.000 NA
ATOM     11  H   UNL     1      50.475   2.456  19.082  0.00  0.00    +0.000 HD
BRANCH  10  12
ATOM     12  C   UNL     1      51.782   3.370  17.769  0.00  0.00    +0.000 C 
ATOM     13  C   UNL     1      52.970   2.623  18.421  0.00  0.00    +0.000 C 
ATOM     14  C   UNL     1      53.530   3.346  19.641  0.00  0.00    +0.000 C 
ATOM     15  N   UNL     1      53.878   4.731  19.330  0.00  0.00    +0.000 NA
ATOM     16  C   UNL     1      52.703   5.465  18.852  0.00  0.00    +0.000 C 
ATOM     17  C   UNL     1      52.148   4.845  17.573  0.00  0.00    +0.000 C 
ATOM     18  H   UNL     1      54.587   4.736  18.594  0.00  0.00    +0.000 HD
ENDBRANCH  10  12
ENDBRANCH   9  10
ENDBRANCH   8   9
ENDBRANCH   5   8
ENDBRANCH   1   2
BRANCH   1  19
ATOM     19  C   UNL     1      46.080   7.416  12.086  0.00  0.00    +0.000 C 
BRANCH  19  20
ATOM     20  N   UNL     1      45.865   8.247  13.296  0.00  0.00    +0.000 NA
ATOM     21  H   UNL     1      46.572   8.992  13.259  0.00  0.00    +0.000 HD
ATOM     22  H   UNL     1      46.106   7.700  14.123  0.00  0.00    +0.000 HD
ENDBRANCH  19  20
BRANCH  19  23
ATOM     23  C   UNL     1      44.716   6.888  11.569  0.00  0.00    +0.000 C 
ATOM     24  O   UNL     1      43.876   7.700  11.174  0.00  0.00    +0.000 OA
BRANCH  23  25
ATOM     25  C   UNL     1      44.450   5.452  11.415  0.00  0.00    +0.000 A 
ATOM     26  C   UNL     1      43.861   4.765  12.472  0.00  0.00    +0.000 A 
ATOM     27  S   UNL     1      43.511   3.136  12.116  0.00  0.00    +0.000 S 
ATOM     28  C   UNL     1      44.158   3.291  10.549  0.00  0.00    +0.000 A 
ATOM     29  N   UNL     1      44.120   2.255   9.671  0.00  0.00    +0.000 NA
ATOM     30  C   UNL     1      44.591   2.537   8.501  0.00  0.00    +0.000 A 
ATOM     31  N   UNL     1      45.147   3.741   8.151  0.00  0.00    +0.000 N 
ATOM     32  C   UNL     1      45.419   4.712   9.086  0.00  0.00    +0.000 A 
ATOM     33  O   UNL     1      46.271   5.573   8.889  0.00  0.00    +0.000 OA
ATOM     34  C   UNL     1      44.707   4.545  10.335  0.00  0.00    +0.000 A 
ATOM     35  H   UNL     1      45.596   3.849   7.255  0.00  0.00    +0.000 HD
ENDBRANCH  23  25
ENDBRANCH  19  23
ENDBRANCH   1  19
TORSDOF 9
ENDMDL
MODEL 5
REMARK VINA RESULT:    -7.045      2.529      3.349
REMARK INTER + INTRA:         -11.396
REMARK INTER:                  -9.956
REMARK INTRA:                  -1.439
REMARK UNBOUND:                -0.850
REMARK  Name = 
REMARK  9 active torsions:
REMARK  status: ('A' for Active; 'I' for Inactive)
REMARK    1  A    between atoms: N_1  and  C_2
REMARK    2  A    between atoms: C_2  and  C_3
REMARK    3  A    between atoms: C_2  and  C_19
REMARK    4  A    between atoms: C_3  and  C_4
REMARK    5  A    between atoms: C_7  and  C_8
REMARK    6  A    between atoms: C_8  and  C_9
REMARK    7  A    between atoms: C_9  and  N_10
REMARK    8  A    between atoms: N_10  and  C_11
REMARK    9  A    between atoms: C_19  and  C_21
REMARK                            x       y       z     vdW  Elec       q    Type
REMARK                         _______ _______ _______ _____ _____    ______ ____
ROOT
ATOM      1  C   UNL     1      48.206   8.778  13.141  0.00  0.00    +0.000 C 
ENDROOT
BRANCH   1   2
ATOM      2  C   UNL     1      47.121   7.890  12.603  0.00  0.00    +0.000 A 
ATOM      3  C   UNL     1      45.816   8.136  13.049  0.00  0.00    +0.000 A 
ATOM      4  C   UNL     1      44.761   7.401  12.520  0.00  0.00    +0.000 A 
ATOM      5  C   UNL     1      45.024   6.426  11.567  0.00  0.00    +0.000 A 
ATOM      6  C   UNL     1      46.363   6.261  11.186  0.00  0.00    +0.000 A 
ATOM      7  N   UNL     1      47.411   6.955  11.684  0.00  0.00    +0.000 NA
BRANCH   5   8
ATOM      8  C   UNL     1      43.898   5.622  10.965  0.00  0.00    +0.000 C 
BRANCH   8   9
ATOM      9  C   UNL     1      44.042   4.141  11.309  0.00  0.00    +0.000 C 
BRANCH   9  10
ATOM     10  N   UNL     1      45.019   3.420  10.507  0.00  0.00    +0.000 NA
ATOM     11  H   UNL     1      45.376   2.622  11.032  0.00  0.00    +0.000 HD
BRANCH  10  12
ATOM     12  C   UNL     1      44.411   2.968   9.237  0.00  0.00    +0.000 C 
ATOM     13  C   UNL     1      44.785   1.532   8.802  0.00  0.00    +0.000 C 
ATOM     14  C   UNL     1      46.213   1.421   8.277  0.00  0.00    +0.000 C 
ATOM     15  N   UNL     1      46.467   2.385   7.208  0.00  0.00    +0.000 NA
ATOM     16  C   UNL     1      46.250   3.755   7.684  0.00  0.00    +0.000 C 
ATOM     17  C   UNL     1      44.806   3.959   8.137  0.00  0.00    +0.000 C 
ATOM     18  H   UNL     1      45.822   2.202   6.438  0.00  0.00    +0.000 HD
ENDBRANCH  10  12
ENDBRANCH   9  10
ENDBRANCH   8   9
ENDBRANCH   5   8
ENDBRANCH   1   2
BRANCH   1  19
ATOM     19  C   UNL     1      49.358   8.153  13.953  0.00  0.00    +0.000 C 
BRANCH  19  20
ATOM     20  N   UNL     1      49.805   6.845  13.415  0.00  0.00    +0.000 NA
ATOM     21  H   UNL     1      49.117   6.154  13.740  0.00  0.00    +0.000 HD
ATOM     22  H   UNL     1      50.677   6.578  13.870  0.00  0.00    +0.000 HD
ENDBRANCH  19  20
BRANCH  19  23
ATOM     23  C   UNL     1      48.829   7.967  15.399  0.00  0.00    +0.000 C 
ATOM     24  O   UNL     1      47.986   8.758  15.829  0.00  0.00    +0.000 OA
BRANCH  23  25
ATOM     25  C   UNL     1      49.203   6.806  16.216  0.00  0.00    +0.000 A 
ATOM     26  C   UNL     1      50.334   6.893  17.021  0.00  0.00    +0.000 A 
ATOM     27  S   UNL     1      50.586   5.517  17.995  0.00  0.00    +0.000 S 
ATOM     28  C   UNL     1      49.207   4.754  17.353  0.00  0.00    +0.000 A 
ATOM     29  N   UNL     1      48.804   3.539  17.809  0.00  0.00    +0.000 NA
ATOM     30  C   UNL     1      47.708   3.111  17.275  0.00  0.00    +0.000 A 
ATOM     31  N   UNL     1      47.013   3.762  16.288  0.00  0.00    +0.000 N 
ATOM     32  C   UNL     1      47.529   4.861  15.643  0.00  0.00    +0.000 A 
ATOM     33  O   UNL     1      47.152   5.183  14.520  0.00  0.00    +0.000 OA
ATOM     34  C   UNL     1      48.614   5.506  16.352  0.00  0.00    +0.000 A 
ATOM     35  H   UNL     1      46.228   3.313  15.841  0.00  0.00    +0.000 HD
ENDBRANCH  23  25
ENDBRANCH  19  23
ENDBRANCH   1  19
TORSDOF 9
ENDMDL
MODEL 6
REMARK VINA RESULT:    -6.829      2.391      3.243
REMARK INTER + INTRA:         -11.072
REMARK INTER:                  -9.789
REMARK INTRA:                  -1.283
REMARK UNBOUND:                -0.850
REMARK  Name = 
REMARK  9 active torsions:
REMARK  status: ('A' for Active; 'I' for Inactive)
REMARK    1  A    between atoms: N_1  and  C_2
REMARK    2  A    between atoms: C_2  and  C_3
REMARK    3  A    between atoms: C_2  and  C_19
REMARK    4  A    between atoms: C_3  and  C_4
REMARK    5  A    between atoms: C_7  and  C_8
REMARK    6  A    between atoms: C_8  and  C_9
REMARK    7  A    between atoms: C_9  and  N_10
REMARK    8  A    between atoms: N_10  and  C_11
REMARK    9  A    between atoms: C_19  and  C_21
REMARK                            x       y       z     vdW  Elec       q    Type
REMARK                         _______ _______ _______ _____ _____    ______ ____
ROOT
ATOM      1  C   UNL     1      50.098   6.947  15.988  0.00  0.00    +0.000 C 
ENDROOT
BRANCH   1   2
ATOM      2  C   UNL     1      49.000   7.124  14.980  0.00  0.00    +0.000 A 
ATOM      3  C   UNL     1      48.384   8.381  14.921  0.00  0.00    +0.000 A 
ATOM      4  C   UNL     1      47.420   8.627  13.950  0.00  0.00    +0.000 A 
ATOM      5  C   UNL     1      47.076   7.615  13.064  0.00  0.00    +0.000 A 
ATOM      6  C   UNL     1      47.753   6.395  13.204  0.00  0.00    +0.000 A 
ATOM      7  N   UNL     1      48.690   6.123  14.140  0.00  0.00    +0.000 NA
BRANCH   5   8
ATOM      8  C   UNL     1      46.043   7.857  11.991  0.00  0.00    +0.000 C 
BRANCH   8   9
ATOM      9  C   UNL     1      44.955   6.786  12.030  0.00  0.00    +0.000 C 
BRANCH   9  10
ATOM     10  N   UNL     1      45.122   5.710  11.065  0.00  0.00    +0.000 NA
ATOM     11  H   UNL     1      45.688   4.966  11.472  0.00  0.00    +0.000 HD
BRANCH  10  12
ATOM     12  C   UNL     1      43.805   5.184  10.648  0.00  0.00    +0.000 C 
ATOM     13  C   UNL     1      42.969   4.533  11.775  0.00  0.00    +0.000 C 
ATOM     14  C   UNL     1      43.497   3.165  12.195  0.00  0.00    +0.000 C 
ATOM     15  N   UNL     1      43.637   2.268  11.048  0.00  0.00    +0.000 NA
ATOM     16  C   UNL     1      44.552   2.838  10.054  0.00  0.00    +0.000 C 
ATOM     17  C   UNL     1      44.028   4.169   9.521  0.00  0.00    +0.000 C 
ATOM     18  H   UNL     1      42.721   2.144  10.614  0.00  0.00    +0.000 HD
ENDBRANCH  10  12
ENDBRANCH   9  10
ENDBRANCH   8   9
ENDBRANCH   5   8
ENDBRANCH   1   2
BRANCH   1  19
ATOM     19  C   UNL     1      49.867   7.405  17.442  0.00  0.00    +0.000 C 
BRANCH  19  20
ATOM     20  N   UNL     1      51.119   7.469  18.237  0.00  0.00    +0.000 NA
ATOM     21  H   UNL     1      51.444   6.499  18.334  0.00  0.00    +0.000 HD
ATOM     22  H   UNL     1      50.895   7.765  19.187  0.00  0.00    +0.000 HD
ENDBRANCH  19  20
BRANCH  19  23
ATOM     23  C   UNL     1      48.899   6.374  18.081  0.00  0.00    +0.000 C 
ATOM     24  O   UNL     1      48.018   6.780  18.842  0.00  0.00    +0.000 OA
BRANCH  23  25
ATOM     25  C   UNL     1      48.920   4.956  17.702  0.00  0.00    +0.000 A 
ATOM     26  C   UNL     1      47.788   4.407  17.109  0.00  0.00    +0.000 A 
ATOM     27  S   UNL     1      47.990   2.786  16.624  0.00  0.00    +0.000 S 
ATOM     28  C   UNL     1      49.587   2.760  17.213  0.00  0.00    +0.000 A 
ATOM     29  N   UNL     1      50.371   1.662  17.059  0.00  0.00    +0.000 NA
ATOM     30  C   UNL     1      51.577   1.808  17.500  0.00  0.00    +0.000 A 
ATOM     31  N   UNL     1      52.049   2.932  18.128  0.00  0.00    +0.000 N 
ATOM     32  C   UNL     1      51.211   3.953  18.513  0.00  0.00    +0.000 A 
ATOM     33  O   UNL     1      51.512   4.726  19.417  0.00  0.00    +0.000 OA
ATOM     34  C   UNL     1      49.927   3.946  17.844  0.00  0.00    +0.000 A 
ATOM     35  H   UNL     1      52.967   2.931  18.546  0.00  0.00    +0.000 HD
ENDBRANCH  23  25
ENDBRANCH  19  23
ENDBRANCH   1  19
TORSDOF 9
ENDMDL
MODEL 7
REMARK VINA RESULT:    -6.741      3.628      8.405
REMARK INTER + INTRA:         -10.941
REMARK INTER:                  -9.205
REMARK INTRA:                  -1.736
REMARK UNBOUND:                -0.850
REMARK  Name = 
REMARK  9 active torsions:
REMARK  status: ('A' for Active; 'I' for Inactive)
REMARK    1  A    between atoms: N_1  and  C_2
REMARK    2  A    between atoms: C_2  and  C_3
REMARK    3  A    between atoms: C_2  and  C_19
REMARK    4  A    between atoms: C_3  and  C_4
REMARK    5  A    between atoms: C_7  and  C_8
REMARK    6  A    between atoms: C_8  and  C_9
REMARK    7  A    between atoms: C_9  and  N_10
REMARK    8  A    between atoms: N_10  and  C_11
REMARK    9  A    between atoms: C_19  and  C_21
REMARK                            x       y       z     vdW  Elec       q    Type
REMARK                         _______ _______ _______ _____ _____    ______ ____
ROOT
ATOM      1  C   UNL     1      48.206   9.486  12.912  0.00  0.00    +0.000 C 
ENDROOT
BRANCH   1   2
ATOM      2  C   UNL     1      48.904   8.874  14.093  0.00  0.00    +0.000 A 
ATOM      3  C   UNL     1      50.228   8.460  13.905  0.00  0.00    +0.000 A 
ATOM      4  C   UNL     1      50.951   7.965  14.985  0.00  0.00    +0.000 A 
ATOM      5  C   UNL     1      50.338   7.878  16.229  0.00  0.00    +0.000 A 
ATOM      6  C   UNL     1      49.012   8.322  16.311  0.00  0.00    +0.000 A 
ATOM      7  N   UNL     1      48.281   8.803  15.280  0.00  0.00    +0.000 NA
BRANCH   5   8
ATOM      8  C   UNL     1      51.102   7.358  17.422  0.00  0.00    +0.000 C 
BRANCH   8   9
ATOM      9  C   UNL     1      51.420   5.873  17.259  0.00  0.00    +0.000 C 
BRANCH   9  10
ATOM     10  N   UNL     1      50.283   5.040  16.899  0.00  0.00    +0.000 NA
ATOM     11  H   UNL     1      50.535   4.426  16.126  0.00  0.00    +0.000 HD
BRANCH  10  12
ATOM     12  C   UNL     1      49.839   4.244  18.064  0.00  0.00    +0.000 C 
ATOM     13  C   UNL     1      49.407   2.794  17.743  0.00  0.00    +0.000 C 
ATOM     14  C   UNL     1      48.054   2.716  17.044  0.00  0.00    +0.000 C 
ATOM     15  N   UNL     1      47.020   3.426  17.795  0.00  0.00    +0.000 NA
ATOM     16  C   UNL     1      47.380   4.838  17.961  0.00  0.00    +0.000 C 
ATOM     17  C   UNL     1      48.683   4.988  18.741  0.00  0.00    +0.000 C 
ATOM     18  H   UNL     1      46.934   3.001  18.720  0.00  0.00    +0.000 HD
ENDBRANCH  10  12
ENDBRANCH   9  10
ENDBRANCH   8   9
ENDBRANCH   5   8
ENDBRANCH   1   2
BRANCH   1  19
ATOM     19  C   UNL     1      46.965   8.786  12.324  0.00  0.00    +0.000 C 
BRANCH  19  20
ATOM     20  N   UNL     1      45.858   8.645  13.302  0.00  0.00    +0.000 NA
ATOM     21  H   UNL     1      44.999   8.900  12.798  0.00  0.00    +0.000 HD
ATOM     22  H   UNL     1      45.959   9.358  14.024  0.00  0.00    +0.000 HD
ENDBRANCH  19  20
BRANCH  19  23
ATOM     23  C   UNL     1      47.430   7.380  11.860  0.00  0.00    +0.000 C 
ATOM     24  O   UNL     1      48.385   7.297  11.084  0.00  0.00    +0.000 OA
BRANCH  23  25
ATOM     25  C   UNL     1      46.854   6.151  12.419  0.00  0.00    +0.000 A 
ATOM     26  C   UNL     1      47.326   5.690  13.644  0.00  0.00    +0.000 A 
ATOM     27  S   UNL     1      46.494   4.320  14.223  0.00  0.00    +0.000 S 
ATOM     28  C   UNL     1      45.496   4.286  12.845  0.00  0.00    +0.000 A 
ATOM     29  N   UNL     1      44.497   3.372  12.727  0.00  0.00    +0.000 NA
ATOM     30  C   UNL     1      43.783   3.505  11.659  0.00  0.00    +0.000 A 
ATOM     31  N   UNL     1      44.014   4.431  10.674  0.00  0.00    +0.000 N 
ATOM     32  C   UNL     1      45.157   5.196  10.652  0.00  0.00    +0.000 A 
ATOM     33  O   UNL     1      45.581   5.689   9.611  0.00  0.00    +0.000 OA
ATOM     34  C   UNL     1      45.850   5.256  11.921  0.00  0.00    +0.000 A 
ATOM     35  H   UNL     1      43.484   4.401   9.816  0.00  0.00    +0.000 HD
ENDBRANCH  23  25
ENDBRANCH  19  23
ENDBRANCH   1  19
TORSDOF 9
ENDMDL
MODEL 8
REMARK VINA RESULT:    -6.731      2.956      4.239
REMARK INTER + INTRA:         -10.926
REMARK INTER:                  -9.132
REMARK INTRA:                  -1.793
REMARK UNBOUND:                -0.850
REMARK  Name = 
REMARK  9 active torsions:
REMARK  status: ('A' for Active; 'I' for Inactive)
REMARK    1  A    between atoms: N_1  and  C_2
REMARK    2  A    between atoms: C_2  and  C_3
REMARK    3  A    between atoms: C_2  and  C_19
REMARK    4  A    between atoms: C_3  and  C_4
REMARK    5  A    between atoms: C_7  and  C_8
REMARK    6  A    between atoms: C_8  and  C_9
REMARK    7  A    between atoms: C_9  and  N_10
REMARK    8  A    between atoms: N_10  and  C_11
REMARK    9  A    between atoms: C_19  and  C_21
REMARK                            x       y       z     vdW  Elec       q    Type
REMARK                         _______ _______ _______ _____ _____    ______ ____
ROOT
ATOM      1  C   UNL     1      48.527   4.132  17.076  0.00  0.00    +0.000 C 
ENDROOT
BRANCH   1   2
ATOM      2  C   UNL     1      47.981   4.837  15.867  0.00  0.00    +0.000 A 
ATOM      3  C   UNL     1      48.615   6.025  15.482  0.00  0.00    +0.000 A 
ATOM      4  C   UNL     1      48.207   6.675  14.322  0.00  0.00    +0.000 A 
ATOM      5  C   UNL     1      47.167   6.138  13.574  0.00  0.00    +0.000 A 
ATOM      6  C   UNL     1      46.603   4.943  14.043  0.00  0.00    +0.000 A 
ATOM      7  N   UNL     1      46.973   4.291  15.168  0.00  0.00    +0.000 NA
BRANCH   5   8
ATOM      8  C   UNL     1      46.712   6.813  12.304  0.00  0.00    +0.000 C 
BRANCH   8   9
ATOM      9  C   UNL     1      45.383   6.233  11.825  0.00  0.00    +0.000 C 
BRANCH   9  10
ATOM     10  N   UNL     1      45.481   5.351  10.672  0.00  0.00    +0.000 NA
ATOM     11  H   UNL     1      46.057   4.542  10.904  0.00  0.00    +0.000 HD
BRANCH  10  12
ATOM     12  C   UNL     1      44.135   4.915  10.242  0.00  0.00    +0.000 C 
ATOM     13  C   UNL     1      43.214   4.403  11.374  0.00  0.00    +0.000 C 
ATOM     14  C   UNL     1      43.611   3.022  11.886  0.00  0.00    +0.000 C 
ATOM     15  N   UNL     1      43.704   2.052  10.796  0.00  0.00    +0.000 NA
ATOM     16  C   UNL     1      44.692   2.484   9.803  0.00  0.00    +0.000 C 
ATOM     17  C   UNL     1      44.302   3.821   9.180  0.00  0.00    +0.000 C 
ATOM     18  H   UNL     1      42.793   1.982  10.339  0.00  0.00    +0.000 HD
ENDBRANCH  10  12
ENDBRANCH   9  10
ENDBRANCH   8   9
ENDBRANCH   5   8
ENDBRANCH   1   2
BRANCH   1  19
ATOM     19  C   UNL     1      47.741   4.191  18.402  0.00  0.00    +0.000 C 
BRANCH  19  20
ATOM     20  N   UNL     1      46.504   5.006  18.308  0.00  0.00    +0.000 NA
ATOM     21  H   UNL     1      45.936   4.755  19.128  0.00  0.00    +0.000 HD
ATOM     22  H   UNL     1      45.958   4.691  17.507  0.00  0.00    +0.000 HD
ENDBRANCH  19  20
BRANCH  19  23
ATOM     23  C   UNL     1      48.695   4.815  19.454  0.00  0.00    +0.000 C 
ATOM     24  O   UNL     1      48.734   4.324  20.585  0.00  0.00    +0.000 OA
BRANCH  23  25
ATOM     25  C   UNL     1      49.643   5.880  19.103  0.00  0.00    +0.000 A 
ATOM     26  C   UNL     1      51.006   5.618  19.195  0.00  0.00    +0.000 A 
ATOM     27  S   UNL     1      51.986   6.903  18.654  0.00  0.00    +0.000 S 
ATOM     28  C   UNL     1      50.621   7.857  18.304  0.00  0.00    +0.000 A 
ATOM     29  N   UNL     1      50.753   9.087  17.742  0.00  0.00    +0.000 NA
ATOM     30  C   UNL     1      49.631   9.670  17.477  0.00  0.00    +0.000 A 
ATOM     31  N   UNL     1      48.394   9.157  17.773  0.00  0.00    +0.000 N 
ATOM     32  C   UNL     1      48.243   8.038  18.558  0.00  0.00    +0.000 A 
ATOM     33  O   UNL     1      47.204   7.820  19.174  0.00  0.00    +0.000 OA
ATOM     34  C   UNL     1      49.441   7.233  18.674  0.00  0.00    +0.000 A 
ATOM     35  H   UNL     1      47.567   9.719  17.639  0.00  0.00    +0.000 HD
ENDBRANCH  23  25
ENDBRANCH  19  23
ENDBRANCH   1  19
TORSDOF 9
ENDMDL
MODEL 9
REMARK VINA RESULT:    -6.699      3.105      4.221
REMARK INTER + INTRA:         -10.877
REMARK INTER:                  -9.672
REMARK INTRA:                  -1.205
REMARK UNBOUND:                -0.850
REMARK  Name = 
REMARK  9 active torsions:
REMARK  status: ('A' for Active; 'I' for Inactive)
REMARK    1  A    between atoms: N_1  and  C_2
REMARK    2  A    between atoms: C_2  and  C_3
REMARK    3  A    between atoms: C_2  and  C_19
REMARK    4  A    between atoms: C_3  and  C_4
REMARK    5  A    between atoms: C_7  and  C_8
REMARK    6  A    between atoms: C_8  and  C_9
REMARK    7  A    between atoms: C_9  and  N_10
REMARK    8  A    between atoms: N_10  and  C_11
REMARK    9  A    between atoms: C_19  and  C_21
REMARK                            x       y       z     vdW  Elec       q    Type
REMARK                         _______ _______ _______ _____ _____    ______ ____
ROOT
ATOM      1  C   UNL     1      48.187   7.641  13.048  0.00  0.00    +0.000 C 
ENDROOT
BRANCH   1   2
ATOM      2  C   UNL     1      47.219   6.523  12.788  0.00  0.00    +0.000 A 
ATOM      3  C   UNL     1      47.072   5.560  13.794  0.00  0.00    +0.000 A 
ATOM      4  C   UNL     1      46.129   4.549  13.644  0.00  0.00    +0.000 A 
ATOM      5  C   UNL     1      45.358   4.508  12.489  0.00  0.00    +0.000 A 
ATOM      6  C   UNL     1      45.579   5.520  11.545  0.00  0.00    +0.000 A 
ATOM      7  N   UNL     1      46.491   6.511  11.659  0.00  0.00    +0.000 NA
BRANCH   5   8
ATOM      8  C   UNL     1      44.316   3.432  12.305  0.00  0.00    +0.000 C 
BRANCH   8   9
ATOM      9  C   UNL     1      44.106   3.126  10.823  0.00  0.00    +0.000 C 
BRANCH   9  10
ATOM     10  N   UNL     1      45.194   2.396  10.190  0.00  0.00    +0.000 NA
ATOM     11  H   UNL     1      45.388   1.542  10.714  0.00  0.00    +0.000 HD
BRANCH  10  12
ATOM     12  C   UNL     1      44.850   2.071   8.790  0.00  0.00    +0.000 C 
ATOM     13  C   UNL     1      45.846   1.134   8.066  0.00  0.00    +0.000 C 
ATOM     14  C   UNL     1      47.152   1.827   7.693  0.00  0.00    +0.000 C 
ATOM     15  N   UNL     1      46.910   3.046   6.922  0.00  0.00    +0.000 NA
ATOM     16  C   UNL     1      46.084   3.986   7.686  0.00  0.00    +0.000 C 
ATOM     17  C   UNL     1      44.720   3.384   8.010  0.00  0.00    +0.000 C 
ATOM     18  H   UNL     1      46.415   2.800   6.063  0.00  0.00    +0.000 HD
ENDBRANCH  10  12
ENDBRANCH   9  10
ENDBRANCH   8   9
ENDBRANCH   5   8
ENDBRANCH   1   2
BRANCH   1  19
ATOM     19  C   UNL     1      47.773   8.794  13.984  0.00  0.00    +0.000 C 
BRANCH  19  20
ATOM     20  N   UNL     1      47.666  10.100  13.287  0.00  0.00    +0.000 NA
ATOM     21  H   UNL     1      48.419  10.687  13.668  0.00  0.00    +0.000 HD
ATOM     22  H   UNL     1      46.804  10.561  13.576  0.00  0.00    +0.000 HD
ENDBRANCH  19  20
BRANCH  19  23
ATOM     23  C   UNL     1      48.862   8.880  15.086  0.00  0.00    +0.000 C 
ATOM     24  O   UNL     1      49.992   9.267  14.775  0.00  0.00    +0.000 OA
BRANCH  23  25
ATOM     25  C   UNL     1      48.552   8.644  16.501  0.00  0.00    +0.000 A 
ATOM     26  C   UNL     1      48.190   9.727  17.295  0.00  0.00    +0.000 A 
ATOM     27  S   UNL     1      47.752   9.293  18.883  0.00  0.00    +0.000 S 
ATOM     28  C   UNL     1      48.056   7.648  18.567  0.00  0.00    +0.000 A 
ATOM     29  N   UNL     1      47.820   6.699  19.510  0.00  0.00    +0.000 NA
ATOM     30  C   UNL     1      48.038   5.490  19.108  0.00  0.00    +0.000 A 
ATOM     31  N   UNL     1      48.522   5.152  17.871  0.00  0.00    +0.000 N 
ATOM     32  C   UNL     1      48.999   6.101  16.996  0.00  0.00    +0.000 A 
ATOM     33  O   UNL     1      49.801   5.814  16.112  0.00  0.00    +0.000 OA
ATOM     34  C   UNL     1      48.563   7.448  17.293  0.00  0.00    +0.000 A 
ATOM     35  H   UNL     1      48.774   4.196  17.669  0.00  0.00    +0.000 HD
ENDBRANCH  23  25
ENDBRANCH  19  23
ENDBRANCH   1  19
TORSDOF 9
ENDMDL
