MODEL 1
REMARK VINA RESULT:    -8.095      0.000      0.000
REMARK INTER + INTRA:         -11.268
REMARK INTER:                 -10.461
REMARK INTRA:                  -0.807
REMARK UNBOUND:                -0.807
REMARK  Name = 
REMARK  7 active torsions:
REMARK  status: ('A' for Active; 'I' for Inactive)
REMARK    1  A    between atoms: C_1  and  C_2
REMARK    2  A    between atoms: C_4  and  C_5
REMARK    3  A    between atoms: C_5  and  C_6
REMARK    4  A    between atoms: C_5  and  C_7
REMARK    5  A    between atoms: C_7  and  O_8
REMARK    6  A    between atoms: O_8  and  C_9
REMARK    7  A    between atoms: C_13  and  C_14
REMARK                            x       y       z     vdW  Elec       q    Type
REMARK                         _______ _______ _______ _____ _____    ______ ____
ROOT
ATOM      1  O   UNL     1      44.112   5.011  11.930  0.00  0.00    +0.000 OA
ENDROOT
BRANCH   1   2
ATOM      2  C   UNL     1      45.307   5.370  12.498  0.00  0.00    +0.000 A 
ATOM      3  C   UNL     1      46.060   6.320  11.818  0.00  0.00    +0.000 A 
ATOM      4  C   UNL     1      47.295   6.728  12.326  0.00  0.00    +0.000 A 
ATOM      5  C   UNL     1      47.796   6.154  13.501  0.00  0.00    +0.000 A 
ATOM      6  C   UNL     1      47.080   5.153  14.180  0.00  0.00    +0.000 A 
ATOM      7  C   UNL     1      45.823   4.791  13.659  0.00  0.00    +0.000 A 
BRANCH   6   8
ATOM      8  C   UNL     1      47.604   4.444  15.364  0.00  0.00    +0.000 A 
ATOM      9  C   UNL     1      48.061   5.089  16.511  0.00  0.00    +0.000 A 
ATOM     10  N   UNL     1      48.637   4.441  17.559  0.00  0.00    +0.000 NA
ATOM     11  C   UNL     1      48.751   3.105  17.414  0.00  0.00    +0.000 A 
ATOM     12  C   UNL     1      48.297   2.443  16.290  0.00  0.00    +0.000 A 
ATOM     13  N   UNL     1      47.719   3.091  15.253  0.00  0.00    +0.000 NA
ENDBRANCH   6   8
ENDBRANCH   1   2
BRANCH   1  14
ATOM     14  C   UNL     1      44.129   4.971  10.493  0.00  0.00    +0.000 C 
BRANCH  14  15
ATOM     15  C   UNL     1      43.973   3.521  10.008  0.00  0.00    +0.000 C 
ATOM     16  C   UNL     1      44.005   2.522  11.164  0.00  0.00    +0.000 C 
BRANCH  15  20
ATOM     17  C   UNL     1      46.655   0.104   7.760  0.00  0.00    +0.000 C 
ATOM     18  C   UNL     1      46.323   1.563   7.887  0.00  0.00    +0.000 A 
ATOM     19  N   UNL     1      45.362   1.880   8.799  0.00  0.00    +0.000 NA
ATOM     20  C   UNL     1      45.032   3.186   8.973  0.00  0.00    +0.000 A 
ATOM     21  C   UNL     1      45.626   4.199   8.226  0.00  0.00    +0.000 A 
ATOM     22  C   UNL     1      46.602   3.864   7.290  0.00  0.00    +0.000 A 
ATOM     23  C   UNL     1      46.963   2.532   7.116  0.00  0.00    +0.000 A 
ATOM     24 CL   UNL     1      48.183   2.147   5.961  0.00  0.00    +0.000 Cl
ENDBRANCH  15  20
ENDBRANCH  14  15
ENDBRANCH   1  14
TORSDOF 5
ENDMDL
MODEL 2
REMARK VINA RESULT:    -7.459      2.921      7.290
REMARK INTER + INTRA:         -10.447
REMARK INTER:                  -9.658
REMARK INTRA:                  -0.789
REMARK UNBOUND:                -0.807
REMARK  Name = 
REMARK  7 active torsions:
REMARK  status: ('A' for Active; 'I' for Inactive)
REMARK    1  A    between atoms: C_1  and  C_2
REMARK    2  A    between atoms: C_4  and  C_5
REMARK    3  A    between atoms: C_5  and  C_6
REMARK    4  A    between atoms: C_5  and  C_7
REMARK    5  A    between atoms: C_7  and  O_8
REMARK    6  A    between atoms: O_8  and  C_9
REMARK    7  A    between atoms: C_13  and  C_14
REMARK                            x       y       z     vdW  Elec       q    Type
REMARK                         _______ _______ _______ _____ _____    ______ ____
ROOT
ATOM      1  O   UNL     1      44.566   6.370  11.461  0.00  0.00    +0.000 OA
ENDROOT
BRANCH   1   2
ATOM      2  C   UNL     1      44.431   5.096  10.974  0.00  0.00    +0.000 A 
ATOM      3  C   UNL     1      43.627   4.230  11.706  0.00  0.00    +0.000 A 
ATOM      4  C   UNL     1      43.452   2.912  11.281  0.00  0.00    +0.000 A 
ATOM      5  C   UNL     1      44.114   2.447  10.139  0.00  0.00    +0.000 A 
ATOM      6  C   UNL     1      44.975   3.285   9.410  0.00  0.00    +0.000 A 
ATOM      7  C   UNL     1      45.101   4.618   9.846  0.00  0.00    +0.000 A 
BRANCH   6   8
ATOM      8  C   UNL     1      45.774   2.821   8.259  0.00  0.00    +0.000 A 
ATOM      9  C   UNL     1      46.255   1.521   8.126  0.00  0.00    +0.000 A 
ATOM     10  N   UNL     1      47.076   1.122   7.118  0.00  0.00    +0.000 NA
ATOM     11  C   UNL     1      47.413   2.086   6.237  0.00  0.00    +0.000 A 
ATOM     12  C   UNL     1      46.940   3.381   6.343  0.00  0.00    +0.000 A 
ATOM     13  N   UNL     1      46.119   3.770   7.344  0.00  0.00    +0.000 NA
ENDBRANCH   6   8
ENDBRANCH   1   2
BRANCH   1  14
ATOM     14  C   UNL     1      45.145   6.443  12.774  0.00  0.00    +0.000 C 
BRANCH  14  15
ATOM     15  C   UNL     1      46.433   5.605  12.825  0.00  0.00    +0.000 C 
ATOM     16  C   UNL     1      46.461   4.667  14.031  0.00  0.00    +0.000 C 
BRANCH  15  20
ATOM     17  C   UNL     1      50.368   7.312  15.175  0.00  0.00    +0.000 C 
ATOM     18  C   UNL     1      49.545   7.330  13.919  0.00  0.00    +0.000 A 
ATOM     19  N   UNL     1      48.452   6.517  13.910  0.00  0.00    +0.000 NA
ATOM     20  C   UNL     1      47.658   6.503  12.809  0.00  0.00    +0.000 A 
ATOM     21  C   UNL     1      47.947   7.271  11.685  0.00  0.00    +0.000 A 
ATOM     22  C   UNL     1      49.071   8.093  11.700  0.00  0.00    +0.000 A 
ATOM     23  C   UNL     1      49.883   8.131  12.830  0.00  0.00    +0.000 A 
ATOM     24 CL   UNL     1      51.260   9.167  12.827  0.00  0.00    +0.000 Cl
ENDBRANCH  15  20
ENDBRANCH  14  15
ENDBRANCH   1  14
TORSDOF 5
ENDMDL
MODEL 3
REMARK VINA RESULT:    -7.296      3.461      4.934
REMARK INTER + INTRA:         -10.235
REMARK INTER:                  -9.236
REMARK INTRA:                  -1.000
REMARK UNBOUND:                -0.807
REMARK  Name = 
REMARK  7 active torsions:
REMARK  status: ('A' for Active; 'I' for Inactive)
REMARK    1  A    between atoms: C_1  and  C_2
REMARK    2  A    between atoms: C_4  and  C_5
REMARK    3  A    between atoms: C_5  and  C_6
REMARK    4  A    between atoms: C_5  and  C_7
REMARK    5  A    between atoms: C_7  and  O_8
REMARK    6  A    between atoms: O_8  and  C_9
REMARK    7  A    between atoms: C_13  and  C_14
REMARK                            x       y       z     vdW  Elec       q    Type
REMARK                         _______ _______ _______ _____ _____    ______ ____
ROOT
ATOM      1  O   UNL     1      45.073   5.059  13.292  0.00  0.00    +0.000 OA
ENDROOT
BRANCH   1   2
ATOM      2  C   UNL     1      45.889   6.089  12.902  0.00  0.00    +0.000 A 
ATOM      3  C   UNL     1      47.252   5.819  12.847  0.00  0.00    +0.000 A 
ATOM      4  C   UNL     1      48.148   6.822  12.472  0.00  0.00    +0.000 A 
ATOM      5  C   UNL     1      47.682   8.111  12.186  0.00  0.00    +0.000 A 
ATOM      6  C   UNL     1      46.316   8.426  12.286  0.00  0.00    +0.000 A 
ATOM      7  C   UNL     1      45.436   7.382  12.633  0.00  0.00    +0.000 A 
BRANCH   6   8
ATOM      8  C   UNL     1      45.783   9.789  12.094  0.00  0.00    +0.000 A 
ATOM      9  C   UNL     1      44.426  10.075  11.957  0.00  0.00    +0.000 A 
ATOM     10  N   UNL     1      43.944  11.316  11.679  0.00  0.00    +0.000 NA
ATOM     11  C   UNL     1      44.881  12.275  11.531  0.00  0.00    +0.000 A 
ATOM     12  C   UNL     1      46.231  12.016  11.671  0.00  0.00    +0.000 A 
ATOM     13  N   UNL     1      46.705  10.782  11.954  0.00  0.00    +0.000 NA
ENDBRANCH   6   8
ENDBRANCH   1   2
BRANCH   1  14
ATOM     14  C   UNL     1      45.263   3.842  12.552  0.00  0.00    +0.000 C 
BRANCH  14  15
ATOM     15  C   UNL     1      44.232   3.754  11.415  0.00  0.00    +0.000 C 
ATOM     16  C   UNL     1      43.241   2.610  11.625  0.00  0.00    +0.000 C 
BRANCH  15  20
ATOM     17  C   UNL     1      46.200   0.852   8.006  0.00  0.00    +0.000 C 
ATOM     18  C   UNL     1      45.872   2.255   8.429  0.00  0.00    +0.000 A 
ATOM     19  N   UNL     1      45.233   2.384   9.625  0.00  0.00    +0.000 NA
ATOM     20  C   UNL     1      44.926   3.630  10.070  0.00  0.00    +0.000 A 
ATOM     21  C   UNL     1      45.219   4.769   9.326  0.00  0.00    +0.000 A 
ATOM     22  C   UNL     1      45.866   4.627   8.100  0.00  0.00    +0.000 A 
ATOM     23  C   UNL     1      46.202   3.357   7.641  0.00  0.00    +0.000 A 
ATOM     24 CL   UNL     1      47.013   3.210   6.128  0.00  0.00    +0.000 Cl
ENDBRANCH  15  20
ENDBRANCH  14  15
ENDBRANCH   1  14
TORSDOF 5
ENDMDL
MODEL 4
REMARK VINA RESULT:    -7.246      2.761      7.441
REMARK INTER + INTRA:         -10.171
REMARK INTER:                  -9.155
REMARK INTRA:                  -1.016
REMARK UNBOUND:                -0.807
REMARK  Name = 
REMARK  7 active torsions:
REMARK  status: ('A' for Active; 'I' for Inactive)
REMARK    1  A    between atoms: C_1  and  C_2
REMARK    2  A    between atoms: C_4  and  C_5
REMARK    3  A    between atoms: C_5  and  C_6
REMARK    4  A    between atoms: C_5  and  C_7
REMARK    5  A    between atoms: C_7  and  O_8
REMARK    6  A    between atoms: O_8  and  C_9
REMARK    7  A    between atoms: C_13  and  C_14
REMARK                            x       y       z     vdW  Elec       q    Type
REMARK                         _______ _______ _______ _____ _____    ______ ____
ROOT
ATOM      1  O   UNL     1      45.689   7.443  11.454  0.00  0.00    +0.000 OA
ENDROOT
BRANCH   1   2
ATOM      2  C   UNL     1      45.055   6.304  11.032  0.00  0.00    +0.000 A 
ATOM      3  C   UNL     1      43.860   5.983  11.667  0.00  0.00    +0.000 A 
ATOM      4  C   UNL     1      43.162   4.830  11.302  0.00  0.00    +0.000 A 
ATOM      5  C   UNL     1      43.681   3.974  10.324  0.00  0.00    +0.000 A 
ATOM      6  C   UNL     1      44.914   4.244   9.705  0.00  0.00    +0.000 A 
ATOM      7  C   UNL     1      45.574   5.433  10.071  0.00  0.00    +0.000 A 
BRANCH   6   8
ATOM      8  C   UNL     1      45.556   3.328   8.743  0.00  0.00    +0.000 A 
ATOM      9  C   UNL     1      45.612   1.946   8.912  0.00  0.00    +0.000 A 
ATOM     10  N   UNL     1      46.292   1.114   8.078  0.00  0.00    +0.000 NA
ATOM     11  C   UNL     1      46.931   1.721   7.057  0.00  0.00    +0.000 A 
ATOM     12  C   UNL     1      46.881   3.089   6.864  0.00  0.00    +0.000 A 
ATOM     13  N   UNL     1      46.199   3.911   7.692  0.00  0.00    +0.000 NA
ENDBRANCH   6   8
ENDBRANCH   1   2
BRANCH   1  14
ATOM     14  C   UNL     1      45.827   7.549  12.880  0.00  0.00    +0.000 C 
BRANCH  14  15
ATOM     15  C   UNL     1      47.303   7.376  13.277  0.00  0.00    +0.000 C 
ATOM     16  C   UNL     1      48.208   7.195  12.060  0.00  0.00    +0.000 C 
BRANCH  15  20
ATOM     17  C   UNL     1      49.352   5.629  17.360  0.00  0.00    +0.000 C 
ATOM     18  C   UNL     1      48.436   5.368  16.200  0.00  0.00    +0.000 A 
ATOM     19  N   UNL     1      48.266   6.401  15.328  0.00  0.00    +0.000 NA
ATOM     20  C   UNL     1      47.464   6.219  14.248  0.00  0.00    +0.000 A 
ATOM     21  C   UNL     1      46.792   5.020  14.026  0.00  0.00    +0.000 A 
ATOM     22  C   UNL     1      46.965   3.972  14.927  0.00  0.00    +0.000 A 
ATOM     23  C   UNL     1      47.799   4.140  16.028  0.00  0.00    +0.000 A 
ATOM     24 CL   UNL     1      48.007   2.822  17.119  0.00  0.00    +0.000 Cl
ENDBRANCH  15  20
ENDBRANCH  14  15
ENDBRANCH   1  14
TORSDOF 5
ENDMDL
MODEL 5
REMARK VINA RESULT:    -7.125      2.614      4.065
REMARK INTER + INTRA:         -10.014
REMARK INTER:                  -9.179
REMARK INTRA:                  -0.835
REMARK UNBOUND:                -0.807
REMARK  Name = 
REMARK  7 active torsions:
REMARK  status: ('A' for Active; 'I' for Inactive)
REMARK    1  A    between atoms: C_1  and  C_2
REMARK    2  A    between atoms: C_4  and  C_5
REMARK    3  A    between atoms: C_5  and  C_6
REMARK    4  A    between atoms: C_5  and  C_7
REMARK    5  A    between atoms: C_7  and  O_8
REMARK    6  A    between atoms: O_8  and  C_9
REMARK    7  A    between atoms: C_13  and  C_14
REMARK                            x       y       z     vdW  Elec       q    Type
REMARK                         _______ _______ _______ _____ _____    ______ ____
ROOT
ATOM      1  O   UNL     1      44.909   4.294  12.309  0.00  0.00    +0.000 OA
ENDROOT
BRANCH   1   2
ATOM      2  C   UNL     1      45.924   5.074  12.799  0.00  0.00    +0.000 A 
ATOM      3  C   UNL     1      46.536   4.639  13.970  0.00  0.00    +0.000 A 
ATOM      4  C   UNL     1      47.568   5.388  14.538  0.00  0.00    +0.000 A 
ATOM      5  C   UNL     1      47.965   6.597  13.954  0.00  0.00    +0.000 A 
ATOM      6  C   UNL     1      47.327   7.088  12.802  0.00  0.00    +0.000 A 
ATOM      7  C   UNL     1      46.314   6.290  12.235  0.00  0.00    +0.000 A 
BRANCH   6   8
ATOM      8  C   UNL     1      47.635   8.401  12.203  0.00  0.00    +0.000 A 
ATOM      9  C   UNL     1      48.900   8.765  11.749  0.00  0.00    +0.000 A 
ATOM     10  N   UNL     1      49.206  10.009  11.292  0.00  0.00    +0.000 NA
ATOM     11  C   UNL     1      48.188  10.894  11.312  0.00  0.00    +0.000 A 
ATOM     12  C   UNL     1      46.921  10.553  11.749  0.00  0.00    +0.000 A 
ATOM     13  N   UNL     1      46.622   9.313  12.196  0.00  0.00    +0.000 NA
ENDBRANCH   6   8
ENDBRANCH   1   2
BRANCH   1  14
ATOM     14  C   UNL     1      44.412   4.707  11.026  0.00  0.00    +0.000 C 
BRANCH  14  15
ATOM     15  C   UNL     1      44.001   3.476  10.203  0.00  0.00    +0.000 C 
ATOM     16  C   UNL     1      43.772   2.247  11.081  0.00  0.00    +0.000 C 
BRANCH  15  20
ATOM     17  C   UNL     1      46.644   0.162   7.762  0.00  0.00    +0.000 C 
ATOM     18  C   UNL     1      46.301   1.613   7.946  0.00  0.00    +0.000 A 
ATOM     19  N   UNL     1      45.368   1.890   8.898  0.00  0.00    +0.000 NA
ATOM     20  C   UNL     1      45.029   3.185   9.123  0.00  0.00    +0.000 A 
ATOM     21  C   UNL     1      45.588   4.228   8.390  0.00  0.00    +0.000 A 
ATOM     22  C   UNL     1      46.536   3.935   7.413  0.00  0.00    +0.000 A 
ATOM     23  C   UNL     1      46.905   2.612   7.185  0.00  0.00    +0.000 A 
ATOM     24 CL   UNL     1      48.090   2.278   5.980  0.00  0.00    +0.000 Cl
ENDBRANCH  15  20
ENDBRANCH  14  15
ENDBRANCH   1  14
TORSDOF 5
ENDMDL
MODEL 6
REMARK VINA RESULT:    -6.881      3.197      7.993
REMARK INTER + INTRA:          -9.699
REMARK INTER:                  -8.884
REMARK INTRA:                  -0.815
REMARK UNBOUND:                -0.807
REMARK  Name = 
REMARK  7 active torsions:
REMARK  status: ('A' for Active; 'I' for Inactive)
REMARK    1  A    between atoms: C_1  and  C_2
REMARK    2  A    between atoms: C_4  and  C_5
REMARK    3  A    between atoms: C_5  and  C_6
REMARK    4  A    between atoms: C_5  and  C_7
REMARK    5  A    between atoms: C_7  and  O_8
REMARK    6  A    between atoms: O_8  and  C_9
REMARK    7  A    between atoms: C_13  and  C_14
REMARK                            x       y       z     vdW  Elec       q    Type
REMARK                         _______ _______ _______ _____ _____    ______ ____
ROOT
ATOM      1  O   UNL     1      45.353   4.346  14.050  0.00  0.00    +0.000 OA
ENDROOT
BRANCH   1   2
ATOM      2  C   UNL     1      44.765   4.464  12.818  0.00  0.00    +0.000 A 
ATOM      3  C   UNL     1      43.509   5.059  12.780  0.00  0.00    +0.000 A 
ATOM      4  C   UNL     1      42.839   5.202  11.563  0.00  0.00    +0.000 A 
ATOM      5  C   UNL     1      43.413   4.714  10.383  0.00  0.00    +0.000 A 
ATOM      6  C   UNL     1      44.657   4.059  10.400  0.00  0.00    +0.000 A 
ATOM      7  C   UNL     1      45.321   3.964  11.638  0.00  0.00    +0.000 A 
BRANCH   6   8
ATOM      8  C   UNL     1      45.262   3.438   9.205  0.00  0.00    +0.000 A 
ATOM      9  C   UNL     1      45.464   2.066   9.067  0.00  0.00    +0.000 A 
ATOM     10  N   UNL     1      46.113   1.505   8.011  0.00  0.00    +0.000 NA
ATOM     11  C   UNL     1      46.568   2.377   7.088  0.00  0.00    +0.000 A 
ATOM     12  C   UNL     1      46.370   3.740   7.199  0.00  0.00    +0.000 A 
ATOM     13  N   UNL     1      45.719   4.293   8.248  0.00  0.00    +0.000 NA
ENDBRANCH   6   8
ENDBRANCH   1   2
BRANCH   1  14
ATOM     14  C   UNL     1      46.789   4.303  14.019  0.00  0.00    +0.000 C 
BRANCH  14  15
ATOM     15  C   UNL     1      47.360   5.717  14.212  0.00  0.00    +0.000 C 
ATOM     16  C   UNL     1      48.093   6.216  12.967  0.00  0.00    +0.000 C 
BRANCH  15  20
ATOM     17  C   UNL     1      49.095   3.478  18.199  0.00  0.00    +0.000 C 
ATOM     18  C   UNL     1      49.105   4.711  17.342  0.00  0.00    +0.000 A 
ATOM     19  N   UNL     1      48.312   4.675  16.235  0.00  0.00    +0.000 NA
ATOM     20  C   UNL     1      48.266   5.768  15.430  0.00  0.00    +0.000 A 
ATOM     21  C   UNL     1      49.026   6.905  15.689  0.00  0.00    +0.000 A 
ATOM     22  C   UNL     1      49.840   6.929  16.819  0.00  0.00    +0.000 A 
ATOM     23  C   UNL     1      49.883   5.823  17.662  0.00  0.00    +0.000 A 
ATOM     24 CL   UNL     1      50.888   5.884  19.060  0.00  0.00    +0.000 Cl
ENDBRANCH  15  20
ENDBRANCH  14  15
ENDBRANCH   1  14
TORSDOF 5
ENDMDL
MODEL 7
REMARK VINA RESULT:    -6.621      3.759      7.867
REMARK INTER + INTRA:          -9.363
REMARK INTER:                  -8.492
REMARK INTRA:                  -0.872
REMARK UNBOUND:                -0.807
REMARK  Name = 
REMARK  7 active torsions:
REMARK  status: ('A' for Active; 'I' for Inactive)
REMARK    1  A    between atoms: C_1  and  C_2
REMARK    2  A    between atoms: C_4  and  C_5
REMARK    3  A    between atoms: C_5  and  C_6
REMARK    4  A    between atoms: C_5  and  C_7
REMARK    5  A    between atoms: C_7  and  O_8
REMARK    6  A    between atoms: O_8  and  C_9
REMARK    7  A    between atoms: C_13  and  C_14
REMARK                            x       y       z     vdW  Elec       q    Type
REMARK                         _______ _______ _______ _____ _____    ______ ____
ROOT
ATOM      1  O   UNL     1      49.136   6.280  14.879  0.00  0.00    +0.000 OA
ENDROOT
BRANCH   1   2
ATOM      2  C   UNL     1      48.055   6.588  14.095  0.00  0.00    +0.000 A 
ATOM      3  C   UNL     1      47.745   7.937  13.960  0.00  0.00    +0.000 A 
ATOM      4  C   UNL     1      46.649   8.329  13.188  0.00  0.00    +0.000 A 
ATOM      5  C   UNL     1      45.837   7.364  12.579  0.00  0.00    +0.000 A 
ATOM      6  C   UNL     1      46.095   5.993  12.744  0.00  0.00    +0.000 A 
ATOM      7  C   UNL     1      47.227   5.633  13.499  0.00  0.00    +0.000 A 
BRANCH   6   8
ATOM      8  C   UNL     1      45.216   4.934  12.209  0.00  0.00    +0.000 A 
ATOM      9  C   UNL     1      44.850   4.837  10.868  0.00  0.00    +0.000 A 
ATOM     10  N   UNL     1      43.960   3.924  10.396  0.00  0.00    +0.000 NA
ATOM     11  C   UNL     1      43.433   3.102  11.326  0.00  0.00    +0.000 A 
ATOM     12  C   UNL     1      43.788   3.173  12.660  0.00  0.00    +0.000 A 
ATOM     13  N   UNL     1      44.678   4.079  13.124  0.00  0.00    +0.000 NA
ENDBRANCH   6   8
ENDBRANCH   1   2
BRANCH   1  14
ATOM     14  C   UNL     1      49.024   6.726  16.241  0.00  0.00    +0.000 C 
BRANCH  14  15
ATOM     15  C   UNL     1      48.365   5.632  17.097  0.00  0.00    +0.000 C 
ATOM     16  C   UNL     1      47.967   6.147  18.480  0.00  0.00    +0.000 C 
BRANCH  15  20
ATOM     17  C   UNL     1      52.808   3.843  18.088  0.00  0.00    +0.000 C 
ATOM     18  C   UNL     1      51.393   3.547  17.681  0.00  0.00    +0.000 A 
ATOM     19  N   UNL     1      50.560   4.622  17.592  0.00  0.00    +0.000 NA
ATOM     20  C   UNL     1      49.272   4.420  17.211  0.00  0.00    +0.000 A 
ATOM     21  C   UNL     1      48.777   3.147  16.940  0.00  0.00    +0.000 A 
ATOM     22  C   UNL     1      49.634   2.054  17.042  0.00  0.00    +0.000 A 
ATOM     23  C   UNL     1      50.961   2.249  17.414  0.00  0.00    +0.000 A 
ATOM     24 CL   UNL     1      52.003   0.881  17.519  0.00  0.00    +0.000 Cl
ENDBRANCH  15  20
ENDBRANCH  14  15
ENDBRANCH   1  14
TORSDOF 5
ENDMDL
MODEL 8
REMARK VINA RESULT:    -6.162      2.880      4.625
REMARK INTER + INTRA:          -8.770
REMARK INTER:                  -7.852
REMARK INTRA:                  -0.919
REMARK UNBOUND:                -0.807
REMARK  Name = 
REMARK  7 active torsions:
REMARK  status: ('A' for Active; 'I' for Inactive)
REMARK    1  A    between atoms: C_1  and  C_2
REMARK    2  A    between atoms: C_4  and  C_5
REMARK    3  A    between atoms: C_5  and  C_6
REMARK    4  A    between atoms: C_5  and  C_7
REMARK    5  A    between atoms: C_7  and  O_8
REMARK    6  A    between atoms: O_8  and  C_9
REMARK    7  A    between atoms: C_13  and  C_14
REMARK                            x       y       z     vdW  Elec       q    Type
REMARK                         _______ _______ _______ _____ _____    ______ ____
ROOT
ATOM      1  O   UNL     1      48.996   8.239  13.017  0.00  0.00    +0.000 OA
ENDROOT
BRANCH   1   2
ATOM      2  C   UNL     1      49.203   7.843  14.313  0.00  0.00    +0.000 A 
ATOM      3  C   UNL     1      49.991   8.674  15.101  0.00  0.00    +0.000 A 
ATOM      4  C   UNL     1      50.259   8.332  16.428  0.00  0.00    +0.000 A 
ATOM      5  C   UNL     1      49.767   7.133  16.958  0.00  0.00    +0.000 A 
ATOM      6  C   UNL     1      49.013   6.247  16.168  0.00  0.00    +0.000 A 
ATOM      7  C   UNL     1      48.732   6.641  14.845  0.00  0.00    +0.000 A 
BRANCH   6   8
ATOM      8  C   UNL     1      48.555   4.927  16.643  0.00  0.00    +0.000 A 
ATOM      9  C   UNL     1      47.213   4.570  16.756  0.00  0.00    +0.000 A 
ATOM     10  N   UNL     1      46.792   3.392  17.290  0.00  0.00    +0.000 NA
ATOM     11  C   UNL     1      47.774   2.573  17.722  0.00  0.00    +0.000 A 
ATOM     12  C   UNL     1      49.111   2.903  17.611  0.00  0.00    +0.000 A 
ATOM     13  N   UNL     1      49.525   4.072  17.074  0.00  0.00    +0.000 NA
ENDBRANCH   6   8
ENDBRANCH   1   2
BRANCH   1  14
ATOM     14  C   UNL     1      48.465   7.213  12.163  0.00  0.00    +0.000 C 
BRANCH  14  15
ATOM     15  C   UNL     1      47.039   7.584  11.724  0.00  0.00    +0.000 C 
ATOM     16  C   UNL     1      46.464   8.734  12.550  0.00  0.00    +0.000 C 
BRANCH  15  20
ATOM     17  C   UNL     1      44.545   4.145   9.300  0.00  0.00    +0.000 C 
ATOM     18  C   UNL     1      44.929   4.717  10.634  0.00  0.00    +0.000 A 
ATOM     19  N   UNL     1      45.760   5.797  10.604  0.00  0.00    +0.000 NA
ATOM     20  C   UNL     1      46.128   6.370  11.779  0.00  0.00    +0.000 A 
ATOM     21  C   UNL     1      45.705   5.867  13.006  0.00  0.00    +0.000 A 
ATOM     22  C   UNL     1      44.862   4.758  13.027  0.00  0.00    +0.000 A 
ATOM     23  C   UNL     1      44.463   4.173  11.829  0.00  0.00    +0.000 A 
ATOM     24 CL   UNL     1      43.408   2.811  11.883  0.00  0.00    +0.000 Cl
ENDBRANCH  15  20
ENDBRANCH  14  15
ENDBRANCH   1  14
TORSDOF 5
ENDMDL
MODEL 9
REMARK VINA RESULT:    -5.723      4.681      9.137
REMARK INTER + INTRA:          -8.203
REMARK INTER:                  -7.535
REMARK INTRA:                  -0.668
REMARK UNBOUND:                -0.807
REMARK  Name = 
REMARK  7 active torsions:
REMARK  status: ('A' for Active; 'I' for Inactive)
REMARK    1  A    between atoms: C_1  and  C_2
REMARK    2  A    between atoms: C_4  and  C_5
REMARK    3  A    between atoms: C_5  and  C_6
REMARK    4  A    between atoms: C_5  and  C_7
REMARK    5  A    between atoms: C_7  and  O_8
REMARK    6  A    between atoms: O_8  and  C_9
REMARK    7  A    between atoms: C_13  and  C_14
REMARK                            x       y       z     vdW  Elec       q    Type
REMARK                         _______ _______ _______ _____ _____    ______ ____
ROOT
ATOM      1  O   UNL     1      49.065   6.348  14.708  0.00  0.00    +0.000 OA
ENDROOT
BRANCH   1   2
ATOM      2  C   UNL     1      47.959   6.660  13.962  0.00  0.00    +0.000 A 
ATOM      3  C   UNL     1      47.650   8.011  13.838  0.00  0.00    +0.000 A 
ATOM      4  C   UNL     1      46.531   8.408  13.105  0.00  0.00    +0.000 A 
ATOM      5  C   UNL     1      45.694   7.447  12.524  0.00  0.00    +0.000 A 
ATOM      6  C   UNL     1      45.950   6.074  12.679  0.00  0.00    +0.000 A 
ATOM      7  C   UNL     1      47.107   5.710  13.394  0.00  0.00    +0.000 A 
BRANCH   6   8
ATOM      8  C   UNL     1      45.049   5.020  12.175  0.00  0.00    +0.000 A 
ATOM      9  C   UNL     1      44.174   5.197  11.105  0.00  0.00    +0.000 A 
ATOM     10  N   UNL     1      43.273   4.260  10.708  0.00  0.00    +0.000 NA
ATOM     11  C   UNL     1      43.270   3.123  11.434  0.00  0.00    +0.000 A 
ATOM     12  C   UNL     1      44.135   2.920  12.492  0.00  0.00    +0.000 A 
ATOM     13  N   UNL     1      45.033   3.853  12.880  0.00  0.00    +0.000 NA
ENDBRANCH   6   8
ENDBRANCH   1   2
BRANCH   1  14
ATOM     14  C   UNL     1      49.149   7.046  15.961  0.00  0.00    +0.000 C 
BRANCH  14  15
ATOM     15  C   UNL     1      49.082   6.043  17.124  0.00  0.00    +0.000 C 
ATOM     16  C   UNL     1      48.266   4.801  16.766  0.00  0.00    +0.000 C 
BRANCH  15  20
ATOM     17  C   UNL     1      47.798   5.639  21.826  0.00  0.00    +0.000 C 
ATOM     18  C   UNL     1      47.915   6.532  20.625  0.00  0.00    +0.000 A 
ATOM     19  N   UNL     1      48.421   5.955  19.499  0.00  0.00    +0.000 NA
ATOM     20  C   UNL     1      48.534   6.708  18.375  0.00  0.00    +0.000 A 
ATOM     21  C   UNL     1      48.175   8.053  18.352  0.00  0.00    +0.000 A 
ATOM     22  C   UNL     1      47.666   8.636  19.510  0.00  0.00    +0.000 A 
ATOM     23  C   UNL     1      47.529   7.870  20.664  0.00  0.00    +0.000 A 
ATOM     24 CL   UNL     1      46.883   8.612  22.079  0.00  0.00    +0.000 Cl
ENDBRANCH  15  20
ENDBRANCH  14  15
ENDBRANCH   1  14
TORSDOF 5
ENDMDL
