MODEL 1
REMARK VINA RESULT:    -8.477      0.000      0.000
REMARK INTER + INTRA:         -12.403
REMARK INTER:                 -11.451
REMARK INTRA:                  -0.952
REMARK UNBOUND:                -0.952
REMARK  Name = 
REMARK  6 active torsions:
REMARK  status: ('A' for Active; 'I' for Inactive)
REMARK    1  A    between atoms: C_2  and  C_4
REMARK    2  A    between atoms: C_7  and  O_8
REMARK    3  A    between atoms: O_8  and  C_9
REMARK    4  A    between atoms: C_9  and  C_10
REMARK    5  A    between atoms: C_10  and  C_11
REMARK    6  A    between atoms: C_15  and  C_16
REMARK                            x       y       z     vdW  Elec       q    Type
REMARK                         _______ _______ _______ _____ _____    ______ ____
ROOT
ATOM      1  C   UNL     1      43.329   4.972  12.333  0.00  0.00    +0.000 C 
ENDROOT
BRANCH   1   2
ATOM      2  C   UNL     1      44.733   5.278  12.805  0.00  0.00    +0.000 A 
ATOM      3  C   UNL     1      45.436   4.370  13.602  0.00  0.00    +0.000 A 
ATOM      4  C   UNL     1      46.745   4.652  13.991  0.00  0.00    +0.000 A 
ATOM      5  C   UNL     1      47.370   5.834  13.576  0.00  0.00    +0.000 A 
ATOM      6  C   UNL     1      46.697   6.785  12.786  0.00  0.00    +0.000 A 
ATOM      7  C   UNL     1      45.366   6.479  12.436  0.00  0.00    +0.000 A 
ATOM      8  F   UNL     1      44.647   7.366  11.728  0.00  0.00    +0.000 F 
BRANCH   6   9
ATOM      9  C   UNL     1      47.367   8.037  12.345  0.00  0.00    +0.000 A 
ATOM     10  C   UNL     1      46.760   9.293  12.496  0.00  0.00    +0.000 A 
ATOM     11  C   UNL     1      47.431  10.438  12.089  0.00  0.00    +0.000 A 
ATOM     12  N   UNL     1      48.652  10.430  11.520  0.00  0.00    +0.000 NA
ATOM     13  C   UNL     1      49.225   9.223  11.361  0.00  0.00    +0.000 A 
ATOM     14  C   UNL     1      48.639   8.026  11.751  0.00  0.00    +0.000 A 
ENDBRANCH   6   9
ENDBRANCH   1   2
BRANCH   1  15
ATOM     15  C   UNL     1      43.319   3.982  11.165  0.00  0.00    +0.000 C 
BRANCH  15  16
ATOM     16  O   UNL     1      43.647   4.650   9.937  0.00  0.00    +0.000 OA
BRANCH  16  20
ATOM     17  C   UNL     1      46.399   2.477   7.761  0.00  0.00    +0.000 A 
ATOM     18  C   UNL     1      45.579   1.822   8.682  0.00  0.00    +0.000 A 
ATOM     19  C   UNL     1      44.655   2.566   9.423  0.00  0.00    +0.000 A 
ATOM     20  C   UNL     1      44.587   3.936   9.211  0.00  0.00    +0.000 A 
ATOM     21  N   UNL     1      45.387   4.592   8.341  0.00  0.00    +0.000 NA
ATOM     22  C   UNL     1      46.278   3.852   7.642  0.00  0.00    +0.000 A 
BRANCH  17  24
ATOM     23  N   UNL     1      48.463   2.522   6.482  0.00  0.00    +0.000 N 
ATOM     24  C   UNL     1      47.391   1.792   6.909  0.00  0.00    +0.000 C 
ATOM     25  O   UNL     1      47.289   0.601   6.638  0.00  0.00    +0.000 OA
ATOM     26  H   UNL     1      49.196   2.002   6.016  0.00  0.00    +0.000 HD
ATOM     27  H   UNL     1      48.714   3.408   6.898  0.00  0.00    +0.000 HD
ENDBRANCH  17  24
ENDBRANCH  16  20
ENDBRANCH  15  16
ENDBRANCH   1  15
TORSDOF 6
ENDMDL
MODEL 2
REMARK VINA RESULT:    -8.345      2.326      3.584
REMARK INTER + INTRA:         -12.224
REMARK INTER:                 -11.360
REMARK INTRA:                  -0.864
REMARK UNBOUND:                -0.952
REMARK  Name = 
REMARK  6 active torsions:
REMARK  status: ('A' for Active; 'I' for Inactive)
REMARK    1  A    between atoms: C_2  and  C_4
REMARK    2  A    between atoms: C_7  and  O_8
REMARK    3  A    between atoms: O_8  and  C_9
REMARK    4  A    between atoms: C_9  and  C_10
REMARK    5  A    between atoms: C_10  and  C_11
REMARK    6  A    between atoms: C_15  and  C_16
REMARK                            x       y       z     vdW  Elec       q    Type
REMARK                         _______ _______ _______ _____ _____    ______ ____
ROOT
ATOM      1  C   UNL     1      43.832   5.764  11.744  0.00  0.00    +0.000 C 
ENDROOT
BRANCH   1   2
ATOM      2  C   UNL     1      45.284   5.954  12.122  0.00  0.00    +0.000 A 
ATOM      3  C   UNL     1      46.146   6.696  11.310  0.00  0.00    +0.000 A 
ATOM      4  C   UNL     1      47.470   6.896  11.698  0.00  0.00    +0.000 A 
ATOM      5  C   UNL     1      47.943   6.371  12.906  0.00  0.00    +0.000 A 
ATOM      6  C   UNL     1      47.117   5.603  13.749  0.00  0.00    +0.000 A 
ATOM      7  C   UNL     1      45.793   5.398  13.310  0.00  0.00    +0.000 A 
ATOM      8  F   UNL     1      44.965   4.632  14.040  0.00  0.00    +0.000 F 
BRANCH   6   9
ATOM      9  C   UNL     1      47.623   5.051  15.033  0.00  0.00    +0.000 A 
ATOM     10  C   UNL     1      47.394   3.718  15.406  0.00  0.00    +0.000 A 
ATOM     11  C   UNL     1      47.903   3.238  16.606  0.00  0.00    +0.000 A 
ATOM     12  N   UNL     1      48.605   3.989  17.476  0.00  0.00    +0.000 NA
ATOM     13  C   UNL     1      48.810   5.272  17.124  0.00  0.00    +0.000 A 
ATOM     14  C   UNL     1      48.353   5.835  15.939  0.00  0.00    +0.000 A 
ENDBRANCH   6   9
ENDBRANCH   1   2
BRANCH   1  15
ATOM     15  C   UNL     1      43.601   4.447  10.998  0.00  0.00    +0.000 C 
BRANCH  15  16
ATOM     16  O   UNL     1      43.604   4.666   9.579  0.00  0.00    +0.000 OA
BRANCH  16  20
ATOM     17  C   UNL     1      46.572   2.480   7.723  0.00  0.00    +0.000 A 
ATOM     18  C   UNL     1      45.686   1.839   8.591  0.00  0.00    +0.000 A 
ATOM     19  C   UNL     1      44.689   2.587   9.224  0.00  0.00    +0.000 A 
ATOM     20  C   UNL     1      44.616   3.948   8.961  0.00  0.00    +0.000 A 
ATOM     21  N   UNL     1      45.476   4.592   8.142  0.00  0.00    +0.000 NA
ATOM     22  C   UNL     1      46.438   3.848   7.548  0.00  0.00    +0.000 A 
BRANCH  17  24
ATOM     23  N   UNL     1      48.593   2.565   6.379  0.00  0.00    +0.000 N 
ATOM     24  C   UNL     1      47.646   1.789   6.983  0.00  0.00    +0.000 C 
ATOM     25  O   UNL     1      47.718   0.566   6.954  0.00  0.00    +0.000 OA
ATOM     26  H   UNL     1      49.391   2.073   5.996  0.00  0.00    +0.000 HD
ATOM     27  H   UNL     1      48.715   3.543   6.604  0.00  0.00    +0.000 HD
ENDBRANCH  17  24
ENDBRANCH  16  20
ENDBRANCH  15  16
ENDBRANCH   1  15
TORSDOF 6
ENDMDL
MODEL 3
REMARK VINA RESULT:    -8.075      1.758      2.363
REMARK INTER + INTRA:         -11.859
REMARK INTER:                 -10.701
REMARK INTRA:                  -1.158
REMARK UNBOUND:                -0.952
REMARK  Name = 
REMARK  6 active torsions:
REMARK  status: ('A' for Active; 'I' for Inactive)
REMARK    1  A    between atoms: C_2  and  C_4
REMARK    2  A    between atoms: C_7  and  O_8
REMARK    3  A    between atoms: O_8  and  C_9
REMARK    4  A    between atoms: C_9  and  C_10
REMARK    5  A    between atoms: C_10  and  C_11
REMARK    6  A    between atoms: C_15  and  C_16
REMARK                            x       y       z     vdW  Elec       q    Type
REMARK                         _______ _______ _______ _____ _____    ______ ____
ROOT
ATOM      1  C   UNL     1      43.745   4.083  12.709  0.00  0.00    +0.000 C 
ENDROOT
BRANCH   1   2
ATOM      2  C   UNL     1      44.375   5.402  12.317  0.00  0.00    +0.000 A 
ATOM      3  C   UNL     1      43.643   6.369  11.624  0.00  0.00    +0.000 A 
ATOM      4  C   UNL     1      44.228   7.595  11.310  0.00  0.00    +0.000 A 
ATOM      5  C   UNL     1      45.544   7.872  11.697  0.00  0.00    +0.000 A 
ATOM      6  C   UNL     1      46.326   6.924  12.382  0.00  0.00    +0.000 A 
ATOM      7  C   UNL     1      45.710   5.686  12.658  0.00  0.00    +0.000 A 
ATOM      8  F   UNL     1      46.415   4.715  13.263  0.00  0.00    +0.000 F 
BRANCH   6   9
ATOM      9  C   UNL     1      47.722   7.226  12.795  0.00  0.00    +0.000 A 
ATOM     10  C   UNL     1      48.117   7.198  14.141  0.00  0.00    +0.000 A 
ATOM     11  C   UNL     1      49.437   7.466  14.480  0.00  0.00    +0.000 A 
ATOM     12  N   UNL     1      50.392   7.784  13.585  0.00  0.00    +0.000 NA
ATOM     13  C   UNL     1      50.007   7.826  12.295  0.00  0.00    +0.000 A 
ATOM     14  C   UNL     1      48.715   7.557  11.860  0.00  0.00    +0.000 A 
ENDBRANCH   6   9
ENDBRANCH   1   2
BRANCH   1  15
ATOM     15  C   UNL     1      44.114   2.960  11.736  0.00  0.00    +0.000 C 
BRANCH  15  16
ATOM     16  O   UNL     1      43.579   3.230  10.431  0.00  0.00    +0.000 OA
BRANCH  16  20
ATOM     17  C   UNL     1      46.467   2.736   7.525  0.00  0.00    +0.000 A 
ATOM     18  C   UNL     1      46.014   4.020   7.833  0.00  0.00    +0.000 A 
ATOM     19  C   UNL     1      45.028   4.180   8.812  0.00  0.00    +0.000 A 
ATOM     20  C   UNL     1      44.536   3.047   9.446  0.00  0.00    +0.000 A 
ATOM     21  N   UNL     1      44.944   1.794   9.147  0.00  0.00    +0.000 NA
ATOM     22  C   UNL     1      45.893   1.664   8.191  0.00  0.00    +0.000 A 
BRANCH  17  24
ATOM     23  N   UNL     1      47.470   3.139   5.351  0.00  0.00    +0.000 N 
ATOM     24  C   UNL     1      47.518   2.450   6.529  0.00  0.00    +0.000 C 
ATOM     25  O   UNL     1      48.430   1.666   6.766  0.00  0.00    +0.000 OA
ATOM     26  H   UNL     1      48.271   3.031   4.741  0.00  0.00    +0.000 HD
ATOM     27  H   UNL     1      46.905   3.969   5.232  0.00  0.00    +0.000 HD
ENDBRANCH  17  24
ENDBRANCH  16  20
ENDBRANCH  15  16
ENDBRANCH   1  15
TORSDOF 6
ENDMDL
MODEL 4
REMARK VINA RESULT:    -7.837      3.332      6.941
REMARK INTER + INTRA:         -11.538
REMARK INTER:                 -10.502
REMARK INTRA:                  -1.035
REMARK UNBOUND:                -0.952
REMARK  Name = 
REMARK  6 active torsions:
REMARK  status: ('A' for Active; 'I' for Inactive)
REMARK    1  A    between atoms: C_2  and  C_4
REMARK    2  A    between atoms: C_7  and  O_8
REMARK    3  A    between atoms: O_8  and  C_9
REMARK    4  A    between atoms: C_9  and  C_10
REMARK    5  A    between atoms: C_10  and  C_11
REMARK    6  A    between atoms: C_15  and  C_16
REMARK                            x       y       z     vdW  Elec       q    Type
REMARK                         _______ _______ _______ _____ _____    ______ ____
ROOT
ATOM      1  C   UNL     1      44.747   6.875  11.334  0.00  0.00    +0.000 C 
ENDROOT
BRANCH   1   2
ATOM      2  C   UNL     1      44.513   5.423  10.980  0.00  0.00    +0.000 A 
ATOM      3  C   UNL     1      43.563   4.661  11.665  0.00  0.00    +0.000 A 
ATOM      4  C   UNL     1      43.333   3.337  11.296  0.00  0.00    +0.000 A 
ATOM      5  C   UNL     1      44.037   2.765  10.231  0.00  0.00    +0.000 A 
ATOM      6  C   UNL     1      45.016   3.487   9.522  0.00  0.00    +0.000 A 
ATOM      7  C   UNL     1      45.241   4.814   9.942  0.00  0.00    +0.000 A 
ATOM      8  F   UNL     1      46.197   5.545   9.344  0.00  0.00    +0.000 F 
BRANCH   6   9
ATOM      9  C   UNL     1      45.758   2.876   8.388  0.00  0.00    +0.000 A 
ATOM     10  C   UNL     1      46.085   3.609   7.237  0.00  0.00    +0.000 A 
ATOM     11  C   UNL     1      46.798   3.004   6.211  0.00  0.00    +0.000 A 
ATOM     12  N   UNL     1      47.193   1.716   6.230  0.00  0.00    +0.000 NA
ATOM     13  C   UNL     1      46.864   1.010   7.328  0.00  0.00    +0.000 A 
ATOM     14  C   UNL     1      46.168   1.534   8.409  0.00  0.00    +0.000 A 
ENDBRANCH   6   9
ENDBRANCH   1   2
BRANCH   1  15
ATOM     15  C   UNL     1      45.483   7.030  12.667  0.00  0.00    +0.000 C 
BRANCH  15  16
ATOM     16  O   UNL     1      46.825   6.531  12.561  0.00  0.00    +0.000 OA
BRANCH  16  20
ATOM     17  C   UNL     1      47.710   3.843  15.565  0.00  0.00    +0.000 A 
ATOM     18  C   UNL     1      47.065   3.395  14.409  0.00  0.00    +0.000 A 
ATOM     19  C   UNL     1      46.760   4.314  13.400  0.00  0.00    +0.000 A 
ATOM     20  C   UNL     1      47.114   5.643  13.585  0.00  0.00    +0.000 A 
ATOM     21  N   UNL     1      47.718   6.100  14.704  0.00  0.00    +0.000 NA
ATOM     22  C   UNL     1      47.995   5.194  15.671  0.00  0.00    +0.000 A 
BRANCH  17  24
ATOM     23  N   UNL     1      47.326   2.991  17.806  0.00  0.00    +0.000 N 
ATOM     24  C   UNL     1      48.101   2.961  16.682  0.00  0.00    +0.000 C 
ATOM     25  O   UNL     1      49.052   2.194  16.590  0.00  0.00    +0.000 OA
ATOM     26  H   UNL     1      47.529   2.285  18.503  0.00  0.00    +0.000 HD
ATOM     27  H   UNL     1      46.402   3.400  17.815  0.00  0.00    +0.000 HD
ENDBRANCH  17  24
ENDBRANCH  16  20
ENDBRANCH  15  16
ENDBRANCH   1  15
TORSDOF 6
ENDMDL
MODEL 5
REMARK VINA RESULT:    -7.638      2.056      2.843
REMARK INTER + INTRA:         -11.269
REMARK INTER:                 -10.476
REMARK INTRA:                  -0.792
REMARK UNBOUND:                -0.952
REMARK  Name = 
REMARK  6 active torsions:
REMARK  status: ('A' for Active; 'I' for Inactive)
REMARK    1  A    between atoms: C_2  and  C_4
REMARK    2  A    between atoms: C_7  and  O_8
REMARK    3  A    between atoms: O_8  and  C_9
REMARK    4  A    between atoms: C_9  and  C_10
REMARK    5  A    between atoms: C_10  and  C_11
REMARK    6  A    between atoms: C_15  and  C_16
REMARK                            x       y       z     vdW  Elec       q    Type
REMARK                         _______ _______ _______ _____ _____    ______ ____
ROOT
ATOM      1  C   UNL     1      44.506   4.708  12.141  0.00  0.00    +0.000 C 
ENDROOT
BRANCH   1   2
ATOM      2  C   UNL     1      45.274   6.002  12.287  0.00  0.00    +0.000 A 
ATOM      3  C   UNL     1      44.796   7.189  11.725  0.00  0.00    +0.000 A 
ATOM      4  C   UNL     1      45.497   8.379  11.907  0.00  0.00    +0.000 A 
ATOM      5  C   UNL     1      46.674   8.401  12.665  0.00  0.00    +0.000 A 
ATOM      6  C   UNL     1      47.204   7.228  13.237  0.00  0.00    +0.000 A 
ATOM      7  C   UNL     1      46.482   6.039  13.007  0.00  0.00    +0.000 A 
ATOM      8  F   UNL     1      46.958   4.875  13.480  0.00  0.00    +0.000 F 
BRANCH   6   9
ATOM      9  C   UNL     1      48.452   7.258  14.044  0.00  0.00    +0.000 A 
ATOM     10  C   UNL     1      49.628   7.855  13.566  0.00  0.00    +0.000 A 
ATOM     11  C   UNL     1      50.765   7.877  14.362  0.00  0.00    +0.000 A 
ATOM     12  N   UNL     1      50.831   7.331  15.592  0.00  0.00    +0.000 NA
ATOM     13  C   UNL     1      49.706   6.744  16.042  0.00  0.00    +0.000 A 
ATOM     14  C   UNL     1      48.518   6.686  15.325  0.00  0.00    +0.000 A 
ENDBRANCH   6   9
ENDBRANCH   1   2
BRANCH   1  15
ATOM     15  C   UNL     1      43.669   4.679  10.859  0.00  0.00    +0.000 C 
BRANCH  15  16
ATOM     16  O   UNL     1      43.546   3.335  10.368  0.00  0.00    +0.000 OA
BRANCH  16  20
ATOM     17  C   UNL     1      46.457   2.564   7.546  0.00  0.00    +0.000 A 
ATOM     18  C   UNL     1      45.915   3.848   7.643  0.00  0.00    +0.000 A 
ATOM     19  C   UNL     1      44.922   4.100   8.595  0.00  0.00    +0.000 A 
ATOM     20  C   UNL     1      44.512   3.057   9.415  0.00  0.00    +0.000 A 
ATOM     21  N   UNL     1      45.007   1.803   9.323  0.00  0.00    +0.000 NA
ATOM     22  C   UNL     1      45.961   1.582   8.388  0.00  0.00    +0.000 A 
BRANCH  17  24
ATOM     23  N   UNL     1      47.670   2.964   5.481  0.00  0.00    +0.000 N 
ATOM     24  C   UNL     1      47.523   2.191   6.597  0.00  0.00    +0.000 C 
ATOM     25  O   UNL     1      48.283   1.256   6.822  0.00  0.00    +0.000 OA
ATOM     26  H   UNL     1      48.488   2.775   4.915  0.00  0.00    +0.000 HD
ATOM     27  H   UNL     1      47.250   3.880   5.398  0.00  0.00    +0.000 HD
ENDBRANCH  17  24
ENDBRANCH  16  20
ENDBRANCH  15  16
ENDBRANCH   1  15
TORSDOF 6
ENDMDL
MODEL 6
REMARK VINA RESULT:    -6.925      5.132      7.910
REMARK INTER + INTRA:         -10.306
REMARK INTER:                  -9.321
REMARK INTRA:                  -0.985
REMARK UNBOUND:                -0.952
REMARK  Name = 
REMARK  6 active torsions:
REMARK  status: ('A' for Active; 'I' for Inactive)
REMARK    1  A    between atoms: C_2  and  C_4
REMARK    2  A    between atoms: C_7  and  O_8
REMARK    3  A    between atoms: O_8  and  C_9
REMARK    4  A    between atoms: C_9  and  C_10
REMARK    5  A    between atoms: C_10  and  C_11
REMARK    6  A    between atoms: C_15  and  C_16
REMARK                            x       y       z     vdW  Elec       q    Type
REMARK                         _______ _______ _______ _____ _____    ______ ____
ROOT
ATOM      1  C   UNL     1      49.008   6.809  14.537  0.00  0.00    +0.000 C 
ENDROOT
BRANCH   1   2
ATOM      2  C   UNL     1      47.688   7.064  13.844  0.00  0.00    +0.000 A 
ATOM      3  C   UNL     1      47.204   8.365  13.677  0.00  0.00    +0.000 A 
ATOM      4  C   UNL     1      46.006   8.581  12.998  0.00  0.00    +0.000 A 
ATOM      5  C   UNL     1      45.287   7.505  12.466  0.00  0.00    +0.000 A 
ATOM      6  C   UNL     1      45.726   6.176  12.623  0.00  0.00    +0.000 A 
ATOM      7  C   UNL     1      46.927   5.994  13.339  0.00  0.00    +0.000 A 
ATOM      8  F   UNL     1      47.377   4.750  13.572  0.00  0.00    +0.000 F 
BRANCH   6   9
ATOM      9  C   UNL     1      44.961   5.037  12.052  0.00  0.00    +0.000 A 
ATOM     10  C   UNL     1      44.229   4.156  12.864  0.00  0.00    +0.000 A 
ATOM     11  C   UNL     1      43.512   3.118  12.286  0.00  0.00    +0.000 A 
ATOM     12  N   UNL     1      43.484   2.870  10.962  0.00  0.00    +0.000 NA
ATOM     13  C   UNL     1      44.200   3.706  10.186  0.00  0.00    +0.000 A 
ATOM     14  C   UNL     1      44.934   4.780  10.672  0.00  0.00    +0.000 A 
ENDBRANCH   6   9
ENDBRANCH   1   2
BRANCH   1  15
ATOM     15  C   UNL     1      48.913   7.024  16.049  0.00  0.00    +0.000 C 
BRANCH  15  16
ATOM     16  O   UNL     1      48.251   5.913  16.674  0.00  0.00    +0.000 OA
BRANCH  16  20
ATOM     17  C   UNL     1      50.881   2.837  17.482  0.00  0.00    +0.000 A 
ATOM     18  C   UNL     1      49.530   2.550  17.271  0.00  0.00    +0.000 A 
ATOM     19  C   UNL     1      48.643   3.598  17.007  0.00  0.00    +0.000 A 
ATOM     20  C   UNL     1      49.143   4.893  16.962  0.00  0.00    +0.000 A 
ATOM     21  N   UNL     1      50.441   5.194  17.186  0.00  0.00    +0.000 NA
ATOM     22  C   UNL     1      51.278   4.164  17.448  0.00  0.00    +0.000 A 
BRANCH  17  24
ATOM     23  N   UNL     1      51.480   0.535  17.970  0.00  0.00    +0.000 N 
ATOM     24  C   UNL     1      51.909   1.811  17.745  0.00  0.00    +0.000 C 
ATOM     25  O   UNL     1      53.104   2.079  17.712  0.00  0.00    +0.000 OA
ATOM     26  H   UNL     1      52.201  -0.175  18.012  0.00  0.00    +0.000 HD
ATOM     27  H   UNL     1      50.543   0.231  17.742  0.00  0.00    +0.000 HD
ENDBRANCH  17  24
ENDBRANCH  16  20
ENDBRANCH  15  16
ENDBRANCH   1  15
TORSDOF 6
ENDMDL
MODEL 7
REMARK VINA RESULT:    -6.746      4.007      7.606
REMARK INTER + INTRA:         -10.064
REMARK INTER:                  -9.078
REMARK INTRA:                  -0.986
REMARK UNBOUND:                -0.952
REMARK  Name = 
REMARK  6 active torsions:
REMARK  status: ('A' for Active; 'I' for Inactive)
REMARK    1  A    between atoms: C_2  and  C_4
REMARK    2  A    between atoms: C_7  and  O_8
REMARK    3  A    between atoms: O_8  and  C_9
REMARK    4  A    between atoms: C_9  and  C_10
REMARK    5  A    between atoms: C_10  and  C_11
REMARK    6  A    between atoms: C_15  and  C_16
REMARK                            x       y       z     vdW  Elec       q    Type
REMARK                         _______ _______ _______ _____ _____    ______ ____
ROOT
ATOM      1  C   UNL     1      48.459   8.377  12.732  0.00  0.00    +0.000 C 
ENDROOT
BRANCH   1   2
ATOM      2  C   UNL     1      47.027   8.211  12.275  0.00  0.00    +0.000 A 
ATOM      3  C   UNL     1      46.185   9.318  12.136  0.00  0.00    +0.000 A 
ATOM      4  C   UNL     1      44.881   9.148  11.673  0.00  0.00    +0.000 A 
ATOM      5  C   UNL     1      44.410   7.876  11.330  0.00  0.00    +0.000 A 
ATOM      6  C   UNL     1      45.215   6.730  11.468  0.00  0.00    +0.000 A 
ATOM      7  C   UNL     1      46.518   6.936  11.966  0.00  0.00    +0.000 A 
ATOM      8  F   UNL     1      47.323   5.881  12.173  0.00  0.00    +0.000 F 
BRANCH   6   9
ATOM      9  C   UNL     1      44.711   5.381  11.098  0.00  0.00    +0.000 A 
ATOM     10  C   UNL     1      45.117   4.737   9.919  0.00  0.00    +0.000 A 
ATOM     11  C   UNL     1      44.637   3.469   9.623  0.00  0.00    +0.000 A 
ATOM     12  N   UNL     1      43.764   2.797  10.398  0.00  0.00    +0.000 NA
ATOM     13  C   UNL     1      43.362   3.423  11.521  0.00  0.00    +0.000 A 
ATOM     14  C   UNL     1      43.800   4.684  11.907  0.00  0.00    +0.000 A 
ENDBRANCH   6   9
ENDBRANCH   1   2
BRANCH   1  15
ATOM     15  C   UNL     1      48.579   8.374  14.258  0.00  0.00    +0.000 C 
BRANCH  15  16
ATOM     16  O   UNL     1      49.649   7.512  14.677  0.00  0.00    +0.000 OA
BRANCH  16  20
ATOM     17  C   UNL     1      48.257   4.465  17.086  0.00  0.00    +0.000 A 
ATOM     18  C   UNL     1      49.372   5.205  17.488  0.00  0.00    +0.000 A 
ATOM     19  C   UNL     1      49.844   6.230  16.662  0.00  0.00    +0.000 A 
ATOM     20  C   UNL     1      49.180   6.476  15.467  0.00  0.00    +0.000 A 
ATOM     21  N   UNL     1      48.114   5.757  15.050  0.00  0.00    +0.000 NA
ATOM     22  C   UNL     1      47.681   4.765  15.862  0.00  0.00    +0.000 A 
BRANCH  17  24
ATOM     23  N   UNL     1      48.246   3.084  19.084  0.00  0.00    +0.000 N 
ATOM     24  C   UNL     1      47.659   3.378  17.886  0.00  0.00    +0.000 C 
ATOM     25  O   UNL     1      46.645   2.796  17.520  0.00  0.00    +0.000 OA
ATOM     26  H   UNL     1      47.743   2.434  19.675  0.00  0.00    +0.000 HD
ATOM     27  H   UNL     1      48.902   3.708  19.532  0.00  0.00    +0.000 HD
ENDBRANCH  17  24
ENDBRANCH  16  20
ENDBRANCH  15  16
ENDBRANCH   1  15
TORSDOF 6
ENDMDL
MODEL 8
REMARK VINA RESULT:    -6.161      5.169      8.917
REMARK INTER + INTRA:          -9.273
REMARK INTER:                  -8.291
REMARK INTRA:                  -0.982
REMARK UNBOUND:                -0.952
REMARK  Name = 
REMARK  6 active torsions:
REMARK  status: ('A' for Active; 'I' for Inactive)
REMARK    1  A    between atoms: C_2  and  C_4
REMARK    2  A    between atoms: C_7  and  O_8
REMARK    3  A    between atoms: O_8  and  C_9
REMARK    4  A    between atoms: C_9  and  C_10
REMARK    5  A    between atoms: C_10  and  C_11
REMARK    6  A    between atoms: C_15  and  C_16
REMARK                            x       y       z     vdW  Elec       q    Type
REMARK                         _______ _______ _______ _____ _____    ______ ____
ROOT
ATOM      1  C   UNL     1      49.183   7.210  13.761  0.00  0.00    +0.000 C 
ENDROOT
BRANCH   1   2
ATOM      2  C   UNL     1      47.735   7.339  13.345  0.00  0.00    +0.000 A 
ATOM      3  C   UNL     1      47.093   8.581  13.354  0.00  0.00    +0.000 A 
ATOM      4  C   UNL     1      45.771   8.686  12.927  0.00  0.00    +0.000 A 
ATOM      5  C   UNL     1      45.080   7.557  12.472  0.00  0.00    +0.000 A 
ATOM      6  C   UNL     1      45.679   6.283  12.460  0.00  0.00    +0.000 A 
ATOM      7  C   UNL     1      47.008   6.211  12.926  0.00  0.00    +0.000 A 
ATOM      8  F   UNL     1      47.623   5.018  12.990  0.00  0.00    +0.000 F 
BRANCH   6   9
ATOM      9  C   UNL     1      44.942   5.087  11.971  0.00  0.00    +0.000 A 
ATOM     10  C   UNL     1      44.252   4.235  12.847  0.00  0.00    +0.000 A 
ATOM     11  C   UNL     1      43.559   3.142  12.345  0.00  0.00    +0.000 A 
ATOM     12  N   UNL     1      43.519   2.814  11.039  0.00  0.00    +0.000 NA
ATOM     13  C   UNL     1      44.197   3.623  10.202  0.00  0.00    +0.000 A 
ATOM     14  C   UNL     1      44.903   4.747  10.610  0.00  0.00    +0.000 A 
ENDBRANCH   6   9
ENDBRANCH   1   2
BRANCH   1  15
ATOM     15  C   UNL     1      49.340   7.151  15.283  0.00  0.00    +0.000 C 
BRANCH  15  16
ATOM     16  O   UNL     1      49.135   5.812  15.758  0.00  0.00    +0.000 OA
BRANCH  16  20
ATOM     17  C   UNL     1      48.273   5.798  19.793  0.00  0.00    +0.000 A 
ATOM     18  C   UNL     1      48.131   6.981  19.064  0.00  0.00    +0.000 A 
ATOM     19  C   UNL     1      48.435   6.980  17.699  0.00  0.00    +0.000 A 
ATOM     20  C   UNL     1      48.865   5.796  17.117  0.00  0.00    +0.000 A 
ATOM     21  N   UNL     1      49.030   4.647  17.809  0.00  0.00    +0.000 NA
ATOM     22  C   UNL     1      48.738   4.674  19.130  0.00  0.00    +0.000 A 
BRANCH  17  24
ATOM     23  N   UNL     1      47.488   6.787  21.868  0.00  0.00    +0.000 N 
ATOM     24  C   UNL     1      47.960   5.675  21.231  0.00  0.00    +0.000 C 
ATOM     25  O   UNL     1      48.068   4.607  21.821  0.00  0.00    +0.000 OA
ATOM     26  H   UNL     1      47.152   6.647  22.813  0.00  0.00    +0.000 HD
ATOM     27  H   UNL     1      47.138   7.591  21.365  0.00  0.00    +0.000 HD
ENDBRANCH  17  24
ENDBRANCH  16  20
ENDBRANCH  15  16
ENDBRANCH   1  15
TORSDOF 6
ENDMDL
MODEL 9
REMARK VINA RESULT:    -6.123      4.218      6.311
REMARK INTER + INTRA:          -9.222
REMARK INTER:                  -8.119
REMARK INTRA:                  -1.103
REMARK UNBOUND:                -0.952
REMARK  Name = 
REMARK  6 active torsions:
REMARK  status: ('A' for Active; 'I' for Inactive)
REMARK    1  A    between atoms: C_2  and  C_4
REMARK    2  A    between atoms: C_7  and  O_8
REMARK    3  A    between atoms: O_8  and  C_9
REMARK    4  A    between atoms: C_9  and  C_10
REMARK    5  A    between atoms: C_10  and  C_11
REMARK    6  A    between atoms: C_15  and  C_16
REMARK                            x       y       z     vdW  Elec       q    Type
REMARK                         _______ _______ _______ _____ _____    ______ ____
ROOT
ATOM      1  C   UNL     1      48.412   9.131  14.161  0.00  0.00    +0.000 C 
ENDROOT
BRANCH   1   2
ATOM      2  C   UNL     1      48.477   8.526  15.545  0.00  0.00    +0.000 A 
ATOM      3  C   UNL     1      48.085   9.260  16.668  0.00  0.00    +0.000 A 
ATOM      4  C   UNL     1      48.112   8.670  17.931  0.00  0.00    +0.000 A 
ATOM      5  C   UNL     1      48.516   7.339  18.084  0.00  0.00    +0.000 A 
ATOM      6  C   UNL     1      48.935   6.565  16.985  0.00  0.00    +0.000 A 
ATOM      7  C   UNL     1      48.921   7.204  15.728  0.00  0.00    +0.000 A 
ATOM      8  F   UNL     1      49.357   6.541  14.644  0.00  0.00    +0.000 F 
BRANCH   6   9
ATOM      9  C   UNL     1      49.358   5.150  17.152  0.00  0.00    +0.000 A 
ATOM     10  C   UNL     1      48.453   4.086  17.017  0.00  0.00    +0.000 A 
ATOM     11  C   UNL     1      48.897   2.778  17.161  0.00  0.00    +0.000 A 
ATOM     12  N   UNL     1      50.169   2.445  17.453  0.00  0.00    +0.000 NA
ATOM     13  C   UNL     1      51.032   3.468  17.598  0.00  0.00    +0.000 A 
ATOM     14  C   UNL     1      50.685   4.805  17.457  0.00  0.00    +0.000 A 
ENDBRANCH   6   9
ENDBRANCH   1   2
BRANCH   1  15
ATOM     15  C   UNL     1      47.220   8.601  13.358  0.00  0.00    +0.000 C 
BRANCH  15  16
ATOM     16  O   UNL     1      47.662   7.671  12.357  0.00  0.00    +0.000 OA
BRANCH  16  20
ATOM     17  C   UNL     1      45.110   4.449  11.992  0.00  0.00    +0.000 A 
ATOM     18  C   UNL     1      45.148   5.414  10.983  0.00  0.00    +0.000 A 
ATOM     19  C   UNL     1      46.008   6.508  11.118  0.00  0.00    +0.000 A 
ATOM     20  C   UNL     1      46.799   6.592  12.256  0.00  0.00    +0.000 A 
ATOM     21  N   UNL     1      46.761   5.682  13.254  0.00  0.00    +0.000 NA
ATOM     22  C   UNL     1      45.915   4.636  13.105  0.00  0.00    +0.000 A 
BRANCH  17  24
ATOM     23  N   UNL     1      44.276   2.507  10.795  0.00  0.00    +0.000 N 
ATOM     24  C   UNL     1      44.260   3.243  11.946  0.00  0.00    +0.000 C 
ATOM     25  O   UNL     1      43.606   2.882  12.918  0.00  0.00    +0.000 OA
ATOM     26  H   UNL     1      43.796   1.617  10.833  0.00  0.00    +0.000 HD
ATOM     27  H   UNL     1      44.991   2.620  10.091  0.00  0.00    +0.000 HD
ENDBRANCH  17  24
ENDBRANCH  16  20
ENDBRANCH  15  16
ENDBRANCH   1  15
TORSDOF 6
ENDMDL
