MODEL 1
REMARK VINA RESULT:    -8.143      0.000      0.000
REMARK INTER + INTRA:         -12.754
REMARK INTER:                 -11.951
REMARK INTRA:                  -0.803
REMARK UNBOUND:                -0.803
REMARK  Name = 
REMARK  8 active torsions:
REMARK  status: ('A' for Active; 'I' for Inactive)
REMARK    1  A    between atoms: C_2  and  C_12
REMARK    2  A    between atoms: N_3  and  C_4
REMARK    3  A    between atoms: C_4  and  C_5
REMARK    4  A    between atoms: C_5  and  N_6
REMARK    5  A    between atoms: C_15  and  C_16
REMARK    6  A    between atoms: C_16  and  N_17
REMARK    7  A    between atoms: N_17  and  C_18
REMARK    8  A    between atoms: C_18  and  C_19
REMARK                            x       y       z     vdW  Elec       q    Type
REMARK                         _______ _______ _______ _____ _____    ______ ____
ROOT
ATOM      1  C   UNL     1      47.042   5.899  12.891  0.00  0.00    +0.000 A 
ATOM      2  C   UNL     1      46.225   4.838  13.298  0.00  0.00    +0.000 A 
ATOM      3  C   UNL     1      45.132   4.462  12.520  0.00  0.00    +0.000 A 
ATOM      4  C   UNL     1      44.844   5.142  11.329  0.00  0.00    +0.000 A 
ATOM      5  C   UNL     1      45.704   6.163  10.897  0.00  0.00    +0.000 A 
ATOM      6  C   UNL     1      46.805   6.536  11.669  0.00  0.00    +0.000 A 
ENDROOT
BRANCH   1   8
ATOM      7  O   UNL     1      49.231   6.596  13.325  0.00  0.00    +0.000 OA
ATOM      8  C   UNL     1      48.136   6.312  13.800  0.00  0.00    +0.000 C 
ATOM      9  N   UNL     1      47.871   6.296  15.159  0.00  0.00    +0.000 N 
ATOM     10  H   UNL     1      46.935   6.138  15.503  0.00  0.00    +0.000 HD
BRANCH   9  11
ATOM     11  C   UNL     1      48.906   6.723  16.079  0.00  0.00    +0.000 C 
BRANCH  11  12
ATOM     12  C   UNL     1      48.689   6.295  17.546  0.00  0.00    +0.000 C 
BRANCH  12  13
ATOM     13  N   UNL     1      49.717   5.326  17.986  0.00  0.00    +0.000 NA
ATOM     14  C   UNL     1      49.443   3.947  17.521  0.00  0.00    +0.000 C 
ATOM     15  C   UNL     1      48.246   3.275  18.224  0.00  0.00    +0.000 C 
ATOM     16  N   UNL     1      48.443   3.190  19.680  0.00  0.00    +0.000 NA
ATOM     17  C   UNL     1      48.754   4.526  20.221  0.00  0.00    +0.000 C 
ATOM     18  C   UNL     1      49.863   5.294  19.456  0.00  0.00    +0.000 C 
ATOM     19  H   UNL     1      49.250   2.587  19.844  0.00  0.00    +0.000 HD
ENDBRANCH  12  13
ENDBRANCH  11  12
ENDBRANCH   9  11
ENDBRANCH   1   8
BRANCH   4  20
ATOM     20  C   UNL     1      43.604   4.797  10.542  0.00  0.00    +0.000 C 
BRANCH  20  21
ATOM     21  N   UNL     1      43.978   4.256   9.238  0.00  0.00    +0.000 NA
ATOM     22  H   UNL     1      44.763   4.790   8.867  0.00  0.00    +0.000 HD
BRANCH  21  23
ATOM     23  C   UNL     1      44.389   2.852   9.344  0.00  0.00    +0.000 C 
BRANCH  23  24
ATOM     24  C   UNL     1      45.502   2.520   8.370  0.00  0.00    +0.000 A 
ATOM     25  C   UNL     1      45.977   3.494   7.492  0.00  0.00    +0.000 A 
ATOM     26  C   UNL     1      47.007   3.167   6.616  0.00  0.00    +0.000 A 
ATOM     27  C   UNL     1      47.532   1.881   6.636  0.00  0.00    +0.000 A 
ATOM     28  C   UNL     1      47.005   0.973   7.540  0.00  0.00    +0.000 A 
ATOM     29  N   UNL     1      46.008   1.262   8.405  0.00  0.00    +0.000 NA
ENDBRANCH  23  24
ENDBRANCH  21  23
ENDBRANCH  20  21
ENDBRANCH   4  20
TORSDOF 8
ENDMDL
MODEL 2
REMARK VINA RESULT:    -7.991      0.891      1.781
REMARK INTER + INTRA:         -12.531
REMARK INTER:                 -11.801
REMARK INTRA:                  -0.730
REMARK UNBOUND:                -0.803
REMARK  Name = 
REMARK  8 active torsions:
REMARK  status: ('A' for Active; 'I' for Inactive)
REMARK    1  A    between atoms: C_2  and  C_12
REMARK    2  A    between atoms: N_3  and  C_4
REMARK    3  A    between atoms: C_4  and  C_5
REMARK    4  A    between atoms: C_5  and  N_6
REMARK    5  A    between atoms: C_15  and  C_16
REMARK    6  A    between atoms: C_16  and  N_17
REMARK    7  A    between atoms: N_17  and  C_18
REMARK    8  A    between atoms: C_18  and  C_19
REMARK                            x       y       z     vdW  Elec       q    Type
REMARK                         _______ _______ _______ _____ _____    ______ ____
ROOT
ATOM      1  C   UNL     1      46.728   5.985  12.869  0.00  0.00    +0.000 A 
ATOM      2  C   UNL     1      46.621   6.481  11.564  0.00  0.00    +0.000 A 
ATOM      3  C   UNL     1      45.518   6.151  10.780  0.00  0.00    +0.000 A 
ATOM      4  C   UNL     1      44.510   5.322  11.291  0.00  0.00    +0.000 A 
ATOM      5  C   UNL     1      44.594   4.879  12.620  0.00  0.00    +0.000 A 
ATOM      6  C   UNL     1      45.693   5.216  13.412  0.00  0.00    +0.000 A 
ENDROOT
BRANCH   1   8
ATOM      7  O   UNL     1      49.026   6.390  13.018  0.00  0.00    +0.000 OA
ATOM      8  C   UNL     1      47.962   6.297  13.624  0.00  0.00    +0.000 C 
ATOM      9  N   UNL     1      47.852   6.409  15.000  0.00  0.00    +0.000 N 
ATOM     10  H   UNL     1      46.948   6.410  15.449  0.00  0.00    +0.000 HD
BRANCH   9  11
ATOM     11  C   UNL     1      49.032   6.744  15.772  0.00  0.00    +0.000 C 
BRANCH  11  12
ATOM     12  C   UNL     1      49.188   5.964  17.094  0.00  0.00    +0.000 C 
BRANCH  12  13
ATOM     13  N   UNL     1      47.897   5.395  17.544  0.00  0.00    +0.000 NA
ATOM     14  C   UNL     1      47.590   5.713  18.957  0.00  0.00    +0.000 C 
ATOM     15  C   UNL     1      48.481   4.970  19.973  0.00  0.00    +0.000 C 
ATOM     16  N   UNL     1      48.361   3.509  19.841  0.00  0.00    +0.000 NA
ATOM     17  C   UNL     1      48.622   3.110  18.446  0.00  0.00    +0.000 C 
ATOM     18  C   UNL     1      47.845   3.928  17.382  0.00  0.00    +0.000 C 
ATOM     19  H   UNL     1      47.397   3.260  20.066  0.00  0.00    +0.000 HD
ENDBRANCH  12  13
ENDBRANCH  11  12
ENDBRANCH   9  11
ENDBRANCH   1   8
BRANCH   4  20
ATOM     20  C   UNL     1      43.369   4.885  10.406  0.00  0.00    +0.000 C 
BRANCH  20  21
ATOM     21  N   UNL     1      43.889   4.397   9.131  0.00  0.00    +0.000 NA
ATOM     22  H   UNL     1      44.642   5.009   8.821  0.00  0.00    +0.000 HD
BRANCH  21  23
ATOM     23  C   UNL     1      44.427   3.039   9.263  0.00  0.00    +0.000 C 
BRANCH  23  24
ATOM     24  C   UNL     1      45.541   2.780   8.268  0.00  0.00    +0.000 A 
ATOM     25  C   UNL     1      46.136   1.520   8.198  0.00  0.00    +0.000 A 
ATOM     26  C   UNL     1      47.148   1.303   7.268  0.00  0.00    +0.000 A 
ATOM     27  C   UNL     1      47.541   2.347   6.439  0.00  0.00    +0.000 A 
ATOM     28  C   UNL     1      46.899   3.567   6.572  0.00  0.00    +0.000 A 
ATOM     29  N   UNL     1      45.911   3.806   7.463  0.00  0.00    +0.000 NA
ENDBRANCH  23  24
ENDBRANCH  21  23
ENDBRANCH  20  21
ENDBRANCH   4  20
TORSDOF 8
ENDMDL
MODEL 3
REMARK VINA RESULT:    -7.335      1.249      1.755
REMARK INTER + INTRA:         -11.569
REMARK INTER:                 -10.833
REMARK INTRA:                  -0.736
REMARK UNBOUND:                -0.803
REMARK  Name = 
REMARK  8 active torsions:
REMARK  status: ('A' for Active; 'I' for Inactive)
REMARK    1  A    between atoms: C_2  and  C_12
REMARK    2  A    between atoms: N_3  and  C_4
REMARK    3  A    between atoms: C_4  and  C_5
REMARK    4  A    between atoms: C_5  and  N_6
REMARK    5  A    between atoms: C_15  and  C_16
REMARK    6  A    between atoms: C_16  and  N_17
REMARK    7  A    between atoms: N_17  and  C_18
REMARK    8  A    between atoms: C_18  and  C_19
REMARK                            x       y       z     vdW  Elec       q    Type
REMARK                         _______ _______ _______ _____ _____    ______ ____
ROOT
ATOM      1  C   UNL     1      46.796   6.094  12.959  0.00  0.00    +0.000 A 
ATOM      2  C   UNL     1      46.632   6.588  11.660  0.00  0.00    +0.000 A 
ATOM      3  C   UNL     1      45.537   6.192  10.896  0.00  0.00    +0.000 A 
ATOM      4  C   UNL     1      44.595   5.297  11.421  0.00  0.00    +0.000 A 
ATOM      5  C   UNL     1      44.733   4.855  12.746  0.00  0.00    +0.000 A 
ATOM      6  C   UNL     1      45.824   5.258  13.518  0.00  0.00    +0.000 A 
ENDROOT
BRANCH   1   8
ATOM      7  O   UNL     1      48.954   6.986  13.072  0.00  0.00    +0.000 OA
ATOM      8  C   UNL     1      48.023   6.481  13.692  0.00  0.00    +0.000 C 
ATOM      9  N   UNL     1      48.071   6.192  15.045  0.00  0.00    +0.000 N 
ATOM     10  H   UNL     1      47.253   5.854  15.532  0.00  0.00    +0.000 HD
BRANCH   9  11
ATOM     11  C   UNL     1      49.241   6.582  15.805  0.00  0.00    +0.000 C 
BRANCH  11  12
ATOM     12  C   UNL     1      48.951   7.446  17.050  0.00  0.00    +0.000 C 
BRANCH  12  13
ATOM     13  N   UNL     1      49.521   6.842  18.274  0.00  0.00    +0.000 NA
ATOM     14  C   UNL     1      49.238   5.393  18.386  0.00  0.00    +0.000 C 
ATOM     15  C   UNL     1      47.762   5.066  18.691  0.00  0.00    +0.000 C 
ATOM     16  N   UNL     1      47.316   5.674  19.955  0.00  0.00    +0.000 NA
ATOM     17  C   UNL     1      47.594   7.122  19.938  0.00  0.00    +0.000 C 
ATOM     18  C   UNL     1      49.033   7.501  19.503  0.00  0.00    +0.000 C 
ATOM     19  H   UNL     1      47.866   5.255  20.706  0.00  0.00    +0.000 HD
ENDBRANCH  12  13
ENDBRANCH  11  12
ENDBRANCH   9  11
ENDBRANCH   1   8
BRANCH   4  20
ATOM     20  C   UNL     1      43.466   4.793  10.556  0.00  0.00    +0.000 C 
BRANCH  20  21
ATOM     21  N   UNL     1      43.986   4.376   9.256  0.00  0.00    +0.000 NA
ATOM     22  H   UNL     1      44.772   4.975   9.003  0.00  0.00    +0.000 HD
BRANCH  21  23
ATOM     23  C   UNL     1      44.461   2.990   9.294  0.00  0.00    +0.000 C 
BRANCH  23  24
ATOM     24  C   UNL     1      45.532   2.735   8.250  0.00  0.00    +0.000 A 
ATOM     25  C   UNL     1      46.237   1.532   8.252  0.00  0.00    +0.000 A 
ATOM     26  C   UNL     1      47.206   1.318   7.277  0.00  0.00    +0.000 A 
ATOM     27  C   UNL     1      47.447   2.308   6.332  0.00  0.00    +0.000 A 
ATOM     28  C   UNL     1      46.702   3.473   6.399  0.00  0.00    +0.000 A 
ATOM     29  N   UNL     1      45.752   3.709   7.332  0.00  0.00    +0.000 NA
ENDBRANCH  23  24
ENDBRANCH  21  23
ENDBRANCH  20  21
ENDBRANCH   4  20
TORSDOF 8
ENDMDL
MODEL 4
REMARK VINA RESULT:    -7.296      1.300      2.006
REMARK INTER + INTRA:         -11.511
REMARK INTER:                 -11.157
REMARK INTRA:                  -0.354
REMARK UNBOUND:                -0.803
REMARK  Name = 
REMARK  8 active torsions:
REMARK  status: ('A' for Active; 'I' for Inactive)
REMARK    1  A    between atoms: C_2  and  C_12
REMARK    2  A    between atoms: N_3  and  C_4
REMARK    3  A    between atoms: C_4  and  C_5
REMARK    4  A    between atoms: C_5  and  N_6
REMARK    5  A    between atoms: C_15  and  C_16
REMARK    6  A    between atoms: C_16  and  N_17
REMARK    7  A    between atoms: N_17  and  C_18
REMARK    8  A    between atoms: C_18  and  C_19
REMARK                            x       y       z     vdW  Elec       q    Type
REMARK                         _______ _______ _______ _____ _____    ______ ____
ROOT
ATOM      1  C   UNL     1      46.411   4.767  13.580  0.00  0.00    +0.000 A 
ATOM      2  C   UNL     1      45.912   3.552  13.095  0.00  0.00    +0.000 A 
ATOM      3  C   UNL     1      45.007   3.542  12.037  0.00  0.00    +0.000 A 
ATOM      4  C   UNL     1      44.590   4.745  11.451  0.00  0.00    +0.000 A 
ATOM      5  C   UNL     1      45.142   5.954  11.902  0.00  0.00    +0.000 A 
ATOM      6  C   UNL     1      46.056   5.968  12.955  0.00  0.00    +0.000 A 
ENDROOT
BRANCH   1   8
ATOM      7  O   UNL     1      48.139   5.607  14.912  0.00  0.00    +0.000 OA
ATOM      8  C   UNL     1      47.301   4.722  14.762  0.00  0.00    +0.000 C 
ATOM      9  N   UNL     1      47.173   3.637  15.612  0.00  0.00    +0.000 N 
ATOM     10  H   UNL     1      46.417   2.977  15.499  0.00  0.00    +0.000 HD
BRANCH   9  11
ATOM     11  C   UNL     1      48.004   3.572  16.797  0.00  0.00    +0.000 C 
BRANCH  11  12
ATOM     12  C   UNL     1      47.473   4.365  18.009  0.00  0.00    +0.000 C 
BRANCH  12  13
ATOM     13  N   UNL     1      48.547   4.642  18.988  0.00  0.00    +0.000 NA
ATOM     14  C   UNL     1      48.116   5.558  20.070  0.00  0.00    +0.000 C 
ATOM     15  C   UNL     1      47.907   7.015  19.610  0.00  0.00    +0.000 C 
ATOM     16  N   UNL     1      49.137   7.592  19.043  0.00  0.00    +0.000 NA
ATOM     17  C   UNL     1      49.652   6.719  17.973  0.00  0.00    +0.000 C 
ATOM     18  C   UNL     1      49.749   5.218  18.352  0.00  0.00    +0.000 C 
ATOM     19  H   UNL     1      49.832   7.622  19.790  0.00  0.00    +0.000 HD
ENDBRANCH  12  13
ENDBRANCH  11  12
ENDBRANCH   9  11
ENDBRANCH   1   8
BRANCH   4  20
ATOM     20  C   UNL     1      43.535   4.736  10.373  0.00  0.00    +0.000 C 
BRANCH  20  21
ATOM     21  N   UNL     1      44.122   4.303   9.107  0.00  0.00    +0.000 NA
ATOM     22  H   UNL     1      45.009   4.786   8.968  0.00  0.00    +0.000 HD
BRANCH  21  23
ATOM     23  C   UNL     1      44.383   2.860   9.110  0.00  0.00    +0.000 C 
BRANCH  23  24
ATOM     24  C   UNL     1      45.539   2.499   8.197  0.00  0.00    +0.000 A 
ATOM     25  C   UNL     1      46.031   3.435   7.288  0.00  0.00    +0.000 A 
ATOM     26  C   UNL     1      47.100   3.083   6.471  0.00  0.00    +0.000 A 
ATOM     27  C   UNL     1      47.646   1.810   6.579  0.00  0.00    +0.000 A 
ATOM     28  C   UNL     1      47.100   0.940   7.508  0.00  0.00    +0.000 A 
ATOM     29  N   UNL     1      46.064   1.255   8.318  0.00  0.00    +0.000 NA
ENDBRANCH  23  24
ENDBRANCH  21  23
ENDBRANCH  20  21
ENDBRANCH   4  20
TORSDOF 8
ENDMDL
MODEL 5
REMARK VINA RESULT:    -7.276      1.964      3.002
REMARK INTER + INTRA:         -11.482
REMARK INTER:                 -10.770
REMARK INTRA:                  -0.711
REMARK UNBOUND:                -0.803
REMARK  Name = 
REMARK  8 active torsions:
REMARK  status: ('A' for Active; 'I' for Inactive)
REMARK    1  A    between atoms: C_2  and  C_12
REMARK    2  A    between atoms: N_3  and  C_4
REMARK    3  A    between atoms: C_4  and  C_5
REMARK    4  A    between atoms: C_5  and  N_6
REMARK    5  A    between atoms: C_15  and  C_16
REMARK    6  A    between atoms: C_16  and  N_17
REMARK    7  A    between atoms: N_17  and  C_18
REMARK    8  A    between atoms: C_18  and  C_19
REMARK                            x       y       z     vdW  Elec       q    Type
REMARK                         _______ _______ _______ _____ _____    ______ ____
ROOT
ATOM      1  C   UNL     1      46.337   4.329  13.563  0.00  0.00    +0.000 A 
ATOM      2  C   UNL     1      45.775   3.232  12.899  0.00  0.00    +0.000 A 
ATOM      3  C   UNL     1      44.896   3.434  11.838  0.00  0.00    +0.000 A 
ATOM      4  C   UNL     1      44.568   4.734  11.429  0.00  0.00    +0.000 A 
ATOM      5  C   UNL     1      45.183   5.827  12.059  0.00  0.00    +0.000 A 
ATOM      6  C   UNL     1      46.072   5.628  13.116  0.00  0.00    +0.000 A 
ENDROOT
BRANCH   1   8
ATOM      7  O   UNL     1      47.720   2.953  14.851  0.00  0.00    +0.000 OA
ATOM      8  C   UNL     1      47.195   4.057  14.738  0.00  0.00    +0.000 C 
ATOM      9  N   UNL     1      47.310   5.060  15.685  0.00  0.00    +0.000 N 
ATOM     10  H   UNL     1      46.933   5.981  15.514  0.00  0.00    +0.000 HD
BRANCH   9  11
ATOM     11  C   UNL     1      48.166   4.844  16.835  0.00  0.00    +0.000 C 
BRANCH  11  12
ATOM     12  C   UNL     1      49.127   6.007  17.158  0.00  0.00    +0.000 C 
BRANCH  12  13
ATOM     13  N   UNL     1      50.142   6.184  16.095  0.00  0.00    +0.000 NA
ATOM     14  C   UNL     1      51.514   6.341  16.630  0.00  0.00    +0.000 C 
ATOM     15  C   UNL     1      51.758   7.687  17.341  0.00  0.00    +0.000 C 
ATOM     16  N   UNL     1      51.529   8.831  16.442  0.00  0.00    +0.000 NA
ATOM     17  C   UNL     1      50.188   8.732  15.839  0.00  0.00    +0.000 C 
ATOM     18  C   UNL     1      49.850   7.346  15.231  0.00  0.00    +0.000 C 
ATOM     19  H   UNL     1      52.219   8.771  15.692  0.00  0.00    +0.000 HD
ENDBRANCH  12  13
ENDBRANCH  11  12
ENDBRANCH   9  11
ENDBRANCH   1   8
BRANCH   4  20
ATOM     20  C   UNL     1      43.539   4.949  10.346  0.00  0.00    +0.000 C 
BRANCH  20  21
ATOM     21  N   UNL     1      43.911   4.195   9.152  0.00  0.00    +0.000 NA
ATOM     22  H   UNL     1      43.236   4.386   8.412  0.00  0.00    +0.000 HD
BRANCH  21  23
ATOM     23  C   UNL     1      45.240   4.585   8.671  0.00  0.00    +0.000 C 
BRANCH  23  24
ATOM     24  C   UNL     1      45.943   3.437   7.975  0.00  0.00    +0.000 A 
ATOM     25  C   UNL     1      45.910   2.158   8.530  0.00  0.00    +0.000 A 
ATOM     26  C   UNL     1      46.553   1.118   7.866  0.00  0.00    +0.000 A 
ATOM     27  C   UNL     1      47.214   1.382   6.673  0.00  0.00    +0.000 A 
ATOM     28  C   UNL     1      47.198   2.679   6.188  0.00  0.00    +0.000 A 
ATOM     29  N   UNL     1      46.579   3.708   6.809  0.00  0.00    +0.000 NA
ENDBRANCH  23  24
ENDBRANCH  21  23
ENDBRANCH  20  21
ENDBRANCH   4  20
TORSDOF 8
ENDMDL
MODEL 6
REMARK VINA RESULT:    -6.954      3.247      4.025
REMARK INTER + INTRA:         -11.010
REMARK INTER:                 -10.296
REMARK INTRA:                  -0.714
REMARK UNBOUND:                -0.803
REMARK  Name = 
REMARK  8 active torsions:
REMARK  status: ('A' for Active; 'I' for Inactive)
REMARK    1  A    between atoms: C_2  and  C_12
REMARK    2  A    between atoms: N_3  and  C_4
REMARK    3  A    between atoms: C_4  and  C_5
REMARK    4  A    between atoms: C_5  and  N_6
REMARK    5  A    between atoms: C_15  and  C_16
REMARK    6  A    between atoms: C_16  and  N_17
REMARK    7  A    between atoms: N_17  and  C_18
REMARK    8  A    between atoms: C_18  and  C_19
REMARK                            x       y       z     vdW  Elec       q    Type
REMARK                         _______ _______ _______ _____ _____    ______ ____
ROOT
ATOM      1  C   UNL     1      46.360   5.549  13.277  0.00  0.00    +0.000 A 
ATOM      2  C   UNL     1      45.147   6.058  12.799  0.00  0.00    +0.000 A 
ATOM      3  C   UNL     1      44.195   5.198  12.256  0.00  0.00    +0.000 A 
ATOM      4  C   UNL     1      44.446   3.821  12.183  0.00  0.00    +0.000 A 
ATOM      5  C   UNL     1      45.638   3.312  12.720  0.00  0.00    +0.000 A 
ATOM      6  C   UNL     1      46.590   4.169  13.274  0.00  0.00    +0.000 A 
ENDROOT
BRANCH   1   8
ATOM      7  O   UNL     1      48.448   6.101  14.172  0.00  0.00    +0.000 OA
ATOM      8  C   UNL     1      47.368   6.517  13.763  0.00  0.00    +0.000 C 
ATOM      9  N   UNL     1      47.006   7.854  13.782  0.00  0.00    +0.000 N 
ATOM     10  H   UNL     1      46.143   8.163  13.359  0.00  0.00    +0.000 HD
BRANCH   9  11
ATOM     11  C   UNL     1      47.976   8.837  14.222  0.00  0.00    +0.000 C 
BRANCH  11  12
ATOM     12  C   UNL     1      48.965   9.307  13.135  0.00  0.00    +0.000 C 
BRANCH  12  13
ATOM     13  N   UNL     1      50.152   9.961  13.728  0.00  0.00    +0.000 NA
ATOM     14  C   UNL     1      51.298  10.033  12.792  0.00  0.00    +0.000 C 
ATOM     15  C   UNL     1      51.962   8.670  12.511  0.00  0.00    +0.000 C 
ATOM     16  N   UNL     1      52.471   8.044  13.742  0.00  0.00    +0.000 NA
ATOM     17  C   UNL     1      51.393   7.964  14.745  0.00  0.00    +0.000 C 
ATOM     18  C   UNL     1      50.608   9.284  14.960  0.00  0.00    +0.000 C 
ATOM     19  H   UNL     1      53.203   8.651  14.113  0.00  0.00    +0.000 HD
ENDBRANCH  12  13
ENDBRANCH  11  12
ENDBRANCH   9  11
ENDBRANCH   1   8
BRANCH   4  20
ATOM     20  C   UNL     1      43.457   2.907  11.502  0.00  0.00    +0.000 C 
BRANCH  20  21
ATOM     21  N   UNL     1      44.105   2.213  10.393  0.00  0.00    +0.000 NA
ATOM     22  H   UNL     1      43.488   1.476  10.052  0.00  0.00    +0.000 HD
BRANCH  21  23
ATOM     23  C   UNL     1      44.380   3.129   9.282  0.00  0.00    +0.000 C 
BRANCH  23  24
ATOM     24  C   UNL     1      45.512   2.625   8.407  0.00  0.00    +0.000 A 
ATOM     25  C   UNL     1      46.189   3.505   7.564  0.00  0.00    +0.000 A 
ATOM     26  C   UNL     1      47.231   3.021   6.781  0.00  0.00    +0.000 A 
ATOM     27  C   UNL     1      47.567   1.675   6.856  0.00  0.00    +0.000 A 
ATOM     28  C   UNL     1      46.846   0.868   7.720  0.00  0.00    +0.000 A 
ATOM     29  N   UNL     1      45.831   1.310   8.495  0.00  0.00    +0.000 NA
ENDBRANCH  23  24
ENDBRANCH  21  23
ENDBRANCH  20  21
ENDBRANCH   4  20
TORSDOF 8
ENDMDL
MODEL 7
REMARK VINA RESULT:    -6.645      2.457      3.737
REMARK INTER + INTRA:         -10.556
REMARK INTER:                  -9.887
REMARK INTRA:                  -0.669
REMARK UNBOUND:                -0.803
REMARK  Name = 
REMARK  8 active torsions:
REMARK  status: ('A' for Active; 'I' for Inactive)
REMARK    1  A    between atoms: C_2  and  C_12
REMARK    2  A    between atoms: N_3  and  C_4
REMARK    3  A    between atoms: C_4  and  C_5
REMARK    4  A    between atoms: C_5  and  N_6
REMARK    5  A    between atoms: C_15  and  C_16
REMARK    6  A    between atoms: C_16  and  N_17
REMARK    7  A    between atoms: N_17  and  C_18
REMARK    8  A    between atoms: C_18  and  C_19
REMARK                            x       y       z     vdW  Elec       q    Type
REMARK                         _______ _______ _______ _____ _____    ______ ____
ROOT
ATOM      1  C   UNL     1      46.798   5.831  13.229  0.00  0.00    +0.000 A 
ATOM      2  C   UNL     1      45.877   6.716  12.657  0.00  0.00    +0.000 A 
ATOM      3  C   UNL     1      44.707   6.229  12.079  0.00  0.00    +0.000 A 
ATOM      4  C   UNL     1      44.445   4.852  12.066  0.00  0.00    +0.000 A 
ATOM      5  C   UNL     1      45.343   3.977  12.696  0.00  0.00    +0.000 A 
ATOM      6  C   UNL     1      46.511   4.463  13.285  0.00  0.00    +0.000 A 
ENDROOT
BRANCH   1   8
ATOM      7  O   UNL     1      49.067   6.364  13.045  0.00  0.00    +0.000 OA
ATOM      8  C   UNL     1      48.062   6.397  13.751  0.00  0.00    +0.000 C 
ATOM      9  N   UNL     1      48.053   6.885  15.046  0.00  0.00    +0.000 N 
ATOM     10  H   UNL     1      47.188   6.971  15.561  0.00  0.00    +0.000 HD
BRANCH   9  11
ATOM     11  C   UNL     1      49.262   7.475  15.583  0.00  0.00    +0.000 C 
BRANCH  11  12
ATOM     12  C   UNL     1      49.103   8.146  16.963  0.00  0.00    +0.000 C 
BRANCH  12  13
ATOM     13  N   UNL     1      50.013   9.303  17.112  0.00  0.00    +0.000 NA
ATOM     14  C   UNL     1      49.537  10.285  18.114  0.00  0.00    +0.000 C 
ATOM     15  C   UNL     1      48.297  11.084  17.666  0.00  0.00    +0.000 C 
ATOM     16  N   UNL     1      48.551  11.843  16.430  0.00  0.00    +0.000 NA
ATOM     17  C   UNL     1      49.062  10.939  15.384  0.00  0.00    +0.000 C 
ATOM     18  C   UNL     1      50.225  10.017  15.836  0.00  0.00    +0.000 C 
ATOM     19  H   UNL     1      49.278  12.529  16.638  0.00  0.00    +0.000 HD
ENDBRANCH  12  13
ENDBRANCH  11  12
ENDBRANCH   9  11
ENDBRANCH   1   8
BRANCH   4  20
ATOM     20  C   UNL     1      43.228   4.320  11.351  0.00  0.00    +0.000 C 
BRANCH  20  21
ATOM     21  N   UNL     1      43.638   3.436  10.263  0.00  0.00    +0.000 NA
ATOM     22  H   UNL     1      42.821   2.942   9.907  0.00  0.00    +0.000 HD
BRANCH  21  23
ATOM     23  C   UNL     1      44.233   4.194   9.158  0.00  0.00    +0.000 C 
BRANCH  23  24
ATOM     24  C   UNL     1      45.292   3.389   8.432  0.00  0.00    +0.000 A 
ATOM     25  C   UNL     1      45.466   2.037   8.726  0.00  0.00    +0.000 A 
ATOM     26  C   UNL     1      46.436   1.316   8.037  0.00  0.00    +0.000 A 
ATOM     27  C   UNL     1      47.207   1.963   7.079  0.00  0.00    +0.000 A 
ATOM     28  C   UNL     1      46.971   3.307   6.846  0.00  0.00    +0.000 A 
ATOM     29  N   UNL     1      46.034   4.032   7.497  0.00  0.00    +0.000 NA
ENDBRANCH  23  24
ENDBRANCH  21  23
ENDBRANCH  20  21
ENDBRANCH   4  20
TORSDOF 8
ENDMDL
MODEL 8
REMARK VINA RESULT:    -6.552      3.811      5.925
REMARK INTER + INTRA:         -10.419
REMARK INTER:                  -9.615
REMARK INTRA:                  -0.805
REMARK UNBOUND:                -0.803
REMARK  Name = 
REMARK  8 active torsions:
REMARK  status: ('A' for Active; 'I' for Inactive)
REMARK    1  A    between atoms: C_2  and  C_12
REMARK    2  A    between atoms: N_3  and  C_4
REMARK    3  A    between atoms: C_4  and  C_5
REMARK    4  A    between atoms: C_5  and  N_6
REMARK    5  A    between atoms: C_15  and  C_16
REMARK    6  A    between atoms: C_16  and  N_17
REMARK    7  A    between atoms: N_17  and  C_18
REMARK    8  A    between atoms: C_18  and  C_19
REMARK                            x       y       z     vdW  Elec       q    Type
REMARK                         _______ _______ _______ _____ _____    ______ ____
ROOT
ATOM      1  C   UNL     1      46.148   6.640  12.704  0.00  0.00    +0.000 A 
ATOM      2  C   UNL     1      44.918   6.843  12.068  0.00  0.00    +0.000 A 
ATOM      3  C   UNL     1      44.117   5.753  11.734  0.00  0.00    +0.000 A 
ATOM      4  C   UNL     1      44.537   4.450  12.032  0.00  0.00    +0.000 A 
ATOM      5  C   UNL     1      45.742   4.259  12.725  0.00  0.00    +0.000 A 
ATOM      6  C   UNL     1      46.542   5.349  13.069  0.00  0.00    +0.000 A 
ENDROOT
BRANCH   1   8
ATOM      7  O   UNL     1      46.653   8.635  13.814  0.00  0.00    +0.000 OA
ATOM      8  C   UNL     1      46.996   7.827  12.956  0.00  0.00    +0.000 C 
ATOM      9  N   UNL     1      48.114   7.989  12.155  0.00  0.00    +0.000 N 
ATOM     10  H   UNL     1      48.407   7.261  11.519  0.00  0.00    +0.000 HD
BRANCH   9  11
ATOM     11  C   UNL     1      48.987   9.122  12.390  0.00  0.00    +0.000 C 
BRANCH  11  12
ATOM     12  C   UNL     1      49.188  10.052  11.176  0.00  0.00    +0.000 C 
BRANCH  12  13
ATOM     13  N   UNL     1      48.879  11.459  11.514  0.00  0.00    +0.000 NA
ATOM     14  C   UNL     1      47.571  11.615  12.190  0.00  0.00    +0.000 C 
ATOM     15  C   UNL     1      46.358  11.379  11.267  0.00  0.00    +0.000 C 
ATOM     16  N   UNL     1      46.349  12.309  10.126  0.00  0.00    +0.000 NA
ATOM     17  C   UNL     1      47.637  12.239   9.413  0.00  0.00    +0.000 C 
ATOM     18  C   UNL     1      48.888  12.336  10.324  0.00  0.00    +0.000 C 
ATOM     19  H   UNL     1      46.246  13.252  10.502  0.00  0.00    +0.000 HD
ENDBRANCH  12  13
ENDBRANCH  11  12
ENDBRANCH   9  11
ENDBRANCH   1   8
BRANCH   4  20
ATOM     20  C   UNL     1      43.714   3.268  11.579  0.00  0.00    +0.000 C 
BRANCH  20  21
ATOM     21  N   UNL     1      44.442   2.521  10.556  0.00  0.00    +0.000 NA
ATOM     22  H   UNL     1      43.991   1.617  10.418  0.00  0.00    +0.000 HD
BRANCH  21  23
ATOM     23  C   UNL     1      44.438   3.234   9.275  0.00  0.00    +0.000 C 
BRANCH  23  24
ATOM     24  C   UNL     1      45.476   2.677   8.321  0.00  0.00    +0.000 A 
ATOM     25  C   UNL     1      45.969   3.470   7.284  0.00  0.00    +0.000 A 
ATOM     26  C   UNL     1      46.930   2.940   6.430  0.00  0.00    +0.000 A 
ATOM     27  C   UNL     1      47.370   1.637   6.628  0.00  0.00    +0.000 A 
ATOM     28  C   UNL     1      46.830   0.917   7.681  0.00  0.00    +0.000 A 
ATOM     29  N   UNL     1      45.898   1.406   8.530  0.00  0.00    +0.000 NA
ENDBRANCH  23  24
ENDBRANCH  21  23
ENDBRANCH  20  21
ENDBRANCH   4  20
TORSDOF 8
ENDMDL
MODEL 9
REMARK VINA RESULT:    -6.463      1.567      2.113
REMARK INTER + INTRA:         -10.289
REMARK INTER:                  -9.690
REMARK INTRA:                  -0.599
REMARK UNBOUND:                -0.803
REMARK  Name = 
REMARK  8 active torsions:
REMARK  status: ('A' for Active; 'I' for Inactive)
REMARK    1  A    between atoms: C_2  and  C_12
REMARK    2  A    between atoms: N_3  and  C_4
REMARK    3  A    between atoms: C_4  and  C_5
REMARK    4  A    between atoms: C_5  and  N_6
REMARK    5  A    between atoms: C_15  and  C_16
REMARK    6  A    between atoms: C_16  and  N_17
REMARK    7  A    between atoms: N_17  and  C_18
REMARK    8  A    between atoms: C_18  and  C_19
REMARK                            x       y       z     vdW  Elec       q    Type
REMARK                         _______ _______ _______ _____ _____    ______ ____
ROOT
ATOM      1  C   UNL     1      47.266   5.860  13.808  0.00  0.00    +0.000 A 
ATOM      2  C   UNL     1      46.462   4.735  14.022  0.00  0.00    +0.000 A 
ATOM      3  C   UNL     1      45.582   4.307  13.031  0.00  0.00    +0.000 A 
ATOM      4  C   UNL     1      45.495   4.999  11.815  0.00  0.00    +0.000 A 
ATOM      5  C   UNL     1      46.348   6.089  11.585  0.00  0.00    +0.000 A 
ATOM      6  C   UNL     1      47.238   6.515  12.572  0.00  0.00    +0.000 A 
ENDROOT
BRANCH   1   8
ATOM      7  O   UNL     1      48.962   7.186  14.719  0.00  0.00    +0.000 OA
ATOM      8  C   UNL     1      48.117   6.320  14.928  0.00  0.00    +0.000 C 
ATOM      9  N   UNL     1      47.948   5.695  16.152  0.00  0.00    +0.000 N 
ATOM     10  H   UNL     1      47.187   5.049  16.303  0.00  0.00    +0.000 HD
BRANCH   9  11
ATOM     11  C   UNL     1      48.741   6.138  17.281  0.00  0.00    +0.000 C 
BRANCH  11  12
ATOM     12  C   UNL     1      49.530   5.023  17.999  0.00  0.00    +0.000 C 
BRANCH  12  13
ATOM     13  N   UNL     1      50.635   5.579  18.812  0.00  0.00    +0.000 NA
ATOM     14  C   UNL     1      51.367   6.666  18.122  0.00  0.00    +0.000 C 
ATOM     15  C   UNL     1      52.234   6.184  16.941  0.00  0.00    +0.000 C 
ATOM     16  N   UNL     1      53.249   5.207  17.369  0.00  0.00    +0.000 NA
ATOM     17  C   UNL     1      52.601   4.101  18.097  0.00  0.00    +0.000 C 
ATOM     18  C   UNL     1      51.614   4.545  19.207  0.00  0.00    +0.000 C 
ATOM     19  H   UNL     1      53.879   5.685  18.014  0.00  0.00    +0.000 HD
ENDBRANCH  12  13
ENDBRANCH  11  12
ENDBRANCH   9  11
ENDBRANCH   1   8
BRANCH   4  20
ATOM     20  C   UNL     1      44.470   4.593  10.785  0.00  0.00    +0.000 C 
BRANCH  20  21
ATOM     21  N   UNL     1      44.933   4.967   9.451  0.00  0.00    +0.000 NA
ATOM     22  H   UNL     1      45.953   4.946   9.433  0.00  0.00    +0.000 HD
BRANCH  21  23
ATOM     23  C   UNL     1      44.439   4.031   8.436  0.00  0.00    +0.000 C 
BRANCH  23  24
ATOM     24  C   UNL     1      45.535   3.105   7.947  0.00  0.00    +0.000 A 
ATOM     25  C   UNL     1      46.483   3.564   7.034  0.00  0.00    +0.000 A 
ATOM     26  C   UNL     1      47.486   2.699   6.610  0.00  0.00    +0.000 A 
ATOM     27  C   UNL     1      47.513   1.400   7.104  0.00  0.00    +0.000 A 
ATOM     28  C   UNL     1      46.536   1.022   8.009  0.00  0.00    +0.000 A 
ATOM     29  N   UNL     1      45.552   1.842   8.442  0.00  0.00    +0.000 NA
ENDBRANCH  23  24
ENDBRANCH  21  23
ENDBRANCH  20  21
ENDBRANCH   4  20
TORSDOF 8
ENDMDL
