MODEL 1
REMARK VINA RESULT:    -7.843      0.000      0.000
REMARK INTER + INTRA:         -11.589
REMARK INTER:                 -10.594
REMARK INTRA:                  -0.994
REMARK UNBOUND:                -0.994
REMARK  Name = 
REMARK  6 active torsions:
REMARK  status: ('A' for Active; 'I' for Inactive)
REMARK    1  A    between atoms: C_2  and  C_25
REMARK    2  A    between atoms: N_3  and  C_4
REMARK    3  A    between atoms: C_4  and  C_5
REMARK    4  A    between atoms: C_8  and  C_9
REMARK    5  A    between atoms: C_9  and  N_10
REMARK    6  A    between atoms: C_11  and  C_13
REMARK                            x       y       z     vdW  Elec       q    Type
REMARK                         _______ _______ _______ _____ _____    ______ ____
ROOT
ATOM      1  C   UNL     1      45.443   4.118  12.563  0.00  0.00    +0.000 A 
ATOM      2  C   UNL     1      45.373   5.493  12.644  0.00  0.00    +0.000 A 
ATOM      3  N   UNL     1      46.197   6.244  13.400  0.00  0.00    +0.000 NA
ATOM      4  C   UNL     1      47.142   5.589  14.103  0.00  0.00    +0.000 A 
ATOM      5  N   UNL     1      47.280   4.246  14.115  0.00  0.00    +0.000 NA
ATOM      6  C   UNL     1      46.428   3.543  13.338  0.00  0.00    +0.000 A 
ENDROOT
BRANCH   1   7
ATOM      7  C   UNL     1      44.529   3.324  11.696  0.00  0.00    +0.000 C 
BRANCH   7  10
ATOM      8  O   UNL     1      44.211   4.210   9.065  0.00  0.00    +0.000 OA
ATOM      9  C   UNL     1      44.985   3.285   9.287  0.00  0.00    +0.000 C 
ATOM     10  N   UNL     1      45.200   2.761  10.549  0.00  0.00    +0.000 N 
ATOM     11  H   UNL     1      45.878   2.012  10.636  0.00  0.00    +0.000 HD
BRANCH   9  12
ATOM     12  C   UNL     1      45.770   2.654   8.188  0.00  0.00    +0.000 A 
ATOM     13  C   UNL     1      46.045   3.382   7.038  0.00  0.00    +0.000 A 
ATOM     14  N   UNL     1      46.761   2.863   6.009  0.00  0.00    +0.000 NA
ATOM     15  C   UNL     1      47.184   1.590   6.184  0.00  0.00    +0.000 A 
ATOM     16  C   UNL     1      46.905   0.864   7.337  0.00  0.00    +0.000 A 
ATOM     17  N   UNL     1      46.194   1.373   8.370  0.00  0.00    +0.000 NA
ENDBRANCH   9  12
ENDBRANCH   7  10
ENDBRANCH   1   7
BRANCH   4  18
ATOM     18  C   UNL     1      48.121   6.423  14.898  0.00  0.00    +0.000 C 
BRANCH  18  19
ATOM     19  N   UNL     1      49.068   5.649  15.678  0.00  0.00    +0.000 N 
ATOM     20  C   UNL     1      49.151   5.822  17.035  0.00  0.00    +0.000 C 
ATOM     21  O   UNL     1      48.420   6.616  17.624  0.00  0.00    +0.000 OA
ATOM     22  H   UNL     1      49.485   4.835  15.233  0.00  0.00    +0.000 HD
BRANCH  20  23
ATOM     23  C   UNL     1      50.204   5.086  17.746  0.00  0.00    +0.000 A 
ATOM     24  C   UNL     1      51.061   5.759  18.608  0.00  0.00    +0.000 A 
ATOM     25  S   UNL     1      52.391   4.817  19.117  0.00  0.00    +0.000 S 
ATOM     26  C   UNL     1      51.834   3.469  18.241  0.00  0.00    +0.000 A 
ATOM     27  N   UNL     1      52.571   2.329  18.152  0.00  0.00    +0.000 NA
ATOM     28  C   UNL     1      52.001   1.379  17.488  0.00  0.00    +0.000 A 
ATOM     29  N   UNL     1      50.743   1.447  16.947  0.00  0.00    +0.000 N 
ATOM     30  C   UNL     1      49.951   2.565  17.047  0.00  0.00    +0.000 A 
ATOM     31  O   UNL     1      48.788   2.563  16.656  0.00  0.00    +0.000 OA
ATOM     32  C   UNL     1      50.594   3.700  17.674  0.00  0.00    +0.000 A 
ATOM     33  H   UNL     1      50.323   0.641  16.510  0.00  0.00    +0.000 HD
ENDBRANCH  20  23
ENDBRANCH  18  19
ENDBRANCH   4  18
TORSDOF 6
ENDMDL
MODEL 2
REMARK VINA RESULT:    -7.654      2.449      2.800
REMARK INTER + INTRA:         -11.332
REMARK INTER:                 -10.406
REMARK INTRA:                  -0.926
REMARK UNBOUND:                -0.994
REMARK  Name = 
REMARK  6 active torsions:
REMARK  status: ('A' for Active; 'I' for Inactive)
REMARK    1  A    between atoms: C_2  and  C_25
REMARK    2  A    between atoms: N_3  and  C_4
REMARK    3  A    between atoms: C_4  and  C_5
REMARK    4  A    between atoms: C_8  and  C_9
REMARK    5  A    between atoms: C_9  and  N_10
REMARK    6  A    between atoms: C_11  and  C_13
REMARK                            x       y       z     vdW  Elec       q    Type
REMARK                         _______ _______ _______ _____ _____    ______ ____
ROOT
ATOM      1  C   UNL     1      45.178   6.295  11.161  0.00  0.00    +0.000 A 
ATOM      2  C   UNL     1      46.555   6.269  11.093  0.00  0.00    +0.000 A 
ATOM      3  N   UNL     1      47.361   7.009  11.879  0.00  0.00    +0.000 NA
ATOM      4  C   UNL     1      46.760   7.807  12.784  0.00  0.00    +0.000 A 
ATOM      5  N   UNL     1      45.422   7.927  12.916  0.00  0.00    +0.000 NA
ATOM      6  C   UNL     1      44.663   7.161  12.102  0.00  0.00    +0.000 A 
ENDROOT
BRANCH   1   7
ATOM      7  C   UNL     1      44.321   5.443  10.290  0.00  0.00    +0.000 C 
BRANCH   7  10
ATOM      8  O   UNL     1      44.586   2.677   9.996  0.00  0.00    +0.000 OA
ATOM      9  C   UNL     1      45.122   3.412   9.174  0.00  0.00    +0.000 C 
ATOM     10  N   UNL     1      45.067   4.793   9.240  0.00  0.00    +0.000 N 
ATOM     11  H   UNL     1      45.522   5.316   8.500  0.00  0.00    +0.000 HD
BRANCH   9  12
ATOM     12  C   UNL     1      45.881   2.855   8.018  0.00  0.00    +0.000 A 
ATOM     13  C   UNL     1      46.322   1.539   8.060  0.00  0.00    +0.000 A 
ATOM     14  N   UNL     1      47.010   0.975   7.035  0.00  0.00    +0.000 NA
ATOM     15  C   UNL     1      47.235   1.787   5.976  0.00  0.00    +0.000 A 
ATOM     16  C   UNL     1      46.793   3.105   5.939  0.00  0.00    +0.000 A 
ATOM     17  N   UNL     1      46.104   3.676   6.955  0.00  0.00    +0.000 NA
ENDBRANCH   9  12
ENDBRANCH   7  10
ENDBRANCH   1   7
BRANCH   4  18
ATOM     18  C   UNL     1      47.651   8.588  13.724  0.00  0.00    +0.000 C 
BRANCH  18  19
ATOM     19  N   UNL     1      47.789   7.998  15.041  0.00  0.00    +0.000 N 
ATOM     20  C   UNL     1      48.791   7.098  15.295  0.00  0.00    +0.000 C 
ATOM     21  O   UNL     1      49.604   6.786  14.427  0.00  0.00    +0.000 OA
ATOM     22  H   UNL     1      47.282   8.436  15.806  0.00  0.00    +0.000 HD
BRANCH  20  23
ATOM     23  C   UNL     1      48.807   6.459  16.617  0.00  0.00    +0.000 A 
ATOM     24  C   UNL     1      49.457   7.076  17.679  0.00  0.00    +0.000 A 
ATOM     25  S   UNL     1      49.626   6.071  19.048  0.00  0.00    +0.000 S 
ATOM     26  C   UNL     1      48.794   4.801  18.281  0.00  0.00    +0.000 A 
ATOM     27  N   UNL     1      48.673   3.579  18.865  0.00  0.00    +0.000 NA
ATOM     28  C   UNL     1      47.981   2.729  18.181  0.00  0.00    +0.000 A 
ATOM     29  N   UNL     1      47.359   3.004  16.991  0.00  0.00    +0.000 N 
ATOM     30  C   UNL     1      47.424   4.235  16.385  0.00  0.00    +0.000 A 
ATOM     31  O   UNL     1      46.766   4.492  15.381  0.00  0.00    +0.000 OA
ATOM     32  C   UNL     1      48.291   5.185  17.050  0.00  0.00    +0.000 A 
ATOM     33  H   UNL     1      46.765   2.320  16.547  0.00  0.00    +0.000 HD
ENDBRANCH  20  23
ENDBRANCH  18  19
ENDBRANCH   4  18
TORSDOF 6
ENDMDL
MODEL 3
REMARK VINA RESULT:    -7.647      2.306      2.639
REMARK INTER + INTRA:         -11.323
REMARK INTER:                 -10.467
REMARK INTRA:                  -0.856
REMARK UNBOUND:                -0.994
REMARK  Name = 
REMARK  6 active torsions:
REMARK  status: ('A' for Active; 'I' for Inactive)
REMARK    1  A    between atoms: C_2  and  C_25
REMARK    2  A    between atoms: N_3  and  C_4
REMARK    3  A    between atoms: C_4  and  C_5
REMARK    4  A    between atoms: C_8  and  C_9
REMARK    5  A    between atoms: C_9  and  N_10
REMARK    6  A    between atoms: C_11  and  C_13
REMARK                            x       y       z     vdW  Elec       q    Type
REMARK                         _______ _______ _______ _____ _____    ______ ____
ROOT
ATOM      1  C   UNL     1      45.604   4.457  12.511  0.00  0.00    +0.000 A 
ATOM      2  C   UNL     1      45.556   5.814  12.267  0.00  0.00    +0.000 A 
ATOM      3  N   UNL     1      46.384   6.710  12.837  0.00  0.00    +0.000 NA
ATOM      4  C   UNL     1      47.314   6.224  13.684  0.00  0.00    +0.000 A 
ATOM      5  N   UNL     1      47.431   4.920  14.011  0.00  0.00    +0.000 NA
ATOM      6  C   UNL     1      46.574   4.066  13.410  0.00  0.00    +0.000 A 
ENDROOT
BRANCH   1   7
ATOM      7  C   UNL     1      44.685   3.494  11.842  0.00  0.00    +0.000 C 
BRANCH   7  10
ATOM      8  O   UNL     1      44.251   4.214   9.178  0.00  0.00    +0.000 OA
ATOM      9  C   UNL     1      45.021   3.292   9.422  0.00  0.00    +0.000 C 
ATOM     10  N   UNL     1      45.290   2.846  10.704  0.00  0.00    +0.000 N 
ATOM     11  H   UNL     1      45.960   2.093  10.807  0.00  0.00    +0.000 HD
BRANCH   9  12
ATOM     12  C   UNL     1      45.741   2.577   8.330  0.00  0.00    +0.000 A 
ATOM     13  C   UNL     1      46.043   3.250   7.154  0.00  0.00    +0.000 A 
ATOM     14  N   UNL     1      46.704   2.654   6.130  0.00  0.00    +0.000 NA
ATOM     15  C   UNL     1      47.043   1.361   6.337  0.00  0.00    +0.000 A 
ATOM     16  C   UNL     1      46.737   0.690   7.516  0.00  0.00    +0.000 A 
ATOM     17  N   UNL     1      46.081   1.275   8.544  0.00  0.00    +0.000 NA
ENDBRANCH   9  12
ENDBRANCH   7  10
ENDBRANCH   1   7
BRANCH   4  18
ATOM     18  C   UNL     1      48.299   7.208  14.274  0.00  0.00    +0.000 C 
BRANCH  18  19
ATOM     19  N   UNL     1      48.141   7.427  15.699  0.00  0.00    +0.000 N 
ATOM     20  C   UNL     1      48.980   6.810  16.590  0.00  0.00    +0.000 C 
ATOM     21  O   UNL     1      49.891   6.077  16.209  0.00  0.00    +0.000 OA
ATOM     22  H   UNL     1      47.561   8.210  15.990  0.00  0.00    +0.000 HD
BRANCH  20  23
ATOM     23  C   UNL     1      48.696   6.990  18.020  0.00  0.00    +0.000 A 
ATOM     24  C   UNL     1      48.603   8.270  18.554  0.00  0.00    +0.000 A 
ATOM     25  S   UNL     1      48.562   8.294  20.260  0.00  0.00    +0.000 S 
ATOM     26  C   UNL     1      48.616   6.594  20.334  0.00  0.00    +0.000 A 
ATOM     27  N   UNL     1      48.718   5.940  21.522  0.00  0.00    +0.000 NA
ATOM     28  C   UNL     1      48.707   4.652  21.422  0.00  0.00    +0.000 A 
ATOM     29  N   UNL     1      48.556   3.960  20.249  0.00  0.00    +0.000 N 
ATOM     30  C   UNL     1      48.412   4.581  19.032  0.00  0.00    +0.000 A 
ATOM     31  O   UNL     1      48.163   3.944  18.013  0.00  0.00    +0.000 OA
ATOM     32  C   UNL     1      48.542   6.022  19.076  0.00  0.00    +0.000 A 
ATOM     33  H   UNL     1      48.474   2.954  20.248  0.00  0.00    +0.000 HD
ENDBRANCH  20  23
ENDBRANCH  18  19
ENDBRANCH   4  18
TORSDOF 6
ENDMDL
MODEL 4
REMARK VINA RESULT:    -7.431      2.499      4.087
REMARK INTER + INTRA:         -11.032
REMARK INTER:                 -10.086
REMARK INTRA:                  -0.946
REMARK UNBOUND:                -0.994
REMARK  Name = 
REMARK  6 active torsions:
REMARK  status: ('A' for Active; 'I' for Inactive)
REMARK    1  A    between atoms: C_2  and  C_25
REMARK    2  A    between atoms: N_3  and  C_4
REMARK    3  A    between atoms: C_4  and  C_5
REMARK    4  A    between atoms: C_8  and  C_9
REMARK    5  A    between atoms: C_9  and  N_10
REMARK    6  A    between atoms: C_11  and  C_13
REMARK                            x       y       z     vdW  Elec       q    Type
REMARK                         _______ _______ _______ _____ _____    ______ ____
ROOT
ATOM      1  C   UNL     1      45.417   4.523  11.958  0.00  0.00    +0.000 A 
ATOM      2  C   UNL     1      45.825   3.309  12.469  0.00  0.00    +0.000 A 
ATOM      3  N   UNL     1      46.464   3.165  13.646  0.00  0.00    +0.000 NA
ATOM      4  C   UNL     1      46.698   4.290  14.352  0.00  0.00    +0.000 A 
ATOM      5  N   UNL     1      46.364   5.529  13.932  0.00  0.00    +0.000 NA
ATOM      6  C   UNL     1      45.725   5.613  12.745  0.00  0.00    +0.000 A 
ENDROOT
BRANCH   1   7
ATOM      7  C   UNL     1      44.691   4.640  10.663  0.00  0.00    +0.000 C 
BRANCH   7  10
ATOM      8  O   UNL     1      44.416   2.221   9.292  0.00  0.00    +0.000 OA
ATOM      9  C   UNL     1      45.267   3.019   8.916  0.00  0.00    +0.000 C 
ATOM     10  N   UNL     1      45.495   4.234   9.536  0.00  0.00    +0.000 N 
ATOM     11  H   UNL     1      46.205   4.837   9.137  0.00  0.00    +0.000 HD
BRANCH   9  12
ATOM     12  C   UNL     1      46.127   2.730   7.733  0.00  0.00    +0.000 A 
ATOM     13  C   UNL     1      46.856   1.549   7.689  0.00  0.00    +0.000 A 
ATOM     14  N   UNL     1      47.648   1.229   6.635  0.00  0.00    +0.000 NA
ATOM     15  C   UNL     1      47.678   2.142   5.637  0.00  0.00    +0.000 A 
ATOM     16  C   UNL     1      46.948   3.324   5.686  0.00  0.00    +0.000 A 
ATOM     17  N   UNL     1      46.152   3.652   6.731  0.00  0.00    +0.000 NA
ENDBRANCH   9  12
ENDBRANCH   7  10
ENDBRANCH   1   7
BRANCH   4  18
ATOM     18  C   UNL     1      47.347   4.138  15.709  0.00  0.00    +0.000 C 
BRANCH  18  19
ATOM     19  N   UNL     1      47.744   5.390  16.323  0.00  0.00    +0.000 N 
ATOM     20  C   UNL     1      49.019   5.553  16.800  0.00  0.00    +0.000 C 
ATOM     21  O   UNL     1      49.857   4.658  16.702  0.00  0.00    +0.000 OA
ATOM     22  H   UNL     1      47.138   6.194  16.180  0.00  0.00    +0.000 HD
BRANCH  20  23
ATOM     23  C   UNL     1      49.321   6.805  17.506  0.00  0.00    +0.000 A 
ATOM     24  C   UNL     1      49.932   6.769  18.753  0.00  0.00    +0.000 A 
ATOM     25  S   UNL     1      49.943   8.279  19.549  0.00  0.00    +0.000 S 
ATOM     26  C   UNL     1      49.176   9.034  18.231  0.00  0.00    +0.000 A 
ATOM     27  N   UNL     1      48.782  10.335  18.291  0.00  0.00    +0.000 NA
ATOM     28  C   UNL     1      48.252  10.780  17.201  0.00  0.00    +0.000 A 
ATOM     29  N   UNL     1      48.123  10.059  16.042  0.00  0.00    +0.000 N 
ATOM     30  C   UNL     1      48.541   8.756  15.927  0.00  0.00    +0.000 A 
ATOM     31  O   UNL     1      48.521   8.170  14.849  0.00  0.00    +0.000 OA
ATOM     32  C   UNL     1      49.029   8.173  17.158  0.00  0.00    +0.000 A 
ATOM     33  H   UNL     1      47.773  10.491  15.200  0.00  0.00    +0.000 HD
ENDBRANCH  20  23
ENDBRANCH  18  19
ENDBRANCH   4  18
TORSDOF 6
ENDMDL
MODEL 5
REMARK VINA RESULT:    -7.284      2.290      3.287
REMARK INTER + INTRA:         -10.833
REMARK INTER:                  -9.990
REMARK INTRA:                  -0.843
REMARK UNBOUND:                -0.994
REMARK  Name = 
REMARK  6 active torsions:
REMARK  status: ('A' for Active; 'I' for Inactive)
REMARK    1  A    between atoms: C_2  and  C_25
REMARK    2  A    between atoms: N_3  and  C_4
REMARK    3  A    between atoms: C_4  and  C_5
REMARK    4  A    between atoms: C_8  and  C_9
REMARK    5  A    between atoms: C_9  and  N_10
REMARK    6  A    between atoms: C_11  and  C_13
REMARK                            x       y       z     vdW  Elec       q    Type
REMARK                         _______ _______ _______ _____ _____    ______ ____
ROOT
ATOM      1  C   UNL     1      44.788   5.017  11.823  0.00  0.00    +0.000 A 
ATOM      2  C   UNL     1      45.938   5.125  12.575  0.00  0.00    +0.000 A 
ATOM      3  N   UNL     1      46.477   6.299  12.959  0.00  0.00    +0.000 NA
ATOM      4  C   UNL     1      45.827   7.418  12.580  0.00  0.00    +0.000 A 
ATOM      5  N   UNL     1      44.710   7.424  11.823  0.00  0.00    +0.000 NA
ATOM      6  C   UNL     1      44.214   6.219  11.467  0.00  0.00    +0.000 A 
ENDROOT
BRANCH   1   7
ATOM      7  C   UNL     1      44.209   3.699  11.437  0.00  0.00    +0.000 C 
BRANCH   7  10
ATOM      8  O   UNL     1      44.166   4.207   8.690  0.00  0.00    +0.000 OA
ATOM      9  C   UNL     1      44.924   3.345   9.119  0.00  0.00    +0.000 C 
ATOM     10  N   UNL     1      45.009   3.005  10.458  0.00  0.00    +0.000 N 
ATOM     11  H   UNL     1      45.684   2.296  10.719  0.00  0.00    +0.000 HD
BRANCH   9  12
ATOM     12  C   UNL     1      45.833   2.592   8.208  0.00  0.00    +0.000 A 
ATOM     13  C   UNL     1      46.469   3.261   7.171  0.00  0.00    +0.000 A 
ATOM     14  N   UNL     1      47.313   2.631   6.315  0.00  0.00    +0.000 NA
ATOM     15  C   UNL     1      47.487   1.310   6.545  0.00  0.00    +0.000 A 
ATOM     16  C   UNL     1      46.847   0.643   7.584  0.00  0.00    +0.000 A 
ATOM     17  N   UNL     1      46.005   1.262   8.444  0.00  0.00    +0.000 NA
ENDBRANCH   9  12
ENDBRANCH   7  10
ENDBRANCH   1   7
BRANCH   4  18
ATOM     18  C   UNL     1      46.378   8.740  13.067  0.00  0.00    +0.000 C 
BRANCH  18  19
ATOM     19  N   UNL     1      46.860   8.717  14.434  0.00  0.00    +0.000 N 
ATOM     20  C   UNL     1      48.195   8.878  14.700  0.00  0.00    +0.000 C 
ATOM     21  O   UNL     1      49.009   9.063  13.797  0.00  0.00    +0.000 OA
ATOM     22  H   UNL     1      46.170   8.812  15.175  0.00  0.00    +0.000 HD
BRANCH  20  23
ATOM     23  C   UNL     1      48.627   8.736  16.096  0.00  0.00    +0.000 A 
ATOM     24  C   UNL     1      48.661   9.848  16.929  0.00  0.00    +0.000 A 
ATOM     25  S   UNL     1      49.456   9.563  18.412  0.00  0.00    +0.000 S 
ATOM     26  C   UNL     1      49.734   7.934  18.006  0.00  0.00    +0.000 A 
ATOM     27  N   UNL     1      50.478   7.122  18.805  0.00  0.00    +0.000 NA
ATOM     28  C   UNL     1      50.567   5.903  18.387  0.00  0.00    +0.000 A 
ATOM     29  N   UNL     1      49.943   5.410  17.271  0.00  0.00    +0.000 N 
ATOM     30  C   UNL     1      49.153   6.186  16.458  0.00  0.00    +0.000 A 
ATOM     31  O   UNL     1      48.512   5.698  15.532  0.00  0.00    +0.000 OA
ATOM     32  C   UNL     1      49.122   7.589  16.815  0.00  0.00    +0.000 A 
ATOM     33  H   UNL     1      49.986   4.429  17.044  0.00  0.00    +0.000 HD
ENDBRANCH  20  23
ENDBRANCH  18  19
ENDBRANCH   4  18
TORSDOF 6
ENDMDL
MODEL 6
REMARK VINA RESULT:    -7.027      2.770      3.762
REMARK INTER + INTRA:         -10.485
REMARK INTER:                  -9.610
REMARK INTRA:                  -0.875
REMARK UNBOUND:                -0.994
REMARK  Name = 
REMARK  6 active torsions:
REMARK  status: ('A' for Active; 'I' for Inactive)
REMARK    1  A    between atoms: C_2  and  C_25
REMARK    2  A    between atoms: N_3  and  C_4
REMARK    3  A    between atoms: C_4  and  C_5
REMARK    4  A    between atoms: C_8  and  C_9
REMARK    5  A    between atoms: C_9  and  N_10
REMARK    6  A    between atoms: C_11  and  C_13
REMARK                            x       y       z     vdW  Elec       q    Type
REMARK                         _______ _______ _______ _____ _____    ______ ____
ROOT
ATOM      1  C   UNL     1      45.728   6.861  11.763  0.00  0.00    +0.000 A 
ATOM      2  C   UNL     1      46.926   6.270  12.107  0.00  0.00    +0.000 A 
ATOM      3  N   UNL     1      47.789   6.785  13.003  0.00  0.00    +0.000 NA
ATOM      4  C   UNL     1      47.432   7.944  13.593  0.00  0.00    +0.000 A 
ATOM      5  N   UNL     1      46.296   8.617  13.311  0.00  0.00    +0.000 NA
ATOM      6  C   UNL     1      45.468   8.053  12.405  0.00  0.00    +0.000 A 
ENDROOT
BRANCH   1   7
ATOM      7  C   UNL     1      44.788   6.247  10.784  0.00  0.00    +0.000 C 
BRANCH   7  10
ATOM      8  O   UNL     1      43.805   3.764   9.962  0.00  0.00    +0.000 OA
ATOM      9  C   UNL     1      44.870   4.160   9.500  0.00  0.00    +0.000 C 
ATOM     10  N   UNL     1      45.451   5.364   9.855  0.00  0.00    +0.000 N 
ATOM     11  H   UNL     1      46.320   5.616   9.400  0.00  0.00    +0.000 HD
BRANCH   9  12
ATOM     12  C   UNL     1      45.623   3.356   8.496  0.00  0.00    +0.000 A 
ATOM     13  C   UNL     1      45.849   2.006   8.731  0.00  0.00    +0.000 A 
ATOM     14  N   UNL     1      46.520   1.222   7.850  0.00  0.00    +0.000 NA
ATOM     15  C   UNL     1      46.953   1.850   6.732  0.00  0.00    +0.000 A 
ATOM     16  C   UNL     1      46.726   3.203   6.502  0.00  0.00    +0.000 A 
ATOM     17  N   UNL     1      46.055   3.993   7.373  0.00  0.00    +0.000 NA
ENDBRANCH   9  12
ENDBRANCH   7  10
ENDBRANCH   1   7
BRANCH   4  18
ATOM     18  C   UNL     1      48.355   8.497  14.656  0.00  0.00    +0.000 C 
BRANCH  18  19
ATOM     19  N   UNL     1      48.308   7.781  15.916  0.00  0.00    +0.000 N 
ATOM     20  C   UNL     1      49.252   6.831  16.207  0.00  0.00    +0.000 C 
ATOM     21  O   UNL     1      50.166   6.577  15.424  0.00  0.00    +0.000 OA
ATOM     22  H   UNL     1      47.713   8.161  16.647  0.00  0.00    +0.000 HD
BRANCH  20  23
ATOM     23  C   UNL     1      49.083   6.069  17.451  0.00  0.00    +0.000 A 
ATOM     24  C   UNL     1      49.194   4.685  17.438  0.00  0.00    +0.000 A 
ATOM     25  S   UNL     1      48.685   3.948  18.891  0.00  0.00    +0.000 S 
ATOM     26  C   UNL     1      48.348   5.459  19.597  0.00  0.00    +0.000 A 
ATOM     27  N   UNL     1      47.768   5.555  20.824  0.00  0.00    +0.000 NA
ATOM     28  C   UNL     1      47.612   6.766  21.244  0.00  0.00    +0.000 A 
ATOM     29  N   UNL     1      48.026   7.888  20.573  0.00  0.00    +0.000 N 
ATOM     30  C   UNL     1      48.649   7.834  19.351  0.00  0.00    +0.000 A 
ATOM     31  O   UNL     1      49.114   8.840  18.823  0.00  0.00    +0.000 OA
ATOM     32  C   UNL     1      48.736   6.506  18.779  0.00  0.00    +0.000 A 
ATOM     33  H   UNL     1      47.948   8.801  20.994  0.00  0.00    +0.000 HD
ENDBRANCH  20  23
ENDBRANCH  18  19
ENDBRANCH   4  18
TORSDOF 6
ENDMDL
MODEL 7
REMARK VINA RESULT:    -7.025      2.772      3.724
REMARK INTER + INTRA:         -10.483
REMARK INTER:                  -9.774
REMARK INTRA:                  -0.710
REMARK UNBOUND:                -0.994
REMARK  Name = 
REMARK  6 active torsions:
REMARK  status: ('A' for Active; 'I' for Inactive)
REMARK    1  A    between atoms: C_2  and  C_25
REMARK    2  A    between atoms: N_3  and  C_4
REMARK    3  A    between atoms: C_4  and  C_5
REMARK    4  A    between atoms: C_8  and  C_9
REMARK    5  A    between atoms: C_9  and  N_10
REMARK    6  A    between atoms: C_11  and  C_13
REMARK                            x       y       z     vdW  Elec       q    Type
REMARK                         _______ _______ _______ _____ _____    ______ ____
ROOT
ATOM      1  C   UNL     1      44.981   4.380  11.704  0.00  0.00    +0.000 A 
ATOM      2  C   UNL     1      45.470   3.240  12.306  0.00  0.00    +0.000 A 
ATOM      3  N   UNL     1      46.218   3.243  13.426  0.00  0.00    +0.000 NA
ATOM      4  C   UNL     1      46.483   4.446  13.976  0.00  0.00    +0.000 A 
ATOM      5  N   UNL     1      46.075   5.622  13.454  0.00  0.00    +0.000 NA
ATOM      6  C   UNL     1      45.328   5.559  12.331  0.00  0.00    +0.000 A 
ENDROOT
BRANCH   1   7
ATOM      7  C   UNL     1      44.136   4.335  10.478  0.00  0.00    +0.000 C 
BRANCH   7  10
ATOM      8  O   UNL     1      46.037   5.319   8.683  0.00  0.00    +0.000 OA
ATOM      9  C   UNL     1      45.686   4.148   8.587  0.00  0.00    +0.000 C 
ATOM     10  N   UNL     1      44.739   3.570   9.414  0.00  0.00    +0.000 N 
ATOM     11  H   UNL     1      44.533   2.588   9.273  0.00  0.00    +0.000 HD
BRANCH   9  12
ATOM     12  C   UNL     1      46.274   3.247   7.556  0.00  0.00    +0.000 A 
ATOM     13  C   UNL     1      46.544   1.924   7.878  0.00  0.00    +0.000 A 
ATOM     14  N   UNL     1      47.072   1.055   6.978  0.00  0.00    +0.000 NA
ATOM     15  C   UNL     1      47.315   1.572   5.752  0.00  0.00    +0.000 A 
ATOM     16  C   UNL     1      47.045   2.898   5.435  0.00  0.00    +0.000 A 
ATOM     17  N   UNL     1      46.517   3.772   6.323  0.00  0.00    +0.000 NA
ENDBRANCH   9  12
ENDBRANCH   7  10
ENDBRANCH   1   7
BRANCH   4  18
ATOM     18  C   UNL     1      47.259   4.461  15.274  0.00  0.00    +0.000 C 
BRANCH  18  19
ATOM     19  N   UNL     1      47.685   5.781  15.697  0.00  0.00    +0.000 N 
ATOM     20  C   UNL     1      48.847   5.938  16.407  0.00  0.00    +0.000 C 
ATOM     21  O   UNL     1      49.562   4.976  16.682  0.00  0.00    +0.000 OA
ATOM     22  H   UNL     1      47.232   6.580  15.263  0.00  0.00    +0.000 HD
BRANCH  20  23
ATOM     23  C   UNL     1      49.163   7.286  16.896  0.00  0.00    +0.000 A 
ATOM     24  C   UNL     1      49.241   8.348  16.003  0.00  0.00    +0.000 A 
ATOM     25  S   UNL     1      49.897   9.766  16.690  0.00  0.00    +0.000 S 
ATOM     26  C   UNL     1      50.049   9.019  18.211  0.00  0.00    +0.000 A 
ATOM     27  N   UNL     1      50.654   9.650  19.253  0.00  0.00    +0.000 NA
ATOM     28  C   UNL     1      50.658   8.973  20.354  0.00  0.00    +0.000 A 
ATOM     29  N   UNL     1      50.072   7.745  20.520  0.00  0.00    +0.000 N 
ATOM     30  C   UNL     1      49.419   7.090  19.505  0.00  0.00    +0.000 A 
ATOM     31  O   UNL     1      48.803   6.048  19.706  0.00  0.00    +0.000 OA
ATOM     32  C   UNL     1      49.494   7.751  18.219  0.00  0.00    +0.000 A 
ATOM     33  H   UNL     1      50.039   7.306  21.427  0.00  0.00    +0.000 HD
ENDBRANCH  20  23
ENDBRANCH  18  19
ENDBRANCH   4  18
TORSDOF 6
ENDMDL
MODEL 8
REMARK VINA RESULT:    -6.993      3.456      8.966
REMARK INTER + INTRA:         -10.440
REMARK INTER:                  -9.593
REMARK INTRA:                  -0.847
REMARK UNBOUND:                -0.994
REMARK  Name = 
REMARK  6 active torsions:
REMARK  status: ('A' for Active; 'I' for Inactive)
REMARK    1  A    between atoms: C_2  and  C_25
REMARK    2  A    between atoms: N_3  and  C_4
REMARK    3  A    between atoms: C_4  and  C_5
REMARK    4  A    between atoms: C_8  and  C_9
REMARK    5  A    between atoms: C_9  and  N_10
REMARK    6  A    between atoms: C_11  and  C_13
REMARK                            x       y       z     vdW  Elec       q    Type
REMARK                         _______ _______ _______ _____ _____    ______ ____
ROOT
ATOM      1  C   UNL     1      49.939   7.213  15.985  0.00  0.00    +0.000 A 
ATOM      2  C   UNL     1      50.434   8.199  15.158  0.00  0.00    +0.000 A 
ATOM      3  N   UNL     1      49.902   8.513  13.961  0.00  0.00    +0.000 NA
ATOM      4  C   UNL     1      48.815   7.814  13.578  0.00  0.00    +0.000 A 
ATOM      5  N   UNL     1      48.267   6.813  14.299  0.00  0.00    +0.000 NA
ATOM      6  C   UNL     1      48.841   6.542  15.491  0.00  0.00    +0.000 A 
ENDROOT
BRANCH   1   7
ATOM      7  C   UNL     1      50.542   6.911  17.313  0.00  0.00    +0.000 C 
BRANCH   7  10
ATOM      8  O   UNL     1      49.478   4.561  18.387  0.00  0.00    +0.000 OA
ATOM      9  C   UNL     1      50.595   4.526  17.882  0.00  0.00    +0.000 C 
ATOM     10  N   UNL     1      51.218   5.637  17.341  0.00  0.00    +0.000 N 
ATOM     11  H   UNL     1      52.133   5.504  16.925  0.00  0.00    +0.000 HD
BRANCH   9  12
ATOM     12  C   UNL     1      51.372   3.256  17.811  0.00  0.00    +0.000 A 
ATOM     13  C   UNL     1      50.765   2.111  17.312  0.00  0.00    +0.000 A 
ATOM     14  N   UNL     1      51.425   0.929  17.215  0.00  0.00    +0.000 NA
ATOM     15  C   UNL     1      52.709   0.948  17.640  0.00  0.00    +0.000 A 
ATOM     16  C   UNL     1      53.312   2.097  18.140  0.00  0.00    +0.000 A 
ATOM     17  N   UNL     1      52.664   3.281  18.239  0.00  0.00    +0.000 NA
ENDBRANCH   9  12
ENDBRANCH   7  10
ENDBRANCH   1   7
BRANCH   4  18
ATOM     18  C   UNL     1      48.161   8.205  12.271  0.00  0.00    +0.000 C 
BRANCH  18  19
ATOM     19  N   UNL     1      47.588   7.094  11.536  0.00  0.00    +0.000 N 
ATOM     20  C   UNL     1      46.241   6.847  11.594  0.00  0.00    +0.000 C 
ATOM     21  O   UNL     1      45.488   7.566  12.248  0.00  0.00    +0.000 OA
ATOM     22  H   UNL     1      48.162   6.664  10.815  0.00  0.00    +0.000 HD
BRANCH  20  23
ATOM     23  C   UNL     1      45.745   5.644  10.914  0.00  0.00    +0.000 A 
ATOM     24  C   UNL     1      45.859   5.530   9.534  0.00  0.00    +0.000 A 
ATOM     25  S   UNL     1      44.979   4.219   8.885  0.00  0.00    +0.000 S 
ATOM     26  C   UNL     1      44.462   3.737  10.432  0.00  0.00    +0.000 A 
ATOM     27  N   UNL     1      43.572   2.720  10.597  0.00  0.00    +0.000 NA
ATOM     28  C   UNL     1      43.306   2.443  11.830  0.00  0.00    +0.000 A 
ATOM     29  N   UNL     1      43.882   3.055  12.913  0.00  0.00    +0.000 N 
ATOM     30  C   UNL     1      44.812   4.058  12.791  0.00  0.00    +0.000 A 
ATOM     31  O   UNL     1      45.398   4.511  13.770  0.00  0.00    +0.000 OA
ATOM     32  C   UNL     1      45.052   4.491  11.431  0.00  0.00    +0.000 A 
ATOM     33  H   UNL     1      43.691   2.736  13.850  0.00  0.00    +0.000 HD
ENDBRANCH  20  23
ENDBRANCH  18  19
ENDBRANCH   4  18
TORSDOF 6
ENDMDL
MODEL 9
REMARK VINA RESULT:    -6.913      1.669      2.446
REMARK INTER + INTRA:         -10.332
REMARK INTER:                  -9.435
REMARK INTRA:                  -0.897
REMARK UNBOUND:                -0.994
REMARK  Name = 
REMARK  6 active torsions:
REMARK  status: ('A' for Active; 'I' for Inactive)
REMARK    1  A    between atoms: C_2  and  C_25
REMARK    2  A    between atoms: N_3  and  C_4
REMARK    3  A    between atoms: C_4  and  C_5
REMARK    4  A    between atoms: C_8  and  C_9
REMARK    5  A    between atoms: C_9  and  N_10
REMARK    6  A    between atoms: C_11  and  C_13
REMARK                            x       y       z     vdW  Elec       q    Type
REMARK                         _______ _______ _______ _____ _____    ______ ____
ROOT
ATOM      1  C   UNL     1      46.902   7.110  13.226  0.00  0.00    +0.000 A 
ATOM      2  C   UNL     1      47.306   8.351  13.669  0.00  0.00    +0.000 A 
ATOM      3  N   UNL     1      48.378   8.556  14.458  0.00  0.00    +0.000 NA
ATOM      4  C   UNL     1      49.088   7.466  14.812  0.00  0.00    +0.000 A 
ATOM      5  N   UNL     1      48.765   6.205  14.454  0.00  0.00    +0.000 NA
ATOM      6  C   UNL     1      47.680   6.059  13.663  0.00  0.00    +0.000 A 
ENDROOT
BRANCH   1   7
ATOM      7  C   UNL     1      45.723   6.926  12.335  0.00  0.00    +0.000 C 
BRANCH   7  10
ATOM      8  O   UNL     1      43.680   5.588  10.977  0.00  0.00    +0.000 OA
ATOM      9  C   UNL     1      44.845   5.304  10.719  0.00  0.00    +0.000 C 
ATOM     10  N   UNL     1      45.927   5.895  11.347  0.00  0.00    +0.000 N 
ATOM     11  H   UNL     1      46.853   5.612  11.048  0.00  0.00    +0.000 HD
BRANCH   9  12
ATOM     12  C   UNL     1      45.181   4.287   9.682  0.00  0.00    +0.000 A 
ATOM     13  C   UNL     1      44.856   2.955   9.900  0.00  0.00    +0.000 A 
ATOM     14  N   UNL     1      45.129   1.987   8.989  0.00  0.00    +0.000 NA
ATOM     15  C   UNL     1      45.741   2.413   7.861  0.00  0.00    +0.000 A 
ATOM     16  C   UNL     1      46.067   3.748   7.647  0.00  0.00    +0.000 A 
ATOM     17  N   UNL     1      45.796   4.721   8.547  0.00  0.00    +0.000 NA
ENDBRANCH   9  12
ENDBRANCH   7  10
ENDBRANCH   1   7
BRANCH   4  18
ATOM     18  C   UNL     1      50.338   7.686  15.635  0.00  0.00    +0.000 C 
BRANCH  18  19
ATOM     19  N   UNL     1      50.861   6.485  16.257  0.00  0.00    +0.000 N 
ATOM     20  C   UNL     1      50.894   6.372  17.622  0.00  0.00    +0.000 C 
ATOM     21  O   UNL     1      50.466   7.267  18.348  0.00  0.00    +0.000 OA
ATOM     22  H   UNL     1      50.979   5.666  15.666  0.00  0.00    +0.000 HD
BRANCH  20  23
ATOM     23  C   UNL     1      51.535   5.176  18.185  0.00  0.00    +0.000 A 
ATOM     24  C   UNL     1      52.589   5.310  19.081  0.00  0.00    +0.000 A 
ATOM     25  S   UNL     1      53.396   3.842  19.404  0.00  0.00    +0.000 S 
ATOM     26  C   UNL     1      52.332   2.977  18.397  0.00  0.00    +0.000 A 
ATOM     27  N   UNL     1      52.524   1.657  18.132  0.00  0.00    +0.000 NA
ATOM     28  C   UNL     1      51.613   1.128  17.384  0.00  0.00    +0.000 A 
ATOM     29  N   UNL     1      50.504   1.785  16.918  0.00  0.00    +0.000 N 
ATOM     30  C   UNL     1      50.253   3.107  17.193  0.00  0.00    +0.000 A 
ATOM     31  O   UNL     1      49.199   3.642  16.862  0.00  0.00    +0.000 OA
ATOM     32  C   UNL     1      51.308   3.778  17.923  0.00  0.00    +0.000 A 
ATOM     33  H   UNL     1      49.787   1.293  16.406  0.00  0.00    +0.000 HD
ENDBRANCH  20  23
ENDBRANCH  18  19
ENDBRANCH   4  18
TORSDOF 6
ENDMDL
