MODEL 1
REMARK VINA RESULT:    -6.802      0.000      0.000
REMARK INTER + INTRA:         -10.027
REMARK INTER:                  -8.790
REMARK INTRA:                  -1.236
REMARK UNBOUND:                -1.236
REMARK  Name = 
REMARK  5 active torsions:
REMARK  status: ('A' for Active; 'I' for Inactive)
REMARK    1  A    between atoms: C_2  and  C_18
REMARK    2  A    between atoms: N_3  and  C_4
REMARK    3  A    between atoms: C_4  and  C_5
REMARK    4  A    between atoms: C_8  and  C_9
REMARK    5  A    between atoms: C_9  and  C_10
REMARK                            x       y       z     vdW  Elec       q    Type
REMARK                         _______ _______ _______ _____ _____    ______ ____
ROOT
ATOM      1  O   UNL     1      47.809   6.980  12.010  0.00  0.00    +0.000 OA
ATOM      2  C   UNL     1      46.952   6.514  12.747  0.00  0.00    +0.000 C 
ATOM      3  N   UNL     1      47.151   6.347  14.095  0.00  0.00    +0.000 N 
ATOM      4  H   UNL     1      46.501   5.777  14.626  0.00  0.00    +0.000 HD
ENDROOT
BRANCH   2   5
ATOM      5  C   UNL     1      45.629   6.125  12.234  0.00  0.00    +0.000 A 
ATOM      6  C   UNL     1      44.818   7.078  11.622  0.00  0.00    +0.000 A 
ATOM      7  S   UNL     1      43.327   6.454  11.075  0.00  0.00    +0.000 S 
ATOM      8  C   UNL     1      43.728   4.882  11.591  0.00  0.00    +0.000 A 
ATOM      9  N   UNL     1      42.886   3.838  11.377  0.00  0.00    +0.000 NA
ATOM     10  C   UNL     1      43.333   2.700  11.784  0.00  0.00    +0.000 A 
ATOM     11  N   UNL     1      44.542   2.510  12.403  0.00  0.00    +0.000 N 
ATOM     12  C   UNL     1      45.409   3.540  12.683  0.00  0.00    +0.000 A 
ATOM     13  O   UNL     1      46.447   3.340  13.308  0.00  0.00    +0.000 OA
ATOM     14  C   UNL     1      44.967   4.842  12.209  0.00  0.00    +0.000 A 
ATOM     15  H   UNL     1      44.823   1.591  12.719  0.00  0.00    +0.000 HD
ENDBRANCH   2   5
BRANCH   3  16
ATOM     16  C   UNL     1      48.457   6.547  14.676  0.00  0.00    +0.000 C 
BRANCH  16  17
ATOM     17  C   UNL     1      48.559   5.934  16.042  0.00  0.00    +0.000 A 
ATOM     18  C   UNL     1      47.649   4.961  16.454  0.00  0.00    +0.000 A 
ATOM     19  C   UNL     1      47.740   4.422  17.733  0.00  0.00    +0.000 A 
ATOM     20  C   UNL     1      48.734   4.879  18.595  0.00  0.00    +0.000 A 
ATOM     21  N   UNL     1      49.646   5.805  18.215  0.00  0.00    +0.000 NA
ATOM     22  C   UNL     1      49.551   6.291  16.948  0.00  0.00    +0.000 A 
BRANCH  20  23
ATOM     23  C   UNL     1      48.859   4.281  19.977  0.00  0.00    +0.000 C 
BRANCH  23  24
ATOM     24  C   UNL     1      48.476   5.116  21.223  0.00  0.00    +0.000 C 
ATOM     25  C   UNL     1      47.257   6.037  21.073  0.00  0.00    +0.000 C 
ATOM     26  C   UNL     1      47.584   7.388  20.443  0.00  0.00    +0.000 C 
ATOM     27  C   UNL     1      48.854   8.028  21.003  0.00  0.00    +0.000 C 
ATOM     28  N   UNL     1      49.991   7.117  21.121  0.00  0.00    +0.000 NA
ATOM     29  C   UNL     1      49.645   5.896  21.842  0.00  0.00    +0.000 C 
ATOM     30  H   UNL     1      50.334   6.865  20.189  0.00  0.00    +0.000 HD
ENDBRANCH  23  24
ENDBRANCH  20  23
ENDBRANCH  16  17
ENDBRANCH   3  16
TORSDOF 5
ENDMDL
MODEL 2
REMARK VINA RESULT:    -6.743      3.148      7.742
REMARK INTER + INTRA:          -9.950
REMARK INTER:                  -8.349
REMARK INTRA:                  -1.601
REMARK UNBOUND:                -1.236
REMARK  Name = 
REMARK  5 active torsions:
REMARK  status: ('A' for Active; 'I' for Inactive)
REMARK    1  A    between atoms: C_2  and  C_18
REMARK    2  A    between atoms: N_3  and  C_4
REMARK    3  A    between atoms: C_4  and  C_5
REMARK    4  A    between atoms: C_8  and  C_9
REMARK    5  A    between atoms: C_9  and  C_10
REMARK                            x       y       z     vdW  Elec       q    Type
REMARK                         _______ _______ _______ _____ _____    ______ ____
ROOT
ATOM      1  O   UNL     1      49.014   8.648  16.106  0.00  0.00    +0.000 OA
ATOM      2  C   UNL     1      49.245   7.486  15.801  0.00  0.00    +0.000 C 
ATOM      3  N   UNL     1      49.421   7.086  14.500  0.00  0.00    +0.000 N 
ATOM      4  H   UNL     1      49.406   6.096  14.278  0.00  0.00    +0.000 HD
ENDROOT
BRANCH   2   5
ATOM      5  C   UNL     1      49.377   6.438  16.826  0.00  0.00    +0.000 A 
ATOM      6  C   UNL     1      50.243   6.628  17.900  0.00  0.00    +0.000 A 
ATOM      7  S   UNL     1      50.264   5.322  18.997  0.00  0.00    +0.000 S 
ATOM      8  C   UNL     1      49.085   4.477  18.107  0.00  0.00    +0.000 A 
ATOM      9  N   UNL     1      48.608   3.279  18.533  0.00  0.00    +0.000 NA
ATOM     10  C   UNL     1      47.693   2.770  17.782  0.00  0.00    +0.000 A 
ATOM     11  N   UNL     1      47.219   3.343  16.630  0.00  0.00    +0.000 N 
ATOM     12  C   UNL     1      47.700   4.532  16.132  0.00  0.00    +0.000 A 
ATOM     13  O   UNL     1      47.304   4.972  15.057  0.00  0.00    +0.000 OA
ATOM     14  C   UNL     1      48.710   5.165  16.964  0.00  0.00    +0.000 A 
ATOM     15  H   UNL     1      46.513   2.879  16.074  0.00  0.00    +0.000 HD
ENDBRANCH   2   5
BRANCH   3  16
ATOM     16  C   UNL     1      49.159   7.995  13.410  0.00  0.00    +0.000 C 
BRANCH  16  17
ATOM     17  C   UNL     1      47.790   7.787  12.829  0.00  0.00    +0.000 A 
ATOM     18  C   UNL     1      46.694   8.493  13.324  0.00  0.00    +0.000 A 
ATOM     19  C   UNL     1      45.428   8.271  12.794  0.00  0.00    +0.000 A 
ATOM     20  C   UNL     1      45.270   7.326  11.783  0.00  0.00    +0.000 A 
ATOM     21  N   UNL     1      46.319   6.642  11.266  0.00  0.00    +0.000 NA
ATOM     22  C   UNL     1      47.550   6.905  11.783  0.00  0.00    +0.000 A 
BRANCH  20  23
ATOM     23  C   UNL     1      43.904   7.095  11.181  0.00  0.00    +0.000 C 
BRANCH  23  24
ATOM     24  C   UNL     1      43.170   5.751  11.410  0.00  0.00    +0.000 C 
ATOM     25  C   UNL     1      43.181   5.208  12.845  0.00  0.00    +0.000 C 
ATOM     26  C   UNL     1      44.441   4.417  13.191  0.00  0.00    +0.000 C 
ATOM     27  C   UNL     1      44.866   3.443  12.093  0.00  0.00    +0.000 C 
ATOM     28  N   UNL     1      44.847   4.005  10.743  0.00  0.00    +0.000 NA
ATOM     29  C   UNL     1      43.571   4.639  10.429  0.00  0.00    +0.000 C 
ATOM     30  H   UNL     1      45.594   4.698  10.644  0.00  0.00    +0.000 HD
ENDBRANCH  23  24
ENDBRANCH  20  23
ENDBRANCH  16  17
ENDBRANCH   3  16
TORSDOF 5
ENDMDL
MODEL 3
REMARK VINA RESULT:    -6.723      2.489      3.251
REMARK INTER + INTRA:          -9.924
REMARK INTER:                  -8.889
REMARK INTRA:                  -1.035
REMARK UNBOUND:                -1.236
REMARK  Name = 
REMARK  5 active torsions:
REMARK  status: ('A' for Active; 'I' for Inactive)
REMARK    1  A    between atoms: C_2  and  C_18
REMARK    2  A    between atoms: N_3  and  C_4
REMARK    3  A    between atoms: C_4  and  C_5
REMARK    4  A    between atoms: C_8  and  C_9
REMARK    5  A    between atoms: C_9  and  C_10
REMARK                            x       y       z     vdW  Elec       q    Type
REMARK                         _______ _______ _______ _____ _____    ______ ____
ROOT
ATOM      1  O   UNL     1      47.015   3.176  13.969  0.00  0.00    +0.000 OA
ATOM      2  C   UNL     1      46.706   4.277  14.402  0.00  0.00    +0.000 C 
ATOM      3  N   UNL     1      46.914   4.640  15.710  0.00  0.00    +0.000 N 
ATOM      4  H   UNL     1      46.463   5.474  16.071  0.00  0.00    +0.000 HD
ENDROOT
BRANCH   2   5
ATOM      5  C   UNL     1      46.111   5.302  13.531  0.00  0.00    +0.000 A 
ATOM      6  C   UNL     1      46.850   6.433  13.191  0.00  0.00    +0.000 A 
ATOM      7  S   UNL     1      46.013   7.511  12.166  0.00  0.00    +0.000 S 
ATOM      8  C   UNL     1      44.655   6.487  12.100  0.00  0.00    +0.000 A 
ATOM      9  N   UNL     1      43.575   6.803  11.338  0.00  0.00    +0.000 NA
ATOM     10  C   UNL     1      42.636   5.921  11.352  0.00  0.00    +0.000 A 
ATOM     11  N   UNL     1      42.669   4.754  12.072  0.00  0.00    +0.000 N 
ATOM     12  C   UNL     1      43.718   4.410  12.892  0.00  0.00    +0.000 A 
ATOM     13  O   UNL     1      43.675   3.394  13.580  0.00  0.00    +0.000 OA
ATOM     14  C   UNL     1      44.821   5.356  12.883  0.00  0.00    +0.000 A 
ATOM     15  H   UNL     1      41.886   4.113  12.056  0.00  0.00    +0.000 HD
ENDBRANCH   2   5
BRANCH   3  16
ATOM     16  C   UNL     1      47.343   3.665  16.684  0.00  0.00    +0.000 C 
BRANCH  16  17
ATOM     17  C   UNL     1      48.801   3.808  17.009  0.00  0.00    +0.000 A 
ATOM     18  C   UNL     1      49.583   2.685  17.278  0.00  0.00    +0.000 A 
ATOM     19  C   UNL     1      50.926   2.835  17.603  0.00  0.00    +0.000 A 
ATOM     20  C   UNL     1      51.470   4.116  17.676  0.00  0.00    +0.000 A 
ATOM     21  N   UNL     1      50.742   5.223  17.397  0.00  0.00    +0.000 NA
ATOM     22  C   UNL     1      49.439   5.042  17.050  0.00  0.00    +0.000 A 
BRANCH  20  23
ATOM     23  C   UNL     1      52.935   4.289  18.002  0.00  0.00    +0.000 C 
BRANCH  23  24
ATOM     24  C   UNL     1      53.363   4.842  19.383  0.00  0.00    +0.000 C 
ATOM     25  C   UNL     1      52.613   4.282  20.600  0.00  0.00    +0.000 C 
ATOM     26  C   UNL     1      51.291   4.992  20.883  0.00  0.00    +0.000 C 
ATOM     27  C   UNL     1      51.386   6.514  20.785  0.00  0.00    +0.000 C 
ATOM     28  N   UNL     1      52.101   7.002  19.607  0.00  0.00    +0.000 NA
ATOM     29  C   UNL     1      53.411   6.375  19.461  0.00  0.00    +0.000 C 
ATOM     30  H   UNL     1      51.551   6.819  18.764  0.00  0.00    +0.000 HD
ENDBRANCH  23  24
ENDBRANCH  20  23
ENDBRANCH  16  17
ENDBRANCH   3  16
TORSDOF 5
ENDMDL
MODEL 4
REMARK VINA RESULT:    -6.574      1.872      2.482
REMARK INTER + INTRA:          -9.732
REMARK INTER:                  -8.428
REMARK INTRA:                  -1.304
REMARK UNBOUND:                -1.236
REMARK  Name = 
REMARK  5 active torsions:
REMARK  status: ('A' for Active; 'I' for Inactive)
REMARK    1  A    between atoms: C_2  and  C_18
REMARK    2  A    between atoms: N_3  and  C_4
REMARK    3  A    between atoms: C_4  and  C_5
REMARK    4  A    between atoms: C_8  and  C_9
REMARK    5  A    between atoms: C_9  and  C_10
REMARK                            x       y       z     vdW  Elec       q    Type
REMARK                         _______ _______ _______ _____ _____    ______ ____
ROOT
ATOM      1  O   UNL     1      48.381   5.816  14.061  0.00  0.00    +0.000 OA
ATOM      2  C   UNL     1      47.236   5.393  14.144  0.00  0.00    +0.000 C 
ATOM      3  N   UNL     1      46.818   4.599  15.182  0.00  0.00    +0.000 N 
ATOM      4  H   UNL     1      45.932   4.109  15.106  0.00  0.00    +0.000 HD
ENDROOT
BRANCH   2   5
ATOM      5  C   UNL     1      46.218   5.738  13.139  0.00  0.00    +0.000 A 
ATOM      6  C   UNL     1      45.982   7.075  12.827  0.00  0.00    +0.000 A 
ATOM      7  S   UNL     1      44.780   7.294  11.636  0.00  0.00    +0.000 S 
ATOM      8  C   UNL     1      44.565   5.615  11.459  0.00  0.00    +0.000 A 
ATOM      9  N   UNL     1      43.695   5.111  10.545  0.00  0.00    +0.000 NA
ATOM     10  C   UNL     1      43.662   3.824  10.493  0.00  0.00    +0.000 A 
ATOM     11  N   UNL     1      44.410   2.989  11.284  0.00  0.00    +0.000 N 
ATOM     12  C   UNL     1      45.270   3.448  12.253  0.00  0.00    +0.000 A 
ATOM     13  O   UNL     1      45.862   2.668  12.993  0.00  0.00    +0.000 OA
ATOM     14  C   UNL     1      45.371   4.897  12.327  0.00  0.00    +0.000 A 
ATOM     15  H   UNL     1      44.319   1.984  11.207  0.00  0.00    +0.000 HD
ENDBRANCH   2   5
BRANCH   3  16
ATOM     16  C   UNL     1      47.767   4.072  16.133  0.00  0.00    +0.000 C 
BRANCH  16  17
ATOM     17  C   UNL     1      47.969   5.004  17.292  0.00  0.00    +0.000 A 
ATOM     18  C   UNL     1      46.968   5.178  18.247  0.00  0.00    +0.000 A 
ATOM     19  C   UNL     1      47.160   6.066  19.300  0.00  0.00    +0.000 A 
ATOM     20  C   UNL     1      48.350   6.786  19.376  0.00  0.00    +0.000 A 
ATOM     21  N   UNL     1      49.349   6.620  18.477  0.00  0.00    +0.000 NA
ATOM     22  C   UNL     1      49.145   5.721  17.476  0.00  0.00    +0.000 A 
BRANCH  20  23
ATOM     23  C   UNL     1      48.580   7.732  20.531  0.00  0.00    +0.000 C 
BRANCH  23  24
ATOM     24  C   UNL     1      48.497   9.262  20.310  0.00  0.00    +0.000 C 
ATOM     25  C   UNL     1      47.390   9.752  19.368  0.00  0.00    +0.000 C 
ATOM     26  C   UNL     1      47.776   9.703  17.891  0.00  0.00    +0.000 C 
ATOM     27  C   UNL     1      49.184  10.227  17.614  0.00  0.00    +0.000 C 
ATOM     28  N   UNL     1      50.208   9.728  18.531  0.00  0.00    +0.000 NA
ATOM     29  C   UNL     1      49.833   9.917  19.928  0.00  0.00    +0.000 C 
ATOM     30  H   UNL     1      50.369   8.731  18.364  0.00  0.00    +0.000 HD
ENDBRANCH  23  24
ENDBRANCH  20  23
ENDBRANCH  16  17
ENDBRANCH   3  16
TORSDOF 5
ENDMDL
MODEL 5
REMARK VINA RESULT:    -6.472      1.788      2.737
REMARK INTER + INTRA:          -9.600
REMARK INTER:                  -8.567
REMARK INTRA:                  -1.033
REMARK UNBOUND:                -1.236
REMARK  Name = 
REMARK  5 active torsions:
REMARK  status: ('A' for Active; 'I' for Inactive)
REMARK    1  A    between atoms: C_2  and  C_18
REMARK    2  A    between atoms: N_3  and  C_4
REMARK    3  A    between atoms: C_4  and  C_5
REMARK    4  A    between atoms: C_8  and  C_9
REMARK    5  A    between atoms: C_9  and  C_10
REMARK                            x       y       z     vdW  Elec       q    Type
REMARK                         _______ _______ _______ _____ _____    ______ ____
ROOT
ATOM      1  O   UNL     1      47.673   7.229  11.695  0.00  0.00    +0.000 OA
ATOM      2  C   UNL     1      46.665   7.399  12.366  0.00  0.00    +0.000 C 
ATOM      3  N   UNL     1      46.620   8.277  13.421  0.00  0.00    +0.000 N 
ATOM      4  H   UNL     1      45.839   8.236  14.068  0.00  0.00    +0.000 HD
ENDROOT
BRANCH   2   5
ATOM      5  C   UNL     1      45.415   6.684  12.064  0.00  0.00    +0.000 A 
ATOM      6  C   UNL     1      44.365   7.360  11.446  0.00  0.00    +0.000 A 
ATOM      7  S   UNL     1      42.999   6.378  11.159  0.00  0.00    +0.000 S 
ATOM      8  C   UNL     1      43.774   5.007  11.803  0.00  0.00    +0.000 A 
ATOM      9  N   UNL     1      43.161   3.794  11.815  0.00  0.00    +0.000 NA
ATOM     10  C   UNL     1      43.878   2.839  12.296  0.00  0.00    +0.000 A 
ATOM     11  N   UNL     1      45.151   2.984  12.784  0.00  0.00    +0.000 N 
ATOM     12  C   UNL     1      45.799   4.196  12.835  0.00  0.00    +0.000 A 
ATOM     13  O   UNL     1      46.908   4.298  13.351  0.00  0.00    +0.000 OA
ATOM     14  C   UNL     1      45.045   5.303  12.269  0.00  0.00    +0.000 A 
ATOM     15  H   UNL     1      45.652   2.194  13.169  0.00  0.00    +0.000 HD
ENDBRANCH   2   5
BRANCH   3  16
ATOM     16  C   UNL     1      47.824   8.910  13.902  0.00  0.00    +0.000 C 
BRANCH  16  17
ATOM     17  C   UNL     1      48.428   8.156  15.051  0.00  0.00    +0.000 A 
ATOM     18  C   UNL     1      48.534   8.746  16.310  0.00  0.00    +0.000 A 
ATOM     19  C   UNL     1      49.120   8.044  17.358  0.00  0.00    +0.000 A 
ATOM     20  C   UNL     1      49.614   6.762  17.127  0.00  0.00    +0.000 A 
ATOM     21  N   UNL     1      49.504   6.156  15.921  0.00  0.00    +0.000 NA
ATOM     22  C   UNL     1      48.897   6.854  14.924  0.00  0.00    +0.000 A 
BRANCH  20  23
ATOM     23  C   UNL     1      50.228   5.981  18.264  0.00  0.00    +0.000 C 
BRANCH  23  24
ATOM     24  C   UNL     1      49.426   4.849  18.953  0.00  0.00    +0.000 C 
ATOM     25  C   UNL     1      49.615   3.439  18.379  0.00  0.00    +0.000 C 
ATOM     26  C   UNL     1      48.725   3.143  17.174  0.00  0.00    +0.000 C 
ATOM     27  C   UNL     1      47.283   3.616  17.355  0.00  0.00    +0.000 C 
ATOM     28  N   UNL     1      47.152   4.967  17.896  0.00  0.00    +0.000 NA
ATOM     29  C   UNL     1      47.929   5.149  19.117  0.00  0.00    +0.000 C 
ATOM     30  H   UNL     1      47.461   5.653  17.202  0.00  0.00    +0.000 HD
ENDBRANCH  23  24
ENDBRANCH  20  23
ENDBRANCH  16  17
ENDBRANCH   3  16
TORSDOF 5
ENDMDL
MODEL 6
REMARK VINA RESULT:    -6.249      2.439      3.746
REMARK INTER + INTRA:          -9.312
REMARK INTER:                  -8.208
REMARK INTRA:                  -1.104
REMARK UNBOUND:                -1.236
REMARK  Name = 
REMARK  5 active torsions:
REMARK  status: ('A' for Active; 'I' for Inactive)
REMARK    1  A    between atoms: C_2  and  C_18
REMARK    2  A    between atoms: N_3  and  C_4
REMARK    3  A    between atoms: C_4  and  C_5
REMARK    4  A    between atoms: C_8  and  C_9
REMARK    5  A    between atoms: C_9  and  C_10
REMARK                            x       y       z     vdW  Elec       q    Type
REMARK                         _______ _______ _______ _____ _____    ______ ____
ROOT
ATOM      1  O   UNL     1      44.873   7.368  12.469  0.00  0.00    +0.000 OA
ATOM      2  C   UNL     1      45.558   6.445  12.050  0.00  0.00    +0.000 C 
ATOM      3  N   UNL     1      46.913   6.559  11.863  0.00  0.00    +0.000 N 
ATOM      4  H   UNL     1      47.402   5.848  11.328  0.00  0.00    +0.000 HD
ENDROOT
BRANCH   2   5
ATOM      5  C   UNL     1      44.969   5.133  11.745  0.00  0.00    +0.000 A 
ATOM      6  C   UNL     1      44.256   4.450  12.729  0.00  0.00    +0.000 A 
ATOM      7  S   UNL     1      43.633   2.951  12.202  0.00  0.00    +0.000 S 
ATOM      8  C   UNL     1      44.249   3.179  10.632  0.00  0.00    +0.000 A 
ATOM      9  N   UNL     1      44.023   2.267   9.650  0.00  0.00    +0.000 NA
ATOM     10  C   UNL     1      44.515   2.586   8.503  0.00  0.00    +0.000 A 
ATOM     11  N   UNL     1      45.228   3.729   8.247  0.00  0.00    +0.000 N 
ATOM     12  C   UNL     1      45.521   4.661   9.215  0.00  0.00    +0.000 A 
ATOM     13  O   UNL     1      46.228   5.633   8.963  0.00  0.00    +0.000 OA
ATOM     14  C   UNL     1      44.957   4.366  10.522  0.00  0.00    +0.000 A 
ATOM     15  H   UNL     1      45.606   3.908   7.326  0.00  0.00    +0.000 HD
ENDBRANCH   2   5
BRANCH   3  16
ATOM     16  C   UNL     1      47.566   7.841  11.979  0.00  0.00    +0.000 C 
BRANCH  16  17
ATOM     17  C   UNL     1      48.263   7.993  13.300  0.00  0.00    +0.000 A 
ATOM     18  C   UNL     1      49.466   7.333  13.548  0.00  0.00    +0.000 A 
ATOM     19  C   UNL     1      50.086   7.463  14.786  0.00  0.00    +0.000 A 
ATOM     20  C   UNL     1      49.482   8.240  15.772  0.00  0.00    +0.000 A 
ATOM     21  N   UNL     1      48.327   8.911  15.552  0.00  0.00    +0.000 NA
ATOM     22  C   UNL     1      47.761   8.791  14.321  0.00  0.00    +0.000 A 
BRANCH  20  23
ATOM     23  C   UNL     1      50.160   8.410  17.111  0.00  0.00    +0.000 C 
BRANCH  23  24
ATOM     24  C   UNL     1      49.842   7.437  18.273  0.00  0.00    +0.000 C 
ATOM     25  C   UNL     1      50.660   6.139  18.313  0.00  0.00    +0.000 C 
ATOM     26  C   UNL     1      50.098   5.034  17.421  0.00  0.00    +0.000 C 
ATOM     27  C   UNL     1      48.581   4.884  17.523  0.00  0.00    +0.000 C 
ATOM     28  N   UNL     1      47.843   6.146  17.472  0.00  0.00    +0.000 NA
ATOM     29  C   UNL     1      48.349   7.117  18.436  0.00  0.00    +0.000 C 
ATOM     30  H   UNL     1      47.904   6.548  16.533  0.00  0.00    +0.000 HD
ENDBRANCH  23  24
ENDBRANCH  20  23
ENDBRANCH  16  17
ENDBRANCH   3  16
TORSDOF 5
ENDMDL
MODEL 7
REMARK VINA RESULT:    -6.125      3.719      8.169
REMARK INTER + INTRA:          -9.151
REMARK INTER:                  -7.967
REMARK INTRA:                  -1.184
REMARK UNBOUND:                -1.236
REMARK  Name = 
REMARK  5 active torsions:
REMARK  status: ('A' for Active; 'I' for Inactive)
REMARK    1  A    between atoms: C_2  and  C_18
REMARK    2  A    between atoms: N_3  and  C_4
REMARK    3  A    between atoms: C_4  and  C_5
REMARK    4  A    between atoms: C_8  and  C_9
REMARK    5  A    between atoms: C_9  and  C_10
REMARK                            x       y       z     vdW  Elec       q    Type
REMARK                         _______ _______ _______ _____ _____    ______ ____
ROOT
ATOM      1  O   UNL     1      48.446   6.906  17.684  0.00  0.00    +0.000 OA
ATOM      2  C   UNL     1      49.240   6.523  16.836  0.00  0.00    +0.000 C 
ATOM      3  N   UNL     1      49.187   6.949  15.532  0.00  0.00    +0.000 N 
ATOM      4  H   UNL     1      49.727   6.457  14.827  0.00  0.00    +0.000 HD
ENDROOT
BRANCH   2   5
ATOM      5  C   UNL     1      50.330   5.594  17.172  0.00  0.00    +0.000 A 
ATOM      6  C   UNL     1      51.541   6.094  17.647  0.00  0.00    +0.000 A 
ATOM      7  S   UNL     1      52.687   4.879  17.997  0.00  0.00    +0.000 S 
ATOM      8  C   UNL     1      51.596   3.643  17.575  0.00  0.00    +0.000 A 
ATOM      9  N   UNL     1      51.938   2.334  17.694  0.00  0.00    +0.000 NA
ATOM     10  C   UNL     1      51.004   1.507  17.375  0.00  0.00    +0.000 A 
ATOM     11  N   UNL     1      49.757   1.868  16.932  0.00  0.00    +0.000 N 
ATOM     12  C   UNL     1      49.377   3.177  16.752  0.00  0.00    +0.000 A 
ATOM     13  O   UNL     1      48.279   3.457  16.279  0.00  0.00    +0.000 OA
ATOM     14  C   UNL     1      50.385   4.152  17.133  0.00  0.00    +0.000 A 
ATOM     15  H   UNL     1      49.075   1.165  16.677  0.00  0.00    +0.000 HD
ENDBRANCH   2   5
BRANCH   3  16
ATOM     16  C   UNL     1      48.071   7.732  15.059  0.00  0.00    +0.000 C 
BRANCH  16  17
ATOM     17  C   UNL     1      47.439   7.123  13.841  0.00  0.00    +0.000 A 
ATOM     18  C   UNL     1      47.010   7.927  12.786  0.00  0.00    +0.000 A 
ATOM     19  C   UNL     1      46.402   7.350  11.676  0.00  0.00    +0.000 A 
ATOM     20  C   UNL     1      46.213   5.970  11.643  0.00  0.00    +0.000 A 
ATOM     21  N   UNL     1      46.641   5.162  12.643  0.00  0.00    +0.000 NA
ATOM     22  C   UNL     1      47.261   5.751  13.700  0.00  0.00    +0.000 A 
BRANCH  20  23
ATOM     23  C   UNL     1      45.579   5.329  10.431  0.00  0.00    +0.000 C 
BRANCH  23  24
ATOM     24  C   UNL     1      44.160   4.719  10.528  0.00  0.00    +0.000 C 
ATOM     25  C   UNL     1      43.136   5.511  11.352  0.00  0.00    +0.000 C 
ATOM     26  C   UNL     1      43.206   5.228  12.851  0.00  0.00    +0.000 C 
ATOM     27  C   UNL     1      43.341   3.742  13.182  0.00  0.00    +0.000 C 
ATOM     28  N   UNL     1      44.333   3.030  12.378  0.00  0.00    +0.000 NA
ATOM     29  C   UNL     1      44.136   3.242  10.948  0.00  0.00    +0.000 C 
ATOM     30  H   UNL     1      45.275   3.339  12.631  0.00  0.00    +0.000 HD
ENDBRANCH  23  24
ENDBRANCH  20  23
ENDBRANCH  16  17
ENDBRANCH   3  16
TORSDOF 5
ENDMDL
MODEL 8
REMARK VINA RESULT:    -6.111      2.008      2.964
REMARK INTER + INTRA:          -9.134
REMARK INTER:                  -8.414
REMARK INTRA:                  -0.719
REMARK UNBOUND:                -1.236
REMARK  Name = 
REMARK  5 active torsions:
REMARK  status: ('A' for Active; 'I' for Inactive)
REMARK    1  A    between atoms: C_2  and  C_18
REMARK    2  A    between atoms: N_3  and  C_4
REMARK    3  A    between atoms: C_4  and  C_5
REMARK    4  A    between atoms: C_8  and  C_9
REMARK    5  A    between atoms: C_9  and  C_10
REMARK                            x       y       z     vdW  Elec       q    Type
REMARK                         _______ _______ _______ _____ _____    ______ ____
ROOT
ATOM      1  O   UNL     1      47.140   3.169  13.875  0.00  0.00    +0.000 OA
ATOM      2  C   UNL     1      46.716   4.214  14.348  0.00  0.00    +0.000 C 
ATOM      3  N   UNL     1      46.771   4.490  15.692  0.00  0.00    +0.000 N 
ATOM      4  H   UNL     1      46.231   5.266  16.062  0.00  0.00    +0.000 HD
ENDROOT
BRANCH   2   5
ATOM      5  C   UNL     1      46.139   5.262  13.493  0.00  0.00    +0.000 A 
ATOM      6  C   UNL     1      46.896   6.388  13.175  0.00  0.00    +0.000 A 
ATOM      7  S   UNL     1      46.079   7.496  12.167  0.00  0.00    +0.000 S 
ATOM      8  C   UNL     1      44.706   6.494  12.078  0.00  0.00    +0.000 A 
ATOM      9  N   UNL     1      43.633   6.839  11.319  0.00  0.00    +0.000 NA
ATOM     10  C   UNL     1      42.681   5.971  11.314  0.00  0.00    +0.000 A 
ATOM     11  N   UNL     1      42.695   4.791  12.014  0.00  0.00    +0.000 N 
ATOM     12  C   UNL     1      43.736   4.417  12.831  0.00  0.00    +0.000 A 
ATOM     13  O   UNL     1      43.675   3.390  13.501  0.00  0.00    +0.000 OA
ATOM     14  C   UNL     1      44.853   5.347  12.842  0.00  0.00    +0.000 A 
ATOM     15  H   UNL     1      41.902   4.163  11.984  0.00  0.00    +0.000 HD
ENDBRANCH   2   5
BRANCH   3  16
ATOM     16  C   UNL     1      47.170   3.473  16.635  0.00  0.00    +0.000 C 
BRANCH  16  17
ATOM     17  C   UNL     1      47.686   4.070  17.912  0.00  0.00    +0.000 A 
ATOM     18  C   UNL     1      48.418   3.298  18.812  0.00  0.00    +0.000 A 
ATOM     19  C   UNL     1      48.867   3.858  20.003  0.00  0.00    +0.000 A 
ATOM     20  C   UNL     1      48.561   5.187  20.289  0.00  0.00    +0.000 A 
ATOM     21  N   UNL     1      47.872   5.968  19.424  0.00  0.00    +0.000 NA
ATOM     22  C   UNL     1      47.474   5.401  18.253  0.00  0.00    +0.000 A 
BRANCH  20  23
ATOM     23  C   UNL     1      49.066   5.814  21.567  0.00  0.00    +0.000 C 
BRANCH  23  24
ATOM     24  C   UNL     1      50.504   6.382  21.639  0.00  0.00    +0.000 C 
ATOM     25  C   UNL     1      51.075   6.949  20.332  0.00  0.00    +0.000 C 
ATOM     26  C   UNL     1      51.690   5.890  19.420  0.00  0.00    +0.000 C 
ATOM     27  C   UNL     1      52.568   4.885  20.165  0.00  0.00    +0.000 C 
ATOM     28  N   UNL     1      51.982   4.365  21.399  0.00  0.00    +0.000 NA
ATOM     29  C   UNL     1      51.525   5.432  22.283  0.00  0.00    +0.000 C 
ATOM     30  H   UNL     1      51.189   3.756  21.179  0.00  0.00    +0.000 HD
ENDBRANCH  23  24
ENDBRANCH  20  23
ENDBRANCH  16  17
ENDBRANCH   3  16
TORSDOF 5
ENDMDL
MODEL 9
REMARK VINA RESULT:    -5.994      3.776      8.716
REMARK INTER + INTRA:          -8.983
REMARK INTER:                  -8.332
REMARK INTRA:                  -0.651
REMARK UNBOUND:                -1.236
REMARK  Name = 
REMARK  5 active torsions:
REMARK  status: ('A' for Active; 'I' for Inactive)
REMARK    1  A    between atoms: C_2  and  C_18
REMARK    2  A    between atoms: N_3  and  C_4
REMARK    3  A    between atoms: C_4  and  C_5
REMARK    4  A    between atoms: C_8  and  C_9
REMARK    5  A    between atoms: C_9  and  C_10
REMARK                            x       y       z     vdW  Elec       q    Type
REMARK                         _______ _______ _______ _____ _____    ______ ____
ROOT
ATOM      1  O   UNL     1      46.578   3.426  16.872  0.00  0.00    +0.000 OA
ATOM      2  C   UNL     1      47.453   4.158  16.430  0.00  0.00    +0.000 C 
ATOM      3  N   UNL     1      47.361   4.754  15.197  0.00  0.00    +0.000 N 
ATOM      4  H   UNL     1      48.186   5.181  14.789  0.00  0.00    +0.000 HD
ENDROOT
BRANCH   2   5
ATOM      5  C   UNL     1      48.657   4.472  17.214  0.00  0.00    +0.000 A 
ATOM      6  C   UNL     1      48.731   5.672  17.918  0.00  0.00    +0.000 A 
ATOM      7  S   UNL     1      50.190   5.868  18.780  0.00  0.00    +0.000 S 
ATOM      8  C   UNL     1      50.756   4.341  18.286  0.00  0.00    +0.000 A 
ATOM      9  N   UNL     1      51.951   3.862  18.720  0.00  0.00    +0.000 NA
ATOM     10  C   UNL     1      52.237   2.678  18.298  0.00  0.00    +0.000 A 
ATOM     11  N   UNL     1      51.442   1.931  17.466  0.00  0.00    +0.000 N 
ATOM     12  C   UNL     1      50.246   2.388  16.964  0.00  0.00    +0.000 A 
ATOM     13  O   UNL     1      49.602   1.720  16.160  0.00  0.00    +0.000 OA
ATOM     14  C   UNL     1      49.861   3.706  17.440  0.00  0.00    +0.000 A 
ATOM     15  H   UNL     1      51.737   1.015  17.154  0.00  0.00    +0.000 HD
ENDBRANCH   2   5
BRANCH   3  16
ATOM     16  C   UNL     1      46.303   4.393  14.283  0.00  0.00    +0.000 C 
BRANCH  16  17
ATOM     17  C   UNL     1      45.863   5.563  13.452  0.00  0.00    +0.000 A 
ATOM     18  C   UNL     1      44.547   5.658  13.000  0.00  0.00    +0.000 A 
ATOM     19  C   UNL     1      44.161   6.734  12.208  0.00  0.00    +0.000 A 
ATOM     20  C   UNL     1      45.105   7.698  11.861  0.00  0.00    +0.000 A 
ATOM     21  N   UNL     1      46.384   7.644  12.305  0.00  0.00    +0.000 NA
ATOM     22  C   UNL     1      46.724   6.597  13.103  0.00  0.00    +0.000 A 
BRANCH  20  23
ATOM     23  C   UNL     1      44.690   8.885  11.024  0.00  0.00    +0.000 C 
BRANCH  23  24
ATOM     24  C   UNL     1      44.400  10.248  11.699  0.00  0.00    +0.000 C 
ATOM     25  C   UNL     1      43.033  10.877  11.395  0.00  0.00    +0.000 C 
ATOM     26  C   UNL     1      43.001  11.674  10.093  0.00  0.00    +0.000 C 
ATOM     27  C   UNL     1      44.221  12.575   9.904  0.00  0.00    +0.000 C 
ATOM     28  N   UNL     1      45.501  11.932  10.197  0.00  0.00    +0.000 NA
ATOM     29  C   UNL     1      45.508  11.294  11.509  0.00  0.00    +0.000 C 
ATOM     30  H   UNL     1      45.708  11.227   9.484  0.00  0.00    +0.000 HD
ENDBRANCH  23  24
ENDBRANCH  20  23
ENDBRANCH  16  17
ENDBRANCH   3  16
TORSDOF 5
ENDMDL
