MODEL 1
REMARK VINA RESULT:    -7.585      0.000      0.000
REMARK INTER + INTRA:          -9.991
REMARK INTER:                  -9.358
REMARK INTRA:                  -0.633
REMARK UNBOUND:                -0.633
REMARK  Name = 
REMARK  4 active torsions:
REMARK  status: ('A' for Active; 'I' for Inactive)
REMARK    1  A    between atoms: C_5  and  O_6
REMARK    2  A    between atoms: O_6  and  C_7
REMARK    3  A    between atoms: C_7  and  C_8
REMARK    4  A    between atoms: C_12  and  C_13
REMARK                            x       y       z     vdW  Elec       q    Type
REMARK                         _______ _______ _______ _____ _____    ______ ____
ROOT
ATOM      1  C   UNL     1      45.099   4.837  12.144  0.00  0.00    +0.000 A 
ATOM      2  C   UNL     1      45.438   3.717  12.905  0.00  0.00    +0.000 A 
ATOM      3  C   UNL     1      46.649   3.697  13.574  0.00  0.00    +0.000 A 
ATOM      4  N   UNL     1      47.545   4.706  13.538  0.00  0.00    +0.000 NA
ATOM      5  C   UNL     1      47.220   5.814  12.831  0.00  0.00    +0.000 A 
ATOM      6  C   UNL     1      46.008   5.907  12.148  0.00  0.00    +0.000 A 
ENDROOT
BRANCH   5   7
ATOM      7  C   UNL     1      48.228   6.881  12.784  0.00  0.00    +0.000 A 
ATOM      8  C   UNL     1      48.421   7.705  11.664  0.00  0.00    +0.000 A 
ATOM      9  C   UNL     1      49.425   8.669  11.656  0.00  0.00    +0.000 A 
ATOM     10  C   UNL     1      50.222   8.797  12.779  0.00  0.00    +0.000 A 
ATOM     11  N   UNL     1      50.074   8.042  13.886  0.00  0.00    +0.000 NA
ATOM     12  C   UNL     1      49.083   7.114  13.863  0.00  0.00    +0.000 A 
ENDBRANCH   5   7
BRANCH   1  13
ATOM     13  C   UNL     1      43.814   4.904  11.347  0.00  0.00    +0.000 C 
ATOM     14  C   UNL     1      42.541   5.315  12.093  0.00  0.00    +0.000 C 
ATOM     15  C   UNL     1      43.142   6.243  11.094  0.00  0.00    +0.000 C 
BRANCH  13  16
ATOM     16  O   UNL     1      43.584   3.805  10.432  0.00  0.00    +0.000 OA
BRANCH  16  21
ATOM     17 CL   UNL     1      47.205   2.113   6.304  0.00  0.00    +0.000 Cl
ATOM     18  C   UNL     1      46.252   2.683   7.606  0.00  0.00    +0.000 A 
ATOM     19  C   UNL     1      45.873   4.011   7.705  0.00  0.00    +0.000 A 
ATOM     20  N   UNL     1      45.045   4.462   8.680  0.00  0.00    +0.000 NA
ATOM     21  C   UNL     1      44.597   3.516   9.538  0.00  0.00    +0.000 A 
ATOM     22  C   UNL     1      45.014   2.192   9.456  0.00  0.00    +0.000 A 
ATOM     23  N   UNL     1      45.856   1.743   8.491  0.00  0.00    +0.000 NA
ENDBRANCH  16  21
ENDBRANCH  13  16
ENDBRANCH   1  13
TORSDOF 4
ENDMDL
MODEL 2
REMARK VINA RESULT:    -7.060      2.044      3.348
REMARK INTER + INTRA:          -9.344
REMARK INTER:                  -9.590
REMARK INTRA:                   0.246
REMARK UNBOUND:                -0.633
REMARK  Name = 
REMARK  4 active torsions:
REMARK  status: ('A' for Active; 'I' for Inactive)
REMARK    1  A    between atoms: C_5  and  O_6
REMARK    2  A    between atoms: O_6  and  C_7
REMARK    3  A    between atoms: C_7  and  C_8
REMARK    4  A    between atoms: C_12  and  C_13
REMARK                            x       y       z     vdW  Elec       q    Type
REMARK                         _______ _______ _______ _____ _____    ______ ____
ROOT
ATOM      1  C   UNL     1      45.528   5.188  12.430  0.00  0.00    +0.000 A 
ATOM      2  C   UNL     1      46.350   6.104  11.770  0.00  0.00    +0.000 A 
ATOM      3  C   UNL     1      47.534   6.498  12.366  0.00  0.00    +0.000 A 
ATOM      4  N   UNL     1      47.958   6.051  13.568  0.00  0.00    +0.000 NA
ATOM      5  C   UNL     1      47.189   5.138  14.208  0.00  0.00    +0.000 A 
ATOM      6  C   UNL     1      45.992   4.685  13.655  0.00  0.00    +0.000 A 
ENDROOT
BRANCH   5   7
ATOM      7  C   UNL     1      47.658   4.695  15.526  0.00  0.00    +0.000 A 
ATOM      8  C   UNL     1      47.272   3.478  16.110  0.00  0.00    +0.000 A 
ATOM      9  C   UNL     1      47.710   3.131  17.385  0.00  0.00    +0.000 A 
ATOM     10  C   UNL     1      48.536   4.011  18.058  0.00  0.00    +0.000 A 
ATOM     11  N   UNL     1      48.949   5.186  17.543  0.00  0.00    +0.000 NA
ATOM     12  C   UNL     1      48.508   5.493  16.296  0.00  0.00    +0.000 A 
ENDBRANCH   5   7
BRANCH   1  13
ATOM     13  C   UNL     1      44.195   4.753  11.858  0.00  0.00    +0.000 C 
ATOM     14  C   UNL     1      42.936   5.098  12.658  0.00  0.00    +0.000 C 
ATOM     15  C   UNL     1      43.201   5.791  11.366  0.00  0.00    +0.000 C 
BRANCH  13  16
ATOM     16  O   UNL     1      44.152   3.410  11.318  0.00  0.00    +0.000 OA
BRANCH  16  21
ATOM     17 CL   UNL     1      46.752   3.186   6.199  0.00  0.00    +0.000 Cl
ATOM     18  C   UNL     1      45.852   3.184   7.654  0.00  0.00    +0.000 A 
ATOM     19  C   UNL     1      45.695   2.035   8.411  0.00  0.00    +0.000 A 
ATOM     20  N   UNL     1      45.061   2.034   9.611  0.00  0.00    +0.000 NA
ATOM     21  C   UNL     1      44.613   3.242  10.027  0.00  0.00    +0.000 A 
ATOM     22  C   UNL     1      44.740   4.382   9.243  0.00  0.00    +0.000 A 
ATOM     23  N   UNL     1      45.359   4.382   8.034  0.00  0.00    +0.000 NA
ENDBRANCH  16  21
ENDBRANCH  13  16
ENDBRANCH   1  13
TORSDOF 4
ENDMDL
MODEL 3
REMARK VINA RESULT:    -7.057      3.132      6.588
REMARK INTER + INTRA:          -9.341
REMARK INTER:                  -8.944
REMARK INTRA:                  -0.396
REMARK UNBOUND:                -0.633
REMARK  Name = 
REMARK  4 active torsions:
REMARK  status: ('A' for Active; 'I' for Inactive)
REMARK    1  A    between atoms: C_5  and  O_6
REMARK    2  A    between atoms: O_6  and  C_7
REMARK    3  A    between atoms: C_7  and  C_8
REMARK    4  A    between atoms: C_12  and  C_13
REMARK                            x       y       z     vdW  Elec       q    Type
REMARK                         _______ _______ _______ _____ _____    ______ ____
ROOT
ATOM      1  C   UNL     1      45.348   6.043  11.433  0.00  0.00    +0.000 A 
ATOM      2  C   UNL     1      43.958   5.995  11.551  0.00  0.00    +0.000 A 
ATOM      3  C   UNL     1      43.240   5.141  10.733  0.00  0.00    +0.000 A 
ATOM      4  N   UNL     1      43.804   4.336   9.806  0.00  0.00    +0.000 NA
ATOM      5  C   UNL     1      45.154   4.346   9.699  0.00  0.00    +0.000 A 
ATOM      6  C   UNL     1      45.937   5.170  10.506  0.00  0.00    +0.000 A 
ENDROOT
BRANCH   5   7
ATOM      7  C   UNL     1      45.735   3.485   8.662  0.00  0.00    +0.000 A 
ATOM      8  C   UNL     1      46.274   3.984   7.465  0.00  0.00    +0.000 A 
ATOM      9  C   UNL     1      46.768   3.117   6.494  0.00  0.00    +0.000 A 
ATOM     10  C   UNL     1      46.719   1.758   6.739  0.00  0.00    +0.000 A 
ATOM     11  N   UNL     1      46.225   1.224   7.874  0.00  0.00    +0.000 NA
ATOM     12  C   UNL     1      45.755   2.096   8.803  0.00  0.00    +0.000 A 
ENDBRANCH   5   7
BRANCH   1  13
ATOM     13  C   UNL     1      46.189   6.991  12.262  0.00  0.00    +0.000 C 
ATOM     14  C   UNL     1      46.328   8.432  11.764  0.00  0.00    +0.000 C 
ATOM     15  C   UNL     1      45.534   8.150  12.993  0.00  0.00    +0.000 C 
BRANCH  13  16
ATOM     16  O   UNL     1      47.442   6.455  12.750  0.00  0.00    +0.000 OA
BRANCH  16  21
ATOM     17 CL   UNL     1      47.686   3.221  17.494  0.00  0.00    +0.000 Cl
ATOM     18  C   UNL     1      47.532   4.291  16.167  0.00  0.00    +0.000 A 
ATOM     19  C   UNL     1      48.321   5.423  16.049  0.00  0.00    +0.000 A 
ATOM     20  N   UNL     1      48.275   6.233  14.962  0.00  0.00    +0.000 NA
ATOM     21  C   UNL     1      47.419   5.843  13.988  0.00  0.00    +0.000 A 
ATOM     22  C   UNL     1      46.603   4.727  14.132  0.00  0.00    +0.000 A 
ATOM     23  N   UNL     1      46.635   3.925  15.227  0.00  0.00    +0.000 NA
ENDBRANCH  16  21
ENDBRANCH  13  16
ENDBRANCH   1  13
TORSDOF 4
ENDMDL
MODEL 4
REMARK VINA RESULT:    -6.782      1.719      2.512
REMARK INTER + INTRA:          -9.000
REMARK INTER:                  -8.726
REMARK INTRA:                  -0.275
REMARK UNBOUND:                -0.633
REMARK  Name = 
REMARK  4 active torsions:
REMARK  status: ('A' for Active; 'I' for Inactive)
REMARK    1  A    between atoms: C_5  and  O_6
REMARK    2  A    between atoms: O_6  and  C_7
REMARK    3  A    between atoms: C_7  and  C_8
REMARK    4  A    between atoms: C_12  and  C_13
REMARK                            x       y       z     vdW  Elec       q    Type
REMARK                         _______ _______ _______ _____ _____    ______ ____
ROOT
ATOM      1  C   UNL     1      44.944   6.506  12.164  0.00  0.00    +0.000 A 
ATOM      2  C   UNL     1      44.618   7.766  11.661  0.00  0.00    +0.000 A 
ATOM      3  C   UNL     1      45.439   8.841  11.951  0.00  0.00    +0.000 A 
ATOM      4  N   UNL     1      46.556   8.754  12.705  0.00  0.00    +0.000 NA
ATOM      5  C   UNL     1      46.905   7.533  13.175  0.00  0.00    +0.000 A 
ATOM      6  C   UNL     1      46.132   6.405  12.905  0.00  0.00    +0.000 A 
ENDROOT
BRANCH   5   7
ATOM      7  C   UNL     1      48.105   7.474  14.018  0.00  0.00    +0.000 A 
ATOM      8  C   UNL     1      49.108   8.456  13.995  0.00  0.00    +0.000 A 
ATOM      9  C   UNL     1      50.249   8.325  14.782  0.00  0.00    +0.000 A 
ATOM     10  C   UNL     1      50.367   7.209  15.588  0.00  0.00    +0.000 A 
ATOM     11  N   UNL     1      49.431   6.241  15.661  0.00  0.00    +0.000 NA
ATOM     12  C   UNL     1      48.328   6.401  14.884  0.00  0.00    +0.000 A 
ENDBRANCH   5   7
BRANCH   1  13
ATOM     13  C   UNL     1      44.062   5.298  11.927  0.00  0.00    +0.000 C 
ATOM     14  C   UNL     1      42.900   5.069  12.898  0.00  0.00    +0.000 C 
ATOM     15  C   UNL     1      42.619   5.481  11.493  0.00  0.00    +0.000 C 
BRANCH  13  16
ATOM     16  O   UNL     1      44.756   4.069  11.602  0.00  0.00    +0.000 OA
BRANCH  16  21
ATOM     17 CL   UNL     1      46.414   3.100   6.186  0.00  0.00    +0.000 Cl
ATOM     18  C   UNL     1      45.770   3.379   7.747  0.00  0.00    +0.000 A 
ATOM     19  C   UNL     1      45.256   2.350   8.517  0.00  0.00    +0.000 A 
ATOM     20  N   UNL     1      44.824   2.537   9.789  0.00  0.00    +0.000 NA
ATOM     21  C   UNL     1      44.953   3.799  10.261  0.00  0.00    +0.000 A 
ATOM     22  C   UNL     1      45.433   4.835   9.468  0.00  0.00    +0.000 A 
ATOM     23  N   UNL     1      45.849   4.653   8.189  0.00  0.00    +0.000 NA
ENDBRANCH  16  21
ENDBRANCH  13  16
ENDBRANCH   1  13
TORSDOF 4
ENDMDL
MODEL 5
REMARK VINA RESULT:    -6.522      2.358      2.762
REMARK INTER + INTRA:          -8.680
REMARK INTER:                  -8.491
REMARK INTRA:                  -0.189
REMARK UNBOUND:                -0.633
REMARK  Name = 
REMARK  4 active torsions:
REMARK  status: ('A' for Active; 'I' for Inactive)
REMARK    1  A    between atoms: C_5  and  O_6
REMARK    2  A    between atoms: O_6  and  C_7
REMARK    3  A    between atoms: C_7  and  C_8
REMARK    4  A    between atoms: C_12  and  C_13
REMARK                            x       y       z     vdW  Elec       q    Type
REMARK                         _______ _______ _______ _____ _____    ______ ____
ROOT
ATOM      1  C   UNL     1      45.388   5.785  12.698  0.00  0.00    +0.000 A 
ATOM      2  C   UNL     1      46.509   5.339  13.400  0.00  0.00    +0.000 A 
ATOM      3  C   UNL     1      47.505   6.243  13.725  0.00  0.00    +0.000 A 
ATOM      4  N   UNL     1      47.467   7.553  13.401  0.00  0.00    +0.000 NA
ATOM      5  C   UNL     1      46.372   8.010  12.749  0.00  0.00    +0.000 A 
ATOM      6  C   UNL     1      45.325   7.156  12.407  0.00  0.00    +0.000 A 
ENDROOT
BRANCH   5   7
ATOM      7  C   UNL     1      46.374   9.431  12.381  0.00  0.00    +0.000 A 
ATOM      8  C   UNL     1      45.227  10.114  11.948  0.00  0.00    +0.000 A 
ATOM      9  C   UNL     1      45.297  11.450  11.565  0.00  0.00    +0.000 A 
ATOM     10  C   UNL     1      46.522  12.088  11.628  0.00  0.00    +0.000 A 
ATOM     11  N   UNL     1      47.653  11.487  12.047  0.00  0.00    +0.000 NA
ATOM     12  C   UNL     1      47.550  10.185  12.417  0.00  0.00    +0.000 A 
ENDBRANCH   5   7
BRANCH   1  13
ATOM     13  C   UNL     1      44.286   4.840  12.268  0.00  0.00    +0.000 C 
ATOM     14  C   UNL     1      43.066   4.713  13.183  0.00  0.00    +0.000 C 
ATOM     15  C   UNL     1      42.929   5.386  11.861  0.00  0.00    +0.000 C 
BRANCH  13  16
ATOM     16  O   UNL     1      44.723   3.558  11.754  0.00  0.00    +0.000 OA
BRANCH  16  21
ATOM     17 CL   UNL     1      46.280   3.267   6.230  0.00  0.00    +0.000 Cl
ATOM     18  C   UNL     1      45.665   3.352   7.825  0.00  0.00    +0.000 A 
ATOM     19  C   UNL     1      45.150   2.239   8.468  0.00  0.00    +0.000 A 
ATOM     20  N   UNL     1      44.741   2.269   9.761  0.00  0.00    +0.000 NA
ATOM     21  C   UNL     1      44.894   3.459  10.387  0.00  0.00    +0.000 A 
ATOM     22  C   UNL     1      45.375   4.581   9.723  0.00  0.00    +0.000 A 
ATOM     23  N   UNL     1      45.769   4.558   8.423  0.00  0.00    +0.000 NA
ENDBRANCH  16  21
ENDBRANCH  13  16
ENDBRANCH   1  13
TORSDOF 4
ENDMDL
MODEL 6
REMARK VINA RESULT:    -6.450      3.810      6.753
REMARK INTER + INTRA:          -8.591
REMARK INTER:                  -8.232
REMARK INTRA:                  -0.359
REMARK UNBOUND:                -0.633
REMARK  Name = 
REMARK  4 active torsions:
REMARK  status: ('A' for Active; 'I' for Inactive)
REMARK    1  A    between atoms: C_5  and  O_6
REMARK    2  A    between atoms: O_6  and  C_7
REMARK    3  A    between atoms: C_7  and  C_8
REMARK    4  A    between atoms: C_12  and  C_13
REMARK                            x       y       z     vdW  Elec       q    Type
REMARK                         _______ _______ _______ _____ _____    ______ ____
ROOT
ATOM      1  C   UNL     1      45.068   6.483  11.646  0.00  0.00    +0.000 A 
ATOM      2  C   UNL     1      43.721   6.261  11.937  0.00  0.00    +0.000 A 
ATOM      3  C   UNL     1      43.048   5.243  11.284  0.00  0.00    +0.000 A 
ATOM      4  N   UNL     1      43.617   4.434  10.365  0.00  0.00    +0.000 NA
ATOM      5  C   UNL     1      44.931   4.613  10.094  0.00  0.00    +0.000 A 
ATOM      6  C   UNL     1      45.672   5.609  10.728  0.00  0.00    +0.000 A 
ENDROOT
BRANCH   5   7
ATOM      7  C   UNL     1      45.513   3.740   9.067  0.00  0.00    +0.000 A 
ATOM      8  C   UNL     1      46.127   4.229   7.903  0.00  0.00    +0.000 A 
ATOM      9  C   UNL     1      46.619   3.353   6.939  0.00  0.00    +0.000 A 
ATOM     10  C   UNL     1      46.492   1.994   7.158  0.00  0.00    +0.000 A 
ATOM     11  N   UNL     1      45.923   1.469   8.262  0.00  0.00    +0.000 NA
ATOM     12  C   UNL     1      45.458   2.349   9.185  0.00  0.00    +0.000 A 
ENDBRANCH   5   7
BRANCH   1  13
ATOM     13  C   UNL     1      45.849   7.611  12.285  0.00  0.00    +0.000 C 
ATOM     14  C   UNL     1      46.940   7.233  13.292  0.00  0.00    +0.000 C 
ATOM     15  C   UNL     1      47.322   7.795  11.966  0.00  0.00    +0.000 C 
BRANCH  13  16
ATOM     16  O   UNL     1      45.066   8.747  12.725  0.00  0.00    +0.000 OA
BRANCH  16  21
ATOM     17 CL   UNL     1      44.918  12.668   8.526  0.00  0.00    +0.000 Cl
ATOM     18  C   UNL     1      44.836  11.573   9.839  0.00  0.00    +0.000 A 
ATOM     19  C   UNL     1      43.899  10.555   9.880  0.00  0.00    +0.000 A 
ATOM     20  N   UNL     1      43.875   9.625  10.868  0.00  0.00    +0.000 NA
ATOM     21  C   UNL     1      44.849   9.750  11.800  0.00  0.00    +0.000 A 
ATOM     22  C   UNL     1      45.761  10.799  11.773  0.00  0.00    +0.000 A 
ATOM     23  N   UNL     1      45.775  11.740  10.794  0.00  0.00    +0.000 NA
ENDBRANCH  16  21
ENDBRANCH  13  16
ENDBRANCH   1  13
TORSDOF 4
ENDMDL
MODEL 7
REMARK VINA RESULT:    -6.396      3.440      6.864
REMARK INTER + INTRA:          -8.525
REMARK INTER:                  -8.445
REMARK INTRA:                  -0.080
REMARK UNBOUND:                -0.633
REMARK  Name = 
REMARK  4 active torsions:
REMARK  status: ('A' for Active; 'I' for Inactive)
REMARK    1  A    between atoms: C_5  and  O_6
REMARK    2  A    between atoms: O_6  and  C_7
REMARK    3  A    between atoms: C_7  and  C_8
REMARK    4  A    between atoms: C_12  and  C_13
REMARK                            x       y       z     vdW  Elec       q    Type
REMARK                         _______ _______ _______ _____ _____    ______ ____
ROOT
ATOM      1  C   UNL     1      46.648   7.401  12.556  0.00  0.00    +0.000 A 
ATOM      2  C   UNL     1      45.664   8.387  12.465  0.00  0.00    +0.000 A 
ATOM      3  C   UNL     1      44.566   8.170  11.651  0.00  0.00    +0.000 A 
ATOM      4  N   UNL     1      44.378   7.049  10.923  0.00  0.00    +0.000 NA
ATOM      5  C   UNL     1      45.306   6.068  11.024  0.00  0.00    +0.000 A 
ATOM      6  C   UNL     1      46.428   6.215  11.839  0.00  0.00    +0.000 A 
ENDROOT
BRANCH   5   7
ATOM      7  C   UNL     1      45.092   4.875  10.196  0.00  0.00    +0.000 A 
ATOM      8  C   UNL     1      45.613   4.737   8.900  0.00  0.00    +0.000 A 
ATOM      9  C   UNL     1      45.337   3.603   8.141  0.00  0.00    +0.000 A 
ATOM     10  C   UNL     1      44.543   2.618   8.696  0.00  0.00    +0.000 A 
ATOM     11  N   UNL     1      44.026   2.691   9.939  0.00  0.00    +0.000 NA
ATOM     12  C   UNL     1      44.318   3.807  10.655  0.00  0.00    +0.000 A 
ENDBRANCH   5   7
BRANCH   1  13
ATOM     13  C   UNL     1      47.899   7.594  13.387  0.00  0.00    +0.000 C 
ATOM     14  C   UNL     1      48.822   8.759  13.015  0.00  0.00    +0.000 C 
ATOM     15  C   UNL     1      48.038   8.813  14.282  0.00  0.00    +0.000 C 
BRANCH  13  16
ATOM     16  O   UNL     1      48.636   6.388  13.702  0.00  0.00    +0.000 OA
BRANCH  16  21
ATOM     17 CL   UNL     1      47.194   2.688  17.855  0.00  0.00    +0.000 Cl
ATOM     18  C   UNL     1      47.538   3.899  16.696  0.00  0.00    +0.000 A 
ATOM     19  C   UNL     1      48.478   4.887  16.934  0.00  0.00    +0.000 A 
ATOM     20  N   UNL     1      48.828   5.802  15.994  0.00  0.00    +0.000 NA
ATOM     21  C   UNL     1      48.208   5.664  14.799  0.00  0.00    +0.000 A 
ATOM     22  C   UNL     1      47.237   4.694  14.581  0.00  0.00    +0.000 A 
ATOM     23  N   UNL     1      46.873   3.790  15.526  0.00  0.00    +0.000 NA
ENDBRANCH  16  21
ENDBRANCH  13  16
ENDBRANCH   1  13
TORSDOF 4
ENDMDL
MODEL 8
REMARK VINA RESULT:    -5.943      4.232      7.750
REMARK INTER + INTRA:          -7.965
REMARK INTER:                  -7.381
REMARK INTRA:                  -0.584
REMARK UNBOUND:                -0.633
REMARK  Name = 
REMARK  4 active torsions:
REMARK  status: ('A' for Active; 'I' for Inactive)
REMARK    1  A    between atoms: C_5  and  O_6
REMARK    2  A    between atoms: O_6  and  C_7
REMARK    3  A    between atoms: C_7  and  C_8
REMARK    4  A    between atoms: C_12  and  C_13
REMARK                            x       y       z     vdW  Elec       q    Type
REMARK                         _______ _______ _______ _____ _____    ______ ____
ROOT
ATOM      1  C   UNL     1      47.685   7.591  13.402  0.00  0.00    +0.000 A 
ATOM      2  C   UNL     1      46.948   8.776  13.350  0.00  0.00    +0.000 A 
ATOM      3  C   UNL     1      45.638   8.737  12.907  0.00  0.00    +0.000 A 
ATOM      4  N   UNL     1      45.010   7.609  12.511  0.00  0.00    +0.000 NA
ATOM      5  C   UNL     1      45.699   6.445  12.586  0.00  0.00    +0.000 A 
ATOM      6  C   UNL     1      47.016   6.411  13.039  0.00  0.00    +0.000 A 
ENDROOT
BRANCH   5   7
ATOM      7  C   UNL     1      45.001   5.241  12.118  0.00  0.00    +0.000 A 
ATOM      8  C   UNL     1      44.730   4.989  10.764  0.00  0.00    +0.000 A 
ATOM      9  C   UNL     1      44.021   3.853  10.381  0.00  0.00    +0.000 A 
ATOM     10  C   UNL     1      43.598   2.980  11.366  0.00  0.00    +0.000 A 
ATOM     11  N   UNL     1      43.841   3.164  12.679  0.00  0.00    +0.000 NA
ATOM     12  C   UNL     1      44.537   4.279  13.018  0.00  0.00    +0.000 A 
ENDBRANCH   5   7
BRANCH   1  13
ATOM     13  C   UNL     1      49.137   7.570  13.828  0.00  0.00    +0.000 C 
ATOM     14  C   UNL     1      50.196   7.756  12.738  0.00  0.00    +0.000 C 
ATOM     15  C   UNL     1      49.975   8.834  13.743  0.00  0.00    +0.000 C 
BRANCH  13  16
ATOM     16  O   UNL     1      49.499   6.535  14.775  0.00  0.00    +0.000 OA
BRANCH  16  21
ATOM     17 CL   UNL     1      47.476   6.096  20.135  0.00  0.00    +0.000 Cl
ATOM     18  C   UNL     1      47.946   6.308  18.504  0.00  0.00    +0.000 A 
ATOM     19  C   UNL     1      48.457   7.510  18.044  0.00  0.00    +0.000 A 
ATOM     20  N   UNL     1      48.917   7.670  16.777  0.00  0.00    +0.000 NA
ATOM     21  C   UNL     1      48.863   6.562  16.001  0.00  0.00    +0.000 A 
ATOM     22  C   UNL     1      48.312   5.371  16.458  0.00  0.00    +0.000 A 
ATOM     23  N   UNL     1      47.835   5.214  17.720  0.00  0.00    +0.000 NA
ENDBRANCH  16  21
ENDBRANCH  13  16
ENDBRANCH   1  13
TORSDOF 4
ENDMDL
MODEL 9
REMARK VINA RESULT:    -5.424      3.219      5.430
REMARK INTER + INTRA:          -7.325
REMARK INTER:                  -6.986
REMARK INTRA:                  -0.339
REMARK UNBOUND:                -0.633
REMARK  Name = 
REMARK  4 active torsions:
REMARK  status: ('A' for Active; 'I' for Inactive)
REMARK    1  A    between atoms: C_5  and  O_6
REMARK    2  A    between atoms: O_6  and  C_7
REMARK    3  A    between atoms: C_7  and  C_8
REMARK    4  A    between atoms: C_12  and  C_13
REMARK                            x       y       z     vdW  Elec       q    Type
REMARK                         _______ _______ _______ _____ _____    ______ ____
ROOT
ATOM      1  C   UNL     1      48.120   7.884  14.079  0.00  0.00    +0.000 A 
ATOM      2  C   UNL     1      48.148   9.002  14.915  0.00  0.00    +0.000 A 
ATOM      3  C   UNL     1      48.457   8.836  16.253  0.00  0.00    +0.000 A 
ATOM      4  N   UNL     1      48.739   7.642  16.818  0.00  0.00    +0.000 NA
ATOM      5  C   UNL     1      48.748   6.551  16.016  0.00  0.00    +0.000 A 
ATOM      6  C   UNL     1      48.462   6.651  14.655  0.00  0.00    +0.000 A 
ENDROOT
BRANCH   5   7
ATOM      7  C   UNL     1      49.025   5.263  16.664  0.00  0.00    +0.000 A 
ATOM      8  C   UNL     1      50.239   4.973  17.307  0.00  0.00    +0.000 A 
ATOM      9  C   UNL     1      50.465   3.717  17.864  0.00  0.00    +0.000 A 
ATOM     10  C   UNL     1      49.465   2.768  17.772  0.00  0.00    +0.000 A 
ATOM     11  N   UNL     1      48.276   2.994  17.178  0.00  0.00    +0.000 NA
ATOM     12  C   UNL     1      48.085   4.230  16.650  0.00  0.00    +0.000 A 
ENDBRANCH   5   7
BRANCH   1  13
ATOM     13  C   UNL     1      47.739   7.987  12.617  0.00  0.00    +0.000 C 
ATOM     14  C   UNL     1      48.421   9.077  11.785  0.00  0.00    +0.000 C 
ATOM     15  C   UNL     1      48.753   7.645  11.540  0.00  0.00    +0.000 C 
BRANCH  13  16
ATOM     16  O   UNL     1      46.324   7.879  12.327  0.00  0.00    +0.000 OA
BRANCH  16  21
ATOM     17 CL   UNL     1      43.540   2.953  11.326  0.00  0.00    +0.000 Cl
ATOM     18  C   UNL     1      44.504   4.340  11.602  0.00  0.00    +0.000 A 
ATOM     19  C   UNL     1      45.096   5.035  10.561  0.00  0.00    +0.000 A 
ATOM     20  N   UNL     1      45.789   6.185  10.753  0.00  0.00    +0.000 NA
ATOM     21  C   UNL     1      45.842   6.618  12.034  0.00  0.00    +0.000 A 
ATOM     22  C   UNL     1      45.280   5.894  13.079  0.00  0.00    +0.000 A 
ATOM     23  N   UNL     1      44.601   4.733  12.890  0.00  0.00    +0.000 NA
ENDBRANCH  16  21
ENDBRANCH  13  16
ENDBRANCH   1  13
TORSDOF 4
ENDMDL
