MODEL 1
REMARK VINA RESULT:    -7.918      0.000      0.000
REMARK INTER + INTRA:         -13.414
REMARK INTER:                 -12.084
REMARK INTRA:                  -1.330
REMARK UNBOUND:                -1.330
REMARK  Name = 
REMARK  9 active torsions:
REMARK  status: ('A' for Active; 'I' for Inactive)
REMARK    1  A    between atoms: C_2  and  C_3
REMARK    2  A    between atoms: C_3  and  N_4
REMARK    3  A    between atoms: C_3  and  C_21
REMARK    4  A    between atoms: N_4  and  C_5
REMARK    5  A    between atoms: C_5  and  C_6
REMARK    6  A    between atoms: C_9  and  C_10
REMARK    7  A    between atoms: C_10  and  N_11
REMARK    8  A    between atoms: N_11  and  C_12
REMARK    9  A    between atoms: C_12  and  C_13
REMARK                            x       y       z     vdW  Elec       q    Type
REMARK                         _______ _______ _______ _____ _____    ______ ____
ROOT
ATOM      1  C   UNL     1      46.034   8.109  12.795  0.00  0.00    +0.000 C 
ENDROOT
BRANCH   1   2
ATOM      2  C   UNL     1      45.505   6.784  12.289  0.00  0.00    +0.000 A 
ATOM      3  C   UNL     1      44.498   6.137  13.003  0.00  0.00    +0.000 A 
ATOM      4  C   UNL     1      43.904   4.979  12.510  0.00  0.00    +0.000 A 
ATOM      5  C   UNL     1      44.305   4.450  11.276  0.00  0.00    +0.000 A 
ATOM      6  C   UNL     1      45.316   5.092  10.555  0.00  0.00    +0.000 A 
ATOM      7  C   UNL     1      45.919   6.247  11.058  0.00  0.00    +0.000 A 
BRANCH   5   8
ATOM      8  C   UNL     1      43.660   3.216  10.696  0.00  0.00    +0.000 C 
BRANCH   8   9
ATOM      9  N   UNL     1      44.021   2.956   9.304  0.00  0.00    +0.000 NA
ATOM     10  H   UNL     1      44.529   3.760   8.933  0.00  0.00    +0.000 HD
BRANCH   9  11
ATOM     11  C   UNL     1      44.897   1.791   9.152  0.00  0.00    +0.000 C 
BRANCH  11  12
ATOM     12  C   UNL     1      45.947   2.042   8.092  0.00  0.00    +0.000 A 
ATOM     13  C   UNL     1      46.817   1.024   7.718  0.00  0.00    +0.000 A 
ATOM     14  N   UNL     1      47.775   1.184   6.772  0.00  0.00    +0.000 NA
ATOM     15  C   UNL     1      47.808   2.404   6.192  0.00  0.00    +0.000 A 
ATOM     16  C   UNL     1      46.938   3.422   6.542  0.00  0.00    +0.000 A 
ATOM     17  N   UNL     1      45.992   3.267   7.498  0.00  0.00    +0.000 NA
ENDBRANCH  11  12
ENDBRANCH   9  11
ENDBRANCH   8   9
ENDBRANCH   5   8
ENDBRANCH   1   2
BRANCH   1  18
ATOM     18  N   UNL     1      46.950   7.971  13.926  0.00  0.00    +0.000 NA
ATOM     19  H   UNL     1      46.411   7.770  14.765  0.00  0.00    +0.000 HD
BRANCH  18  20
ATOM     20  C   UNL     1      47.922   6.878  13.753  0.00  0.00    +0.000 C 
BRANCH  20  21
ATOM     21  C   UNL     1      48.442   6.571  15.141  0.00  0.00    +0.000 A 
ATOM     22  C   UNL     1      49.275   7.407  15.875  0.00  0.00    +0.000 A 
ATOM     23  S   UNL     1      49.667   6.787  17.417  0.00  0.00    +0.000 S 
ATOM     24  C   UNL     1      48.717   5.396  17.162  0.00  0.00    +0.000 A 
ATOM     25  N   UNL     1      48.604   4.436  18.117  0.00  0.00    +0.000 NA
ATOM     26  C   UNL     1      47.835   3.450  17.788  0.00  0.00    +0.000 A 
ATOM     27  N   UNL     1      47.170   3.336  16.593  0.00  0.00    +0.000 N 
ATOM     28  C   UNL     1      47.255   4.278  15.591  0.00  0.00    +0.000 A 
ATOM     29  O   UNL     1      46.645   4.150  14.543  0.00  0.00    +0.000 OA
ATOM     30  C   UNL     1      48.113   5.404  15.921  0.00  0.00    +0.000 A 
ATOM     31  H   UNL     1      46.584   2.539  16.401  0.00  0.00    +0.000 HD
ENDBRANCH  20  21
BRANCH  20  33
ATOM     32  C   UNL     1      49.945   7.554  12.123  0.00  0.00    +0.000 C 
ATOM     33  C   UNL     1      49.049   7.219  12.863  0.00  0.00    +0.000 C 
ENDBRANCH  20  33
ENDBRANCH  18  20
ENDBRANCH   1  18
TORSDOF 9
ENDMDL
MODEL 2
REMARK VINA RESULT:    -7.182      1.771      2.421
REMARK INTER + INTRA:         -12.291
REMARK INTER:                 -11.173
REMARK INTRA:                  -1.118
REMARK UNBOUND:                -1.330
REMARK  Name = 
REMARK  9 active torsions:
REMARK  status: ('A' for Active; 'I' for Inactive)
REMARK    1  A    between atoms: C_2  and  C_3
REMARK    2  A    between atoms: C_3  and  N_4
REMARK    3  A    between atoms: C_3  and  C_21
REMARK    4  A    between atoms: N_4  and  C_5
REMARK    5  A    between atoms: C_5  and  C_6
REMARK    6  A    between atoms: C_9  and  C_10
REMARK    7  A    between atoms: C_10  and  N_11
REMARK    8  A    between atoms: N_11  and  C_12
REMARK    9  A    between atoms: C_12  and  C_13
REMARK                            x       y       z     vdW  Elec       q    Type
REMARK                         _______ _______ _______ _____ _____    ______ ____
ROOT
ATOM      1  C   UNL     1      48.259   6.341  13.554  0.00  0.00    +0.000 C 
ENDROOT
BRANCH   1   2
ATOM      2  C   UNL     1      46.981   5.942  12.848  0.00  0.00    +0.000 A 
ATOM      3  C   UNL     1      46.725   6.442  11.572  0.00  0.00    +0.000 A 
ATOM      4  C   UNL     1      45.622   6.010  10.844  0.00  0.00    +0.000 A 
ATOM      5  C   UNL     1      44.753   5.050  11.381  0.00  0.00    +0.000 A 
ATOM      6  C   UNL     1      45.002   4.546  12.660  0.00  0.00    +0.000 A 
ATOM      7  C   UNL     1      46.103   4.991  13.394  0.00  0.00    +0.000 A 
BRANCH   5   8
ATOM      8  C   UNL     1      43.567   4.534  10.605  0.00  0.00    +0.000 C 
BRANCH   8   9
ATOM      9  N   UNL     1      43.918   3.908   9.332  0.00  0.00    +0.000 NA
ATOM     10  H   UNL     1      44.605   4.488   8.850  0.00  0.00    +0.000 HD
BRANCH   9  11
ATOM     11  C   UNL     1      44.520   2.581   9.496  0.00  0.00    +0.000 C 
BRANCH  11  12
ATOM     12  C   UNL     1      45.616   2.359   8.479  0.00  0.00    +0.000 A 
ATOM     13  C   UNL     1      46.116   3.431   7.747  0.00  0.00    +0.000 A 
ATOM     14  N   UNL     1      47.100   3.298   6.825  0.00  0.00    +0.000 NA
ATOM     15  C   UNL     1      47.588   2.046   6.684  0.00  0.00    +0.000 A 
ATOM     16  C   UNL     1      47.112   0.972   7.416  0.00  0.00    +0.000 A 
ATOM     17  N   UNL     1      46.117   1.102   8.325  0.00  0.00    +0.000 NA
ENDBRANCH  11  12
ENDBRANCH   9  11
ENDBRANCH   8   9
ENDBRANCH   5   8
ENDBRANCH   1   2
BRANCH   1  18
ATOM     18  N   UNL     1      48.168   6.250  15.010  0.00  0.00    +0.000 NA
ATOM     19  H   UNL     1      48.240   5.274  15.286  0.00  0.00    +0.000 HD
BRANCH  18  20
ATOM     20  C   UNL     1      49.239   6.987  15.703  0.00  0.00    +0.000 C 
BRANCH  20  21
ATOM     21  C   UNL     1      48.803   7.071  17.151  0.00  0.00    +0.000 A 
ATOM     22  C   UNL     1      48.231   8.192  17.740  0.00  0.00    +0.000 A 
ATOM     23  S   UNL     1      47.830   7.963  19.383  0.00  0.00    +0.000 S 
ATOM     24  C   UNL     1      48.384   6.353  19.352  0.00  0.00    +0.000 A 
ATOM     25  N   UNL     1      48.316   5.564  20.458  0.00  0.00    +0.000 NA
ATOM     26  C   UNL     1      48.756   4.362  20.277  0.00  0.00    +0.000 A 
ATOM     27  N   UNL     1      49.258   3.876  19.095  0.00  0.00    +0.000 N 
ATOM     28  C   UNL     1      49.351   4.636  17.949  0.00  0.00    +0.000 A 
ATOM     29  O   UNL     1      49.796   4.172  16.913  0.00  0.00    +0.000 OA
ATOM     30  C   UNL     1      48.868   5.997  18.110  0.00  0.00    +0.000 A 
ATOM     31  H   UNL     1      49.584   2.926  19.022  0.00  0.00    +0.000 HD
ENDBRANCH  20  21
BRANCH  20  33
ATOM     32  C   UNL     1      49.676   9.474  14.795  0.00  0.00    +0.000 C 
ATOM     33  C   UNL     1      49.468   8.344  15.172  0.00  0.00    +0.000 C 
ENDBRANCH  20  33
ENDBRANCH  18  20
ENDBRANCH   1  18
TORSDOF 9
ENDMDL
MODEL 3
REMARK VINA RESULT:    -7.169      2.291      3.326
REMARK INTER + INTRA:         -12.271
REMARK INTER:                 -11.652
REMARK INTRA:                  -0.619
REMARK UNBOUND:                -1.330
REMARK  Name = 
REMARK  9 active torsions:
REMARK  status: ('A' for Active; 'I' for Inactive)
REMARK    1  A    between atoms: C_2  and  C_3
REMARK    2  A    between atoms: C_3  and  N_4
REMARK    3  A    between atoms: C_3  and  C_21
REMARK    4  A    between atoms: N_4  and  C_5
REMARK    5  A    between atoms: C_5  and  C_6
REMARK    6  A    between atoms: C_9  and  C_10
REMARK    7  A    between atoms: C_10  and  N_11
REMARK    8  A    between atoms: N_11  and  C_12
REMARK    9  A    between atoms: C_12  and  C_13
REMARK                            x       y       z     vdW  Elec       q    Type
REMARK                         _______ _______ _______ _____ _____    ______ ____
ROOT
ATOM      1  C   UNL     1      48.576   6.658  14.749  0.00  0.00    +0.000 C 
ENDROOT
BRANCH   1   2
ATOM      2  C   UNL     1      47.494   6.284  13.760  0.00  0.00    +0.000 A 
ATOM      3  C   UNL     1      47.377   7.007  12.574  0.00  0.00    +0.000 A 
ATOM      4  C   UNL     1      46.473   6.622  11.589  0.00  0.00    +0.000 A 
ATOM      5  C   UNL     1      45.670   5.488  11.771  0.00  0.00    +0.000 A 
ATOM      6  C   UNL     1      45.780   4.759  12.959  0.00  0.00    +0.000 A 
ATOM      7  C   UNL     1      46.678   5.155  13.951  0.00  0.00    +0.000 A 
BRANCH   5   8
ATOM      8  C   UNL     1      44.705   5.022  10.710  0.00  0.00    +0.000 C 
BRANCH   8   9
ATOM      9  N   UNL     1      45.255   5.046   9.356  0.00  0.00    +0.000 NA
ATOM     10  H   UNL     1      46.251   4.827   9.394  0.00  0.00    +0.000 HD
BRANCH   9  11
ATOM     11  C   UNL     1      44.633   4.054   8.472  0.00  0.00    +0.000 C 
BRANCH  11  12
ATOM     12  C   UNL     1      45.650   3.033   8.013  0.00  0.00    +0.000 A 
ATOM     13  C   UNL     1      45.596   1.730   8.496  0.00  0.00    +0.000 A 
ATOM     14  N   UNL     1      46.474   0.768   8.120  0.00  0.00    +0.000 NA
ATOM     15  C   UNL     1      47.396   1.157   7.213  0.00  0.00    +0.000 A 
ATOM     16  C   UNL     1      47.452   2.446   6.711  0.00  0.00    +0.000 A 
ATOM     17  N   UNL     1      46.586   3.411   7.099  0.00  0.00    +0.000 NA
ENDBRANCH  11  12
ENDBRANCH   9  11
ENDBRANCH   8   9
ENDBRANCH   5   8
ENDBRANCH   1   2
BRANCH   1  18
ATOM     18  N   UNL     1      48.922   5.574  15.666  0.00  0.00    +0.000 NA
ATOM     19  H   UNL     1      49.754   5.102  15.321  0.00  0.00    +0.000 HD
BRANCH  18  20
ATOM     20  C   UNL     1      49.212   6.042  17.032  0.00  0.00    +0.000 C 
BRANCH  20  21
ATOM     21  C   UNL     1      50.488   5.337  17.442  0.00  0.00    +0.000 A 
ATOM     22  C   UNL     1      51.609   5.972  17.965  0.00  0.00    +0.000 A 
ATOM     23  S   UNL     1      52.878   4.897  18.348  0.00  0.00    +0.000 S 
ATOM     24  C   UNL     1      51.962   3.550  17.852  0.00  0.00    +0.000 A 
ATOM     25  N   UNL     1      52.466   2.289  17.931  0.00  0.00    +0.000 NA
ATOM     26  C   UNL     1      51.649   1.368  17.536  0.00  0.00    +0.000 A 
ATOM     27  N   UNL     1      50.377   1.590  17.071  0.00  0.00    +0.000 N 
ATOM     28  C   UNL     1      49.823   2.848  16.968  0.00  0.00    +0.000 A 
ATOM     29  O   UNL     1      48.687   3.010  16.556  0.00  0.00    +0.000 OA
ATOM     30  C   UNL     1      50.710   3.914  17.400  0.00  0.00    +0.000 A 
ATOM     31  H   UNL     1      49.791   0.824  16.780  0.00  0.00    +0.000 HD
ENDBRANCH  20  21
BRANCH  20  33
ATOM     32  C   UNL     1      47.280   5.437  18.794  0.00  0.00    +0.000 C 
ATOM     33  C   UNL     1      48.144   5.743  18.004  0.00  0.00    +0.000 C 
ENDBRANCH  20  33
ENDBRANCH  18  20
ENDBRANCH   1  18
TORSDOF 9
ENDMDL
MODEL 4
REMARK VINA RESULT:    -6.914      3.028      5.033
REMARK INTER + INTRA:         -11.882
REMARK INTER:                 -10.161
REMARK INTRA:                  -1.721
REMARK UNBOUND:                -1.330
REMARK  Name = 
REMARK  9 active torsions:
REMARK  status: ('A' for Active; 'I' for Inactive)
REMARK    1  A    between atoms: C_2  and  C_3
REMARK    2  A    between atoms: C_3  and  N_4
REMARK    3  A    between atoms: C_3  and  C_21
REMARK    4  A    between atoms: N_4  and  C_5
REMARK    5  A    between atoms: C_5  and  C_6
REMARK    6  A    between atoms: C_9  and  C_10
REMARK    7  A    between atoms: C_10  and  N_11
REMARK    8  A    between atoms: N_11  and  C_12
REMARK    9  A    between atoms: C_12  and  C_13
REMARK                            x       y       z     vdW  Elec       q    Type
REMARK                         _______ _______ _______ _____ _____    ______ ____
ROOT
ATOM      1  C   UNL     1      48.487   6.518  13.353  0.00  0.00    +0.000 C 
ENDROOT
BRANCH   1   2
ATOM      2  C   UNL     1      47.164   6.193  12.694  0.00  0.00    +0.000 A 
ATOM      3  C   UNL     1      46.971   6.527  11.355  0.00  0.00    +0.000 A 
ATOM      4  C   UNL     1      45.816   6.143  10.681  0.00  0.00    +0.000 A 
ATOM      5  C   UNL     1      44.828   5.401  11.342  0.00  0.00    +0.000 A 
ATOM      6  C   UNL     1      45.012   5.064  12.686  0.00  0.00    +0.000 A 
ATOM      7  C   UNL     1      46.167   5.462  13.362  0.00  0.00    +0.000 A 
BRANCH   5   8
ATOM      8  C   UNL     1      43.579   4.938  10.634  0.00  0.00    +0.000 C 
BRANCH   8   9
ATOM      9  N   UNL     1      43.834   4.239   9.375  0.00  0.00    +0.000 NA
ATOM     10  H   UNL     1      44.532   4.757   8.840  0.00  0.00    +0.000 HD
BRANCH   9  11
ATOM     11  C   UNL     1      44.364   2.887   9.573  0.00  0.00    +0.000 C 
BRANCH  11  12
ATOM     12  C   UNL     1      45.465   2.590   8.578  0.00  0.00    +0.000 A 
ATOM     13  C   UNL     1      46.006   3.617   7.812  0.00  0.00    +0.000 A 
ATOM     14  N   UNL     1      46.995   3.417   6.908  0.00  0.00    +0.000 NA
ATOM     15  C   UNL     1      47.445   2.146   6.821  0.00  0.00    +0.000 A 
ATOM     16  C   UNL     1      46.927   1.117   7.589  0.00  0.00    +0.000 A 
ATOM     17  N   UNL     1      45.927   1.313   8.480  0.00  0.00    +0.000 NA
ENDBRANCH  11  12
ENDBRANCH   9  11
ENDBRANCH   8   9
ENDBRANCH   5   8
ENDBRANCH   1   2
BRANCH   1  18
ATOM     18  N   UNL     1      48.929   7.890  13.116  0.00  0.00    +0.000 NA
ATOM     19  H   UNL     1      48.969   8.057  12.114  0.00  0.00    +0.000 HD
BRANCH  18  20
ATOM     20  C   UNL     1      48.024   8.897  13.696  0.00  0.00    +0.000 C 
BRANCH  20  21
ATOM     21  C   UNL     1      47.912   9.992  12.656  0.00  0.00    +0.000 A 
ATOM     22  C   UNL     1      48.981  10.743  12.182  0.00  0.00    +0.000 A 
ATOM     23  S   UNL     1      48.533  11.885  10.996  0.00  0.00    +0.000 S 
ATOM     24  C   UNL     1      46.903  11.396  11.060  0.00  0.00    +0.000 A 
ATOM     25  N   UNL     1      45.962  11.976  10.269  0.00  0.00    +0.000 NA
ATOM     26  C   UNL     1      44.773  11.488  10.415  0.00  0.00    +0.000 A 
ATOM     27  N   UNL     1      44.440  10.475  11.279  0.00  0.00    +0.000 N 
ATOM     28  C   UNL     1      45.354   9.858  12.105  0.00  0.00    +0.000 A 
ATOM     29  O   UNL     1      45.025   8.956  12.856  0.00  0.00    +0.000 OA
ATOM     30  C   UNL     1      46.704  10.380  11.973  0.00  0.00    +0.000 A 
ATOM     31  H   UNL     1      43.491  10.140  11.342  0.00  0.00    +0.000 HD
ENDBRANCH  20  21
BRANCH  20  33
ATOM     32  C   UNL     1      48.859   9.894  16.044  0.00  0.00    +0.000 C 
ATOM     33  C   UNL     1      48.504   9.466  14.970  0.00  0.00    +0.000 C 
ENDBRANCH  20  33
ENDBRANCH  18  20
ENDBRANCH   1  18
TORSDOF 9
ENDMDL
MODEL 5
REMARK VINA RESULT:    -6.507      2.468      3.213
REMARK INTER + INTRA:         -11.261
REMARK INTER:                 -10.358
REMARK INTRA:                  -0.903
REMARK UNBOUND:                -1.330
REMARK  Name = 
REMARK  9 active torsions:
REMARK  status: ('A' for Active; 'I' for Inactive)
REMARK    1  A    between atoms: C_2  and  C_3
REMARK    2  A    between atoms: C_3  and  N_4
REMARK    3  A    between atoms: C_3  and  C_21
REMARK    4  A    between atoms: N_4  and  C_5
REMARK    5  A    between atoms: C_5  and  C_6
REMARK    6  A    between atoms: C_9  and  C_10
REMARK    7  A    between atoms: C_10  and  N_11
REMARK    8  A    between atoms: N_11  and  C_12
REMARK    9  A    between atoms: C_12  and  C_13
REMARK                            x       y       z     vdW  Elec       q    Type
REMARK                         _______ _______ _______ _____ _____    ______ ____
ROOT
ATOM      1  C   UNL     1      47.794   6.904  13.707  0.00  0.00    +0.000 C 
ENDROOT
BRANCH   1   2
ATOM      2  C   UNL     1      46.570   6.293  13.061  0.00  0.00    +0.000 A 
ATOM      3  C   UNL     1      45.760   7.088  12.251  0.00  0.00    +0.000 A 
ATOM      4  C   UNL     1      44.695   6.538  11.546  0.00  0.00    +0.000 A 
ATOM      5  C   UNL     1      44.424   5.166  11.632  0.00  0.00    +0.000 A 
ATOM      6  C   UNL     1      45.230   4.362  12.444  0.00  0.00    +0.000 A 
ATOM      7  C   UNL     1      46.291   4.919  13.160  0.00  0.00    +0.000 A 
BRANCH   5   8
ATOM      8  C   UNL     1      43.298   4.531  10.855  0.00  0.00    +0.000 C 
BRANCH   8   9
ATOM      9  N   UNL     1      43.743   3.591   9.827  0.00  0.00    +0.000 NA
ATOM     10  H   UNL     1      42.927   3.179   9.374  0.00  0.00    +0.000 HD
BRANCH   9  11
ATOM     11  C   UNL     1      44.537   4.233   8.775  0.00  0.00    +0.000 C 
BRANCH  11  12
ATOM     12  C   UNL     1      45.537   3.261   8.188  0.00  0.00    +0.000 A 
ATOM     13  C   UNL     1      45.569   1.943   8.631  0.00  0.00    +0.000 A 
ATOM     14  N   UNL     1      46.437   1.024   8.142  0.00  0.00    +0.000 NA
ATOM     15  C   UNL     1      47.257   1.472   7.166  0.00  0.00    +0.000 A 
ATOM     16  C   UNL     1      47.225   2.776   6.704  0.00  0.00    +0.000 A 
ATOM     17  N   UNL     1      46.370   3.699   7.203  0.00  0.00    +0.000 NA
ENDBRANCH  11  12
ENDBRANCH   9  11
ENDBRANCH   8   9
ENDBRANCH   5   8
ENDBRANCH   1   2
BRANCH   1  18
ATOM     18  N   UNL     1      48.156   6.270  14.974  0.00  0.00    +0.000 NA
ATOM     19  H   UNL     1      48.483   5.325  14.789  0.00  0.00    +0.000 HD
BRANCH  18  20
ATOM     20  C   UNL     1      49.231   6.980  15.689  0.00  0.00    +0.000 C 
BRANCH  20  21
ATOM     21  C   UNL     1      49.769   5.990  16.701  0.00  0.00    +0.000 A 
ATOM     22  C   UNL     1      48.983   5.132  17.461  0.00  0.00    +0.000 A 
ATOM     23  S   UNL     1      49.891   4.122  18.495  0.00  0.00    +0.000 S 
ATOM     24  C   UNL     1      51.361   4.780  17.941  0.00  0.00    +0.000 A 
ATOM     25  N   UNL     1      52.554   4.340  18.422  0.00  0.00    +0.000 NA
ATOM     26  C   UNL     1      53.583   4.920  17.894  0.00  0.00    +0.000 A 
ATOM     27  N   UNL     1      53.528   5.897  16.931  0.00  0.00    +0.000 N 
ATOM     28  C   UNL     1      52.344   6.380  16.416  0.00  0.00    +0.000 A 
ATOM     29  O   UNL     1      52.331   7.244  15.557  0.00  0.00    +0.000 OA
ATOM     30  C   UNL     1      51.162   5.755  16.985  0.00  0.00    +0.000 A 
ATOM     31  H   UNL     1      54.370   6.307  16.561  0.00  0.00    +0.000 HD
ENDBRANCH  20  21
BRANCH  20  33
ATOM     32  C   UNL     1      48.471   9.224  16.948  0.00  0.00    +0.000 C 
ATOM     33  C   UNL     1      48.780   8.203  16.379  0.00  0.00    +0.000 C 
ENDBRANCH  20  33
ENDBRANCH  18  20
ENDBRANCH   1  18
TORSDOF 9
ENDMDL
MODEL 6
REMARK VINA RESULT:    -6.415      3.786      7.779
REMARK INTER + INTRA:         -11.120
REMARK INTER:                  -9.472
REMARK INTRA:                  -1.649
REMARK UNBOUND:                -1.330
REMARK  Name = 
REMARK  9 active torsions:
REMARK  status: ('A' for Active; 'I' for Inactive)
REMARK    1  A    between atoms: C_2  and  C_3
REMARK    2  A    between atoms: C_3  and  N_4
REMARK    3  A    between atoms: C_3  and  C_21
REMARK    4  A    between atoms: N_4  and  C_5
REMARK    5  A    between atoms: C_5  and  C_6
REMARK    6  A    between atoms: C_9  and  C_10
REMARK    7  A    between atoms: C_10  and  N_11
REMARK    8  A    between atoms: N_11  and  C_12
REMARK    9  A    between atoms: C_12  and  C_13
REMARK                            x       y       z     vdW  Elec       q    Type
REMARK                         _______ _______ _______ _____ _____    ______ ____
ROOT
ATOM      1  C   UNL     1      48.219   9.343  14.337  0.00  0.00    +0.000 C 
ENDROOT
BRANCH   1   2
ATOM      2  C   UNL     1      48.580   8.652  15.634  0.00  0.00    +0.000 A 
ATOM      3  C   UNL     1      49.426   7.545  15.601  0.00  0.00    +0.000 A 
ATOM      4  C   UNL     1      49.875   6.953  16.778  0.00  0.00    +0.000 A 
ATOM      5  C   UNL     1      49.488   7.472  18.021  0.00  0.00    +0.000 A 
ATOM      6  C   UNL     1      48.637   8.580  18.062  0.00  0.00    +0.000 A 
ATOM      7  C   UNL     1      48.178   9.164  16.879  0.00  0.00    +0.000 A 
BRANCH   5   8
ATOM      8  C   UNL     1      49.983   6.877  19.315  0.00  0.00    +0.000 C 
BRANCH   8   9
ATOM      9  N   UNL     1      48.986   6.070  20.017  0.00  0.00    +0.000 NA
ATOM     10  H   UNL     1      48.067   6.241  19.607  0.00  0.00    +0.000 HD
BRANCH   9  11
ATOM     11  C   UNL     1      49.241   4.631  19.908  0.00  0.00    +0.000 C 
BRANCH  11  12
ATOM     12  C   UNL     1      48.744   4.095  18.584  0.00  0.00    +0.000 A 
ATOM     13  C   UNL     1      49.528   3.211  17.851  0.00  0.00    +0.000 A 
ATOM     14  N   UNL     1      49.137   2.693  16.662  0.00  0.00    +0.000 NA
ATOM     15  C   UNL     1      47.909   3.075  16.246  0.00  0.00    +0.000 A 
ATOM     16  C   UNL     1      47.111   3.941  16.973  0.00  0.00    +0.000 A 
ATOM     17  N   UNL     1      47.508   4.471  18.153  0.00  0.00    +0.000 NA
ENDBRANCH  11  12
ENDBRANCH   9  11
ENDBRANCH   8   9
ENDBRANCH   5   8
ENDBRANCH   1   2
BRANCH   1  18
ATOM     18  N   UNL     1      46.911   8.948  13.816  0.00  0.00    +0.000 NA
ATOM     19  H   UNL     1      46.338   9.779  13.698  0.00  0.00    +0.000 HD
BRANCH  18  20
ATOM     20  C   UNL     1      46.989   8.275  12.508  0.00  0.00    +0.000 C 
BRANCH  20  21
ATOM     21  C   UNL     1      46.298   6.941  12.695  0.00  0.00    +0.000 A 
ATOM     22  C   UNL     1      46.832   5.865  13.394  0.00  0.00    +0.000 A 
ATOM     23  S   UNL     1      45.797   4.509  13.444  0.00  0.00    +0.000 S 
ATOM     24  C   UNL     1      44.594   5.324  12.556  0.00  0.00    +0.000 A 
ATOM     25  N   UNL     1      43.413   4.721  12.253  0.00  0.00    +0.000 NA
ATOM     26  C   UNL     1      42.592   5.470  11.591  0.00  0.00    +0.000 A 
ATOM     27  N   UNL     1      42.843   6.763  11.205  0.00  0.00    +0.000 N 
ATOM     28  C   UNL     1      44.023   7.416  11.483  0.00  0.00    +0.000 A 
ATOM     29  O   UNL     1      44.211   8.568  11.131  0.00  0.00    +0.000 OA
ATOM     30  C   UNL     1      44.977   6.608  12.225  0.00  0.00    +0.000 A 
ATOM     31  H   UNL     1      42.156   7.292  10.691  0.00  0.00    +0.000 HD
ENDBRANCH  20  21
BRANCH  20  33
ATOM     32  C   UNL     1      49.476   7.847  11.592  0.00  0.00    +0.000 C 
ATOM     33  C   UNL     1      48.368   8.059  12.031  0.00  0.00    +0.000 C 
ENDBRANCH  20  33
ENDBRANCH  18  20
ENDBRANCH   1  18
TORSDOF 9
ENDMDL
MODEL 7
REMARK VINA RESULT:    -6.398      2.093      3.098
REMARK INTER + INTRA:         -11.095
REMARK INTER:                  -9.850
REMARK INTRA:                  -1.245
REMARK UNBOUND:                -1.330
REMARK  Name = 
REMARK  9 active torsions:
REMARK  status: ('A' for Active; 'I' for Inactive)
REMARK    1  A    between atoms: C_2  and  C_3
REMARK    2  A    between atoms: C_3  and  N_4
REMARK    3  A    between atoms: C_3  and  C_21
REMARK    4  A    between atoms: N_4  and  C_5
REMARK    5  A    between atoms: C_5  and  C_6
REMARK    6  A    between atoms: C_9  and  C_10
REMARK    7  A    between atoms: C_10  and  N_11
REMARK    8  A    between atoms: N_11  and  C_12
REMARK    9  A    between atoms: C_12  and  C_13
REMARK                            x       y       z     vdW  Elec       q    Type
REMARK                         _______ _______ _______ _____ _____    ______ ____
ROOT
ATOM      1  C   UNL     1      48.346   8.606  14.534  0.00  0.00    +0.000 C 
ENDROOT
BRANCH   1   2
ATOM      2  C   UNL     1      47.490   7.588  13.812  0.00  0.00    +0.000 A 
ATOM      3  C   UNL     1      46.605   8.022  12.826  0.00  0.00    +0.000 A 
ATOM      4  C   UNL     1      45.887   7.110  12.059  0.00  0.00    +0.000 A 
ATOM      5  C   UNL     1      46.053   5.733  12.260  0.00  0.00    +0.000 A 
ATOM      6  C   UNL     1      46.936   5.290  13.248  0.00  0.00    +0.000 A 
ATOM      7  C   UNL     1      47.646   6.208  14.025  0.00  0.00    +0.000 A 
BRANCH   5   8
ATOM      8  C   UNL     1      45.316   4.717  11.424  0.00  0.00    +0.000 C 
BRANCH   8   9
ATOM      9  N   UNL     1      44.605   5.290  10.283  0.00  0.00    +0.000 NA
ATOM     10  H   UNL     1      45.267   5.797   9.695  0.00  0.00    +0.000 HD
BRANCH   9  11
ATOM     11  C   UNL     1      43.973   4.272   9.437  0.00  0.00    +0.000 C 
BRANCH  11  12
ATOM     12  C   UNL     1      45.018   3.437   8.731  0.00  0.00    +0.000 A 
ATOM     13  C   UNL     1      45.118   2.076   8.997  0.00  0.00    +0.000 A 
ATOM     14  N   UNL     1      46.029   1.273   8.395  0.00  0.00    +0.000 NA
ATOM     15  C   UNL     1      46.823   1.885   7.488  0.00  0.00    +0.000 A 
ATOM     16  C   UNL     1      46.724   3.236   7.202  0.00  0.00    +0.000 A 
ATOM     17  N   UNL     1      45.825   4.041   7.815  0.00  0.00    +0.000 NA
ENDBRANCH  11  12
ENDBRANCH   9  11
ENDBRANCH   8   9
ENDBRANCH   5   8
ENDBRANCH   1   2
BRANCH   1  18
ATOM     18  N   UNL     1      47.863   8.918  15.877  0.00  0.00    +0.000 NA
ATOM     19  H   UNL     1      47.136   8.253  16.130  0.00  0.00    +0.000 HD
BRANCH  18  20
ATOM     20  C   UNL     1      48.916   8.836  16.905  0.00  0.00    +0.000 C 
BRANCH  20  21
ATOM     21  C   UNL     1      48.482   7.731  17.845  0.00  0.00    +0.000 A 
ATOM     22  C   UNL     1      47.510   7.868  18.829  0.00  0.00    +0.000 A 
ATOM     23  S   UNL     1      47.232   6.432  19.710  0.00  0.00    +0.000 S 
ATOM     24  C   UNL     1      48.381   5.578  18.788  0.00  0.00    +0.000 A 
ATOM     25  N   UNL     1      48.633   4.262  19.021  0.00  0.00    +0.000 NA
ATOM     26  C   UNL     1      49.515   3.744  18.230  0.00  0.00    +0.000 A 
ATOM     27  N   UNL     1      50.169   4.420  17.230  0.00  0.00    +0.000 N 
ATOM     28  C   UNL     1      49.953   5.753  16.957  0.00  0.00    +0.000 A 
ATOM     29  O   UNL     1      50.546   6.322  16.056  0.00  0.00    +0.000 OA
ATOM     30  C   UNL     1      48.968   6.375  17.826  0.00  0.00    +0.000 A 
ATOM     31  H   UNL     1      50.846   3.954  16.647  0.00  0.00    +0.000 HD
ENDBRANCH  20  21
BRANCH  20  33
ATOM     32  C   UNL     1      49.296  11.138  18.231  0.00  0.00    +0.000 C 
ATOM     33  C   UNL     1      49.108  10.087  17.661  0.00  0.00    +0.000 C 
ENDBRANCH  20  33
ENDBRANCH  18  20
ENDBRANCH   1  18
TORSDOF 9
ENDMDL
MODEL 8
REMARK VINA RESULT:    -6.369      2.990      7.738
REMARK INTER + INTRA:         -11.050
REMARK INTER:                  -9.467
REMARK INTRA:                  -1.582
REMARK UNBOUND:                -1.330
REMARK  Name = 
REMARK  9 active torsions:
REMARK  status: ('A' for Active; 'I' for Inactive)
REMARK    1  A    between atoms: C_2  and  C_3
REMARK    2  A    between atoms: C_3  and  N_4
REMARK    3  A    between atoms: C_3  and  C_21
REMARK    4  A    between atoms: N_4  and  C_5
REMARK    5  A    between atoms: C_5  and  C_6
REMARK    6  A    between atoms: C_9  and  C_10
REMARK    7  A    between atoms: C_10  and  N_11
REMARK    8  A    between atoms: N_11  and  C_12
REMARK    9  A    between atoms: C_12  and  C_13
REMARK                            x       y       z     vdW  Elec       q    Type
REMARK                         _______ _______ _______ _____ _____    ______ ____
ROOT
ATOM      1  C   UNL     1      48.260   8.203  11.992  0.00  0.00    +0.000 C 
ENDROOT
BRANCH   1   2
ATOM      2  C   UNL     1      48.572   8.142  13.471  0.00  0.00    +0.000 A 
ATOM      3  C   UNL     1      49.582   7.292  13.919  0.00  0.00    +0.000 A 
ATOM      4  C   UNL     1      49.977   7.292  15.253  0.00  0.00    +0.000 A 
ATOM      5  C   UNL     1      49.369   8.160  16.169  0.00  0.00    +0.000 A 
ATOM      6  C   UNL     1      48.354   9.014  15.729  0.00  0.00    +0.000 A 
ATOM      7  C   UNL     1      47.950   9.003  14.392  0.00  0.00    +0.000 A 
BRANCH   5   8
ATOM      8  C   UNL     1      49.797   8.211  17.615  0.00  0.00    +0.000 C 
BRANCH   8   9
ATOM      9  N   UNL     1      49.982   6.896  18.226  0.00  0.00    +0.000 NA
ATOM     10  H   UNL     1      50.545   6.995  19.071  0.00  0.00    +0.000 HD
BRANCH   9  11
ATOM     11  C   UNL     1      48.718   6.271  18.625  0.00  0.00    +0.000 C 
BRANCH  11  12
ATOM     12  C   UNL     1      48.540   4.934  17.940  0.00  0.00    +0.000 A 
ATOM     13  C   UNL     1      47.351   4.641  17.281  0.00  0.00    +0.000 A 
ATOM     14  N   UNL     1      47.132   3.465  16.645  0.00  0.00    +0.000 NA
ATOM     15  C   UNL     1      48.168   2.598  16.670  0.00  0.00    +0.000 A 
ATOM     16  C   UNL     1      49.363   2.882  17.308  0.00  0.00    +0.000 A 
ATOM     17  N   UNL     1      49.576   4.050  17.957  0.00  0.00    +0.000 NA
ENDBRANCH  11  12
ENDBRANCH   9  11
ENDBRANCH   8   9
ENDBRANCH   5   8
ENDBRANCH   1   2
BRANCH   1  18
ATOM     18  N   UNL     1      47.638   6.984  11.481  0.00  0.00    +0.000 NA
ATOM     19  H   UNL     1      48.141   6.178  11.846  0.00  0.00    +0.000 HD
BRANCH  18  20
ATOM     20  C   UNL     1      46.227   6.843  11.882  0.00  0.00    +0.000 C 
BRANCH  20  21
ATOM     21  C   UNL     1      45.665   5.740  11.009  0.00  0.00    +0.000 A 
ATOM     22  C   UNL     1      45.902   5.613   9.646  0.00  0.00    +0.000 A 
ATOM     23  S   UNL     1      45.143   4.251   8.951  0.00  0.00    +0.000 S 
ATOM     24  C   UNL     1      44.496   3.775  10.453  0.00  0.00    +0.000 A 
ATOM     25  N   UNL     1      43.735   2.654  10.568  0.00  0.00    +0.000 NA
ATOM     26  C   UNL     1      43.330   2.412  11.772  0.00  0.00    +0.000 A 
ATOM     27  N   UNL     1      43.615   3.185  12.870  0.00  0.00    +0.000 N 
ATOM     28  C   UNL     1      44.377   4.331  12.805  0.00  0.00    +0.000 A 
ATOM     29  O   UNL     1      44.617   4.992  13.801  0.00  0.00    +0.000 OA
ATOM     30  C   UNL     1      44.851   4.642  11.467  0.00  0.00    +0.000 A 
ATOM     31  H   UNL     1      43.267   2.937  13.782  0.00  0.00    +0.000 HD
ENDBRANCH  20  21
BRANCH  20  33
ATOM     32  C   UNL     1      44.729   9.045  11.558  0.00  0.00    +0.000 C 
ATOM     33  C   UNL     1      45.433   8.073  11.705  0.00  0.00    +0.000 C 
ENDBRANCH  20  33
ENDBRANCH  18  20
ENDBRANCH   1  18
TORSDOF 9
ENDMDL
MODEL 9
REMARK VINA RESULT:    -6.051      1.931      3.260
REMARK INTER + INTRA:         -10.565
REMARK INTER:                  -9.151
REMARK INTRA:                  -1.414
REMARK UNBOUND:                -1.330
REMARK  Name = 
REMARK  9 active torsions:
REMARK  status: ('A' for Active; 'I' for Inactive)
REMARK    1  A    between atoms: C_2  and  C_3
REMARK    2  A    between atoms: C_3  and  N_4
REMARK    3  A    between atoms: C_3  and  C_21
REMARK    4  A    between atoms: N_4  and  C_5
REMARK    5  A    between atoms: C_5  and  C_6
REMARK    6  A    between atoms: C_9  and  C_10
REMARK    7  A    between atoms: C_10  and  N_11
REMARK    8  A    between atoms: N_11  and  C_12
REMARK    9  A    between atoms: C_12  and  C_13
REMARK                            x       y       z     vdW  Elec       q    Type
REMARK                         _______ _______ _______ _____ _____    ______ ____
ROOT
ATOM      1  C   UNL     1      49.671   7.991  12.900  0.00  0.00    +0.000 C 
ENDROOT
BRANCH   1   2
ATOM      2  C   UNL     1      48.255   7.462  12.961  0.00  0.00    +0.000 A 
ATOM      3  C   UNL     1      47.192   8.364  12.979  0.00  0.00    +0.000 A 
ATOM      4  C   UNL     1      45.876   7.920  12.917  0.00  0.00    +0.000 A 
ATOM      5  C   UNL     1      45.597   6.550  12.824  0.00  0.00    +0.000 A 
ATOM      6  C   UNL     1      46.657   5.638  12.808  0.00  0.00    +0.000 A 
ATOM      7  C   UNL     1      47.977   6.087  12.883  0.00  0.00    +0.000 A 
BRANCH   5   8
ATOM      8  C   UNL     1      44.183   6.034  12.720  0.00  0.00    +0.000 C 
BRANCH   8   9
ATOM      9  N   UNL     1      44.092   4.589  12.520  0.00  0.00    +0.000 NA
ATOM     10  H   UNL     1      43.701   4.158  13.359  0.00  0.00    +0.000 HD
BRANCH   9  11
ATOM     11  C   UNL     1      43.215   4.223  11.403  0.00  0.00    +0.000 C 
BRANCH  11  12
ATOM     12  C   UNL     1      44.025   3.745  10.219  0.00  0.00    +0.000 A 
ATOM     13  C   UNL     1      44.700   4.663   9.421  0.00  0.00    +0.000 A 
ATOM     14  N   UNL     1      45.445   4.298   8.349  0.00  0.00    +0.000 NA
ATOM     15  C   UNL     1      45.512   2.967   8.124  0.00  0.00    +0.000 A 
ATOM     16  C   UNL     1      44.859   2.042   8.919  0.00  0.00    +0.000 A 
ATOM     17  N   UNL     1      44.101   2.407   9.979  0.00  0.00    +0.000 NA
ENDBRANCH  11  12
ENDBRANCH   9  11
ENDBRANCH   8   9
ENDBRANCH   5   8
ENDBRANCH   1   2
BRANCH   1  18
ATOM     18  N   UNL     1      50.151   8.507  14.181  0.00  0.00    +0.000 NA
ATOM     19  H   UNL     1      49.468   9.163  14.550  0.00  0.00    +0.000 HD
BRANCH  18  20
ATOM     20  C   UNL     1      50.343   7.453  15.193  0.00  0.00    +0.000 C 
BRANCH  20  21
ATOM     21  C   UNL     1      49.482   7.858  16.370  0.00  0.00    +0.000 A 
ATOM     22  C   UNL     1      49.153   9.168  16.695  0.00  0.00    +0.000 A 
ATOM     23  S   UNL     1      48.146   9.292  18.069  0.00  0.00    +0.000 S 
ATOM     24  C   UNL     1      48.098   7.600  18.256  0.00  0.00    +0.000 A 
ATOM     25  N   UNL     1      47.383   7.024  19.259  0.00  0.00    +0.000 NA
ATOM     26  C   UNL     1      47.426   5.731  19.263  0.00  0.00    +0.000 A 
ATOM     27  N   UNL     1      48.116   4.964  18.358  0.00  0.00    +0.000 N 
ATOM     28  C   UNL     1      48.858   5.499  17.328  0.00  0.00    +0.000 A 
ATOM     29  O   UNL     1      49.454   4.789  16.537  0.00  0.00    +0.000 OA
ATOM     30  C   UNL     1      48.838   6.952  17.289  0.00  0.00    +0.000 A 
ATOM     31  H   UNL     1      48.105   3.958  18.418  0.00  0.00    +0.000 HD
ENDBRANCH  20  21
BRANCH  20  33
ATOM     32  C   UNL     1      52.899   7.230  15.980  0.00  0.00    +0.000 C 
ATOM     33  C   UNL     1      51.743   7.297  15.630  0.00  0.00    +0.000 C 
ENDBRANCH  20  33
ENDBRANCH  18  20
ENDBRANCH   1  18
TORSDOF 9
ENDMDL
