MODEL 1
REMARK VINA RESULT:    -7.167      0.000      0.000
REMARK INTER + INTRA:         -11.213
REMARK INTER:                 -10.100
REMARK INTRA:                  -1.113
REMARK UNBOUND:                -1.113
REMARK  Name = 
REMARK  10 active torsions:
REMARK  status: ('A' for Active; 'I' for Inactive)
REMARK    1  A    between atoms: C_1  and  C_2
REMARK    2  A    between atoms: C_5  and  O_6
REMARK    3  A    between atoms: O_6  and  C_7
REMARK    4  A    between atoms: C_7  and  C_8
REMARK    5  A    between atoms: C_8  and  C_9
REMARK    6  A    between atoms: C_14  and  N_15
REMARK    7  A    between atoms: N_15  and  C_16
REMARK    8  A    between atoms: C_22  and  C_23
REMARK    9  A    between atoms: N_25  and  C_26
REMARK   10  A    between atoms: N_25  and  C_27
REMARK                            x       y       z     vdW  Elec       q    Type
REMARK                         _______ _______ _______ _____ _____    ______ ____
ROOT
ATOM      1  C   UNL     1      48.515   7.242  12.909  0.00  0.00    +0.000 C 
ENDROOT
BRANCH   1   2
ATOM      2  O   UNL     1      48.650   8.389  13.759  0.00  0.00    +0.000 OA
BRANCH   2   7
ATOM      3  C   UNL     1      48.841   7.178  19.346  0.00  0.00    +0.000 C 
ATOM      4  C   UNL     1      48.735   7.348  17.858  0.00  0.00    +0.000 A 
ATOM      5  C   UNL     1      48.384   8.648  17.451  0.00  0.00    +0.000 A 
ATOM      6  C   UNL     1      48.341   9.015  16.103  0.00  0.00    +0.000 A 
ATOM      7  C   UNL     1      48.626   8.090  15.106  0.00  0.00    +0.000 A 
ATOM      8  C   UNL     1      48.927   6.781  15.497  0.00  0.00    +0.000 A 
ATOM      9  C   UNL     1      48.979   6.370  16.868  0.00  0.00    +0.000 A 
BRANCH   9  10
ATOM     10  C   UNL     1      49.467   4.949  17.046  0.00  0.00    +0.000 C 
ATOM     11  O   UNL     1      50.695   4.821  17.072  0.00  0.00    +0.000 OA
ATOM     12  N   UNL     1      48.650   3.809  17.101  0.00  0.00    +0.000 N 
ATOM     13  C   UNL     1      47.207   3.761  17.196  0.00  0.00    +0.000 C 
ATOM     14  C   UNL     1      49.299   2.502  17.162  0.00  0.00    +0.000 C 
ENDBRANCH   9  10
ENDBRANCH   2   7
ENDBRANCH   1   2
BRANCH   1  15
ATOM     15  C   UNL     1      47.502   7.406  11.770  0.00  0.00    +0.000 C 
BRANCH  15  16
ATOM     16  C   UNL     1      46.581   6.198  11.780  0.00  0.00    +0.000 A 
ATOM     17  C   UNL     1      46.409   5.447  12.951  0.00  0.00    +0.000 A 
ATOM     18  C   UNL     1      45.455   4.433  13.004  0.00  0.00    +0.000 A 
ATOM     19  C   UNL     1      44.659   4.160  11.887  0.00  0.00    +0.000 A 
ATOM     20 CL   UNL     1      43.444   2.934  12.026  0.00  0.00    +0.000 Cl
ATOM     21  C   UNL     1      44.806   4.895  10.694  0.00  0.00    +0.000 A 
ATOM     22  C   UNL     1      45.785   5.902  10.657  0.00  0.00    +0.000 A 
BRANCH  21  23
ATOM     23  N   UNL     1      44.026   4.581   9.550  0.00  0.00    +0.000 N 
ATOM     24  H   UNL     1      43.435   5.374   9.292  0.00  0.00    +0.000 HD
BRANCH  23  25
ATOM     25  C   UNL     1      44.425   3.748   8.457  0.00  0.00    +0.000 C 
ATOM     26  C   UNL     1      44.820   2.324   8.896  0.00  0.00    +0.000 C 
ATOM     27  C   UNL     1      46.099   2.455   8.054  0.00  0.00    +0.000 C 
ATOM     28  C   UNL     1      45.895   3.979   8.042  0.00  0.00    +0.000 C 
ENDBRANCH  23  25
ENDBRANCH  21  23
ENDBRANCH  15  16
ENDBRANCH   1  15
TORSDOF 7
ENDMDL
MODEL 2
REMARK VINA RESULT:    -6.715      1.799      2.728
REMARK INTER + INTRA:         -10.575
REMARK INTER:                  -9.576
REMARK INTRA:                  -0.999
REMARK UNBOUND:                -1.113
REMARK  Name = 
REMARK  10 active torsions:
REMARK  status: ('A' for Active; 'I' for Inactive)
REMARK    1  A    between atoms: C_1  and  C_2
REMARK    2  A    between atoms: C_5  and  O_6
REMARK    3  A    between atoms: O_6  and  C_7
REMARK    4  A    between atoms: C_7  and  C_8
REMARK    5  A    between atoms: C_8  and  C_9
REMARK    6  A    between atoms: C_14  and  N_15
REMARK    7  A    between atoms: N_15  and  C_16
REMARK    8  A    between atoms: C_22  and  C_23
REMARK    9  A    between atoms: N_25  and  C_26
REMARK   10  A    between atoms: N_25  and  C_27
REMARK                            x       y       z     vdW  Elec       q    Type
REMARK                         _______ _______ _______ _____ _____    ______ ____
ROOT
ATOM      1  C   UNL     1      46.206   7.130  12.566  0.00  0.00    +0.000 C 
ENDROOT
BRANCH   1   2
ATOM      2  O   UNL     1      47.339   7.979  12.338  0.00  0.00    +0.000 OA
BRANCH   2   7
ATOM      3  C   UNL     1      51.626   6.968  15.988  0.00  0.00    +0.000 C 
ATOM      4  C   UNL     1      50.404   7.235  15.157  0.00  0.00    +0.000 A 
ATOM      5  C   UNL     1      50.640   8.048  14.033  0.00  0.00    +0.000 A 
ATOM      6  C   UNL     1      49.642   8.315  13.091  0.00  0.00    +0.000 A 
ATOM      7  C   UNL     1      48.362   7.799  13.248  0.00  0.00    +0.000 A 
ATOM      8  C   UNL     1      48.102   7.031  14.389  0.00  0.00    +0.000 A 
ATOM      9  C   UNL     1      49.100   6.739  15.373  0.00  0.00    +0.000 A 
BRANCH   9  10
ATOM     10  C   UNL     1      48.623   5.773  16.436  0.00  0.00    +0.000 C 
ATOM     11  O   UNL     1      48.413   4.624  16.037  0.00  0.00    +0.000 OA
ATOM     12  N   UNL     1      48.340   6.106  17.770  0.00  0.00    +0.000 N 
ATOM     13  C   UNL     1      48.622   7.353  18.448  0.00  0.00    +0.000 C 
ATOM     14  C   UNL     1      47.779   5.069  18.632  0.00  0.00    +0.000 C 
ENDBRANCH   9  10
ENDBRANCH   2   7
ENDBRANCH   1   2
BRANCH   1  15
ATOM     15  C   UNL     1      45.205   7.078  11.405  0.00  0.00    +0.000 C 
BRANCH  15  16
ATOM     16  C   UNL     1      45.139   5.646  10.903  0.00  0.00    +0.000 A 
ATOM     17  C   UNL     1      44.642   4.627  11.729  0.00  0.00    +0.000 A 
ATOM     18  C   UNL     1      44.441   3.344  11.222  0.00  0.00    +0.000 A 
ATOM     19  C   UNL     1      44.732   3.067   9.883  0.00  0.00    +0.000 A 
ATOM     20 CL   UNL     1      44.404   1.474   9.286  0.00  0.00    +0.000 Cl
ATOM     21  C   UNL     1      45.234   4.066   9.026  0.00  0.00    +0.000 A 
ATOM     22  C   UNL     1      45.444   5.348   9.562  0.00  0.00    +0.000 A 
BRANCH  21  23
ATOM     23  N   UNL     1      45.571   3.764   7.680  0.00  0.00    +0.000 N 
ATOM     24  H   UNL     1      44.965   4.277   7.036  0.00  0.00    +0.000 HD
BRANCH  23  25
ATOM     25  C   UNL     1      46.882   3.485   7.179  0.00  0.00    +0.000 C 
ATOM     26  C   UNL     1      46.915   3.297   5.649  0.00  0.00    +0.000 C 
ATOM     27  C   UNL     1      47.731   2.012   5.860  0.00  0.00    +0.000 C 
ATOM     28  C   UNL     1      47.269   1.998   7.326  0.00  0.00    +0.000 C 
ENDBRANCH  23  25
ENDBRANCH  21  23
ENDBRANCH  15  16
ENDBRANCH   1  15
TORSDOF 7
ENDMDL
MODEL 3
REMARK VINA RESULT:    -6.601      1.559      2.040
REMARK INTER + INTRA:         -10.416
REMARK INTER:                  -9.562
REMARK INTRA:                  -0.854
REMARK UNBOUND:                -1.113
REMARK  Name = 
REMARK  10 active torsions:
REMARK  status: ('A' for Active; 'I' for Inactive)
REMARK    1  A    between atoms: C_1  and  C_2
REMARK    2  A    between atoms: C_5  and  O_6
REMARK    3  A    between atoms: O_6  and  C_7
REMARK    4  A    between atoms: C_7  and  C_8
REMARK    5  A    between atoms: C_8  and  C_9
REMARK    6  A    between atoms: C_14  and  N_15
REMARK    7  A    between atoms: N_15  and  C_16
REMARK    8  A    between atoms: C_22  and  C_23
REMARK    9  A    between atoms: N_25  and  C_26
REMARK   10  A    between atoms: N_25  and  C_27
REMARK                            x       y       z     vdW  Elec       q    Type
REMARK                         _______ _______ _______ _____ _____    ______ ____
ROOT
ATOM      1  C   UNL     1      48.112   7.314  13.256  0.00  0.00    +0.000 C 
ENDROOT
BRANCH   1   2
ATOM      2  O   UNL     1      49.235   8.198  13.382  0.00  0.00    +0.000 OA
BRANCH   2   7
ATOM      3  C   UNL     1      53.049   6.323  17.210  0.00  0.00    +0.000 C 
ATOM      4  C   UNL     1      51.941   6.815  16.324  0.00  0.00    +0.000 A 
ATOM      5  C   UNL     1      52.362   7.705  15.319  0.00  0.00    +0.000 A 
ATOM      6  C   UNL     1      51.485   8.182  14.340  0.00  0.00    +0.000 A 
ATOM      7  C   UNL     1      50.148   7.807  14.340  0.00  0.00    +0.000 A 
ATOM      8  C   UNL     1      49.707   6.963  15.366  0.00  0.00    +0.000 A 
ATOM      9  C   UNL     1      50.576   6.456  16.384  0.00  0.00    +0.000 A 
BRANCH   9  10
ATOM     10  C   UNL     1      49.906   5.449  17.294  0.00  0.00    +0.000 C 
ATOM     11  O   UNL     1      50.002   4.274  16.928  0.00  0.00    +0.000 OA
ATOM     12  N   UNL     1      49.147   5.761  18.432  0.00  0.00    +0.000 N 
ATOM     13  C   UNL     1      49.010   7.049  19.077  0.00  0.00    +0.000 C 
ATOM     14  C   UNL     1      48.475   4.667  19.129  0.00  0.00    +0.000 C 
ENDBRANCH   9  10
ENDBRANCH   2   7
ENDBRANCH   1   2
BRANCH   1  15
ATOM     15  C   UNL     1      47.473   7.289  11.863  0.00  0.00    +0.000 C 
BRANCH  15  16
ATOM     16  C   UNL     1      46.520   6.107  11.802  0.00  0.00    +0.000 A 
ATOM     17  C   UNL     1      46.256   5.350  12.952  0.00  0.00    +0.000 A 
ATOM     18  C   UNL     1      45.272   4.363  12.935  0.00  0.00    +0.000 A 
ATOM     19  C   UNL     1      44.541   4.123  11.768  0.00  0.00    +0.000 A 
ATOM     20 CL   UNL     1      43.286   2.930  11.818  0.00  0.00    +0.000 Cl
ATOM     21  C   UNL     1      44.782   4.864  10.595  0.00  0.00    +0.000 A 
ATOM     22  C   UNL     1      45.788   5.843  10.629  0.00  0.00    +0.000 A 
BRANCH  21  23
ATOM     23  N   UNL     1      44.066   4.582   9.400  0.00  0.00    +0.000 N 
ATOM     24  H   UNL     1      43.534   5.402   9.101  0.00  0.00    +0.000 HD
BRANCH  23  25
ATOM     25  C   UNL     1      44.497   3.724   8.339  0.00  0.00    +0.000 C 
ATOM     26  C   UNL     1      44.885   2.313   8.824  0.00  0.00    +0.000 C 
ATOM     27  C   UNL     1      46.185   2.429   8.012  0.00  0.00    +0.000 C 
ATOM     28  C   UNL     1      45.976   3.952   7.956  0.00  0.00    +0.000 C 
ENDBRANCH  23  25
ENDBRANCH  21  23
ENDBRANCH  15  16
ENDBRANCH   1  15
TORSDOF 7
ENDMDL
MODEL 4
REMARK VINA RESULT:    -6.529      3.976      5.121
REMARK INTER + INTRA:         -10.313
REMARK INTER:                  -9.233
REMARK INTRA:                  -1.080
REMARK UNBOUND:                -1.113
REMARK  Name = 
REMARK  10 active torsions:
REMARK  status: ('A' for Active; 'I' for Inactive)
REMARK    1  A    between atoms: C_1  and  C_2
REMARK    2  A    between atoms: C_5  and  O_6
REMARK    3  A    between atoms: O_6  and  C_7
REMARK    4  A    between atoms: C_7  and  C_8
REMARK    5  A    between atoms: C_8  and  C_9
REMARK    6  A    between atoms: C_14  and  N_15
REMARK    7  A    between atoms: N_15  and  C_16
REMARK    8  A    between atoms: C_22  and  C_23
REMARK    9  A    between atoms: N_25  and  C_26
REMARK   10  A    between atoms: N_25  and  C_27
REMARK                            x       y       z     vdW  Elec       q    Type
REMARK                         _______ _______ _______ _____ _____    ______ ____
ROOT
ATOM      1  C   UNL     1      46.418   6.951  12.640  0.00  0.00    +0.000 C 
ENDROOT
BRANCH   1   2
ATOM      2  O   UNL     1      46.638   8.222  13.267  0.00  0.00    +0.000 OA
BRANCH   2   7
ATOM      3  C   UNL     1      50.153  11.471  10.134  0.00  0.00    +0.000 C 
ATOM      4  C   UNL     1      49.358  10.580  11.045  0.00  0.00    +0.000 A 
ATOM      5  C   UNL     1      48.043  11.022  11.276  0.00  0.00    +0.000 A 
ATOM      6  C   UNL     1      47.127  10.265  12.014  0.00  0.00    +0.000 A 
ATOM      7  C   UNL     1      47.498   9.046  12.568  0.00  0.00    +0.000 A 
ATOM      8  C   UNL     1      48.819   8.621  12.387  0.00  0.00    +0.000 A 
ATOM      9  C   UNL     1      49.782   9.371  11.639  0.00  0.00    +0.000 A 
BRANCH   9  10
ATOM     10  C   UNL     1      51.095   8.641  11.458  0.00  0.00    +0.000 C 
ATOM     11  O   UNL     1      51.025   7.602  10.796  0.00  0.00    +0.000 OA
ATOM     12  N   UNL     1      52.319   9.013  12.036  0.00  0.00    +0.000 N 
ATOM     13  C   UNL     1      52.626  10.238  12.743  0.00  0.00    +0.000 C 
ATOM     14  C   UNL     1      53.464   8.127  11.847  0.00  0.00    +0.000 C 
ENDBRANCH   9  10
ENDBRANCH   2   7
ENDBRANCH   1   2
BRANCH   1  15
ATOM     15  C   UNL     1      45.393   6.970  11.500  0.00  0.00    +0.000 C 
BRANCH  15  16
ATOM     16  C   UNL     1      45.275   5.560  10.947  0.00  0.00    +0.000 A 
ATOM     17  C   UNL     1      44.750   4.530  11.740  0.00  0.00    +0.000 A 
ATOM     18  C   UNL     1      44.501   3.274  11.189  0.00  0.00    +0.000 A 
ATOM     19  C   UNL     1      44.774   3.035   9.839  0.00  0.00    +0.000 A 
ATOM     20 CL   UNL     1      44.387   1.477   9.188  0.00  0.00    +0.000 Cl
ATOM     21  C   UNL     1      45.303   4.047   9.015  0.00  0.00    +0.000 A 
ATOM     22  C   UNL     1      45.560   5.300   9.594  0.00  0.00    +0.000 A 
BRANCH  21  23
ATOM     23  N   UNL     1      45.620   3.782   7.655  0.00  0.00    +0.000 N 
ATOM     24  H   UNL     1      45.011   4.320   7.035  0.00  0.00    +0.000 HD
BRANCH  23  25
ATOM     25  C   UNL     1      46.922   3.507   7.129  0.00  0.00    +0.000 C 
ATOM     26  C   UNL     1      46.919   3.271   5.605  0.00  0.00    +0.000 C 
ATOM     27  C   UNL     1      47.759   2.005   5.835  0.00  0.00    +0.000 C 
ATOM     28  C   UNL     1      47.335   2.030   7.312  0.00  0.00    +0.000 C 
ENDBRANCH  23  25
ENDBRANCH  21  23
ENDBRANCH  15  16
ENDBRANCH   1  15
TORSDOF 7
ENDMDL
MODEL 5
REMARK VINA RESULT:    -6.029      1.574      1.985
REMARK INTER + INTRA:          -9.610
REMARK INTER:                  -8.526
REMARK INTRA:                  -1.084
REMARK UNBOUND:                -1.113
REMARK  Name = 
REMARK  10 active torsions:
REMARK  status: ('A' for Active; 'I' for Inactive)
REMARK    1  A    between atoms: C_1  and  C_2
REMARK    2  A    between atoms: C_5  and  O_6
REMARK    3  A    between atoms: O_6  and  C_7
REMARK    4  A    between atoms: C_7  and  C_8
REMARK    5  A    between atoms: C_8  and  C_9
REMARK    6  A    between atoms: C_14  and  N_15
REMARK    7  A    between atoms: N_15  and  C_16
REMARK    8  A    between atoms: C_22  and  C_23
REMARK    9  A    between atoms: N_25  and  C_26
REMARK   10  A    between atoms: N_25  and  C_27
REMARK                            x       y       z     vdW  Elec       q    Type
REMARK                         _______ _______ _______ _____ _____    ______ ____
ROOT
ATOM      1  C   UNL     1      49.081   7.135  13.700  0.00  0.00    +0.000 C 
ENDROOT
BRANCH   1   2
ATOM      2  O   UNL     1      48.982   8.048  14.801  0.00  0.00    +0.000 OA
BRANCH   2   7
ATOM      3  C   UNL     1      48.597   5.485  19.900  0.00  0.00    +0.000 C 
ATOM      4  C   UNL     1      48.633   6.025  18.499  0.00  0.00    +0.000 A 
ATOM      5  C   UNL     1      48.416   7.413  18.413  0.00  0.00    +0.000 A 
ATOM      6  C   UNL     1      48.518   8.103  17.201  0.00  0.00    +0.000 A 
ATOM      7  C   UNL     1      48.819   7.430  16.024  0.00  0.00    +0.000 A 
ATOM      8  C   UNL     1      48.986   6.042  16.090  0.00  0.00    +0.000 A 
ATOM      9  C   UNL     1      48.888   5.304  17.313  0.00  0.00    +0.000 A 
BRANCH   9  10
ATOM     10  C   UNL     1      49.253   3.843  17.157  0.00  0.00    +0.000 C 
ATOM     11  O   UNL     1      48.323   3.110  16.807  0.00  0.00    +0.000 OA
ATOM     12  N   UNL     1      50.505   3.282  17.451  0.00  0.00    +0.000 N 
ATOM     13  C   UNL     1      51.734   3.979  17.764  0.00  0.00    +0.000 C 
ATOM     14  C   UNL     1      50.647   1.831  17.351  0.00  0.00    +0.000 C 
ENDBRANCH   9  10
ENDBRANCH   2   7
ENDBRANCH   1   2
BRANCH   1  15
ATOM     15  C   UNL     1      48.551   7.680  12.368  0.00  0.00    +0.000 C 
BRANCH  15  16
ATOM     16  C   UNL     1      47.096   7.266  12.234  0.00  0.00    +0.000 A 
ATOM     17  C   UNL     1      46.073   8.213  12.386  0.00  0.00    +0.000 A 
ATOM     18  C   UNL     1      44.749   7.869  12.117  0.00  0.00    +0.000 A 
ATOM     19  C   UNL     1      44.434   6.575  11.691  0.00  0.00    +0.000 A 
ATOM     20 CL   UNL     1      42.783   6.217  11.308  0.00  0.00    +0.000 Cl
ATOM     21  C   UNL     1      45.437   5.599  11.530  0.00  0.00    +0.000 A 
ATOM     22  C   UNL     1      46.762   5.962  11.822  0.00  0.00    +0.000 A 
BRANCH  21  23
ATOM     23  N   UNL     1      45.103   4.274  11.142  0.00  0.00    +0.000 N 
ATOM     24  H   UNL     1      44.713   3.758  11.933  0.00  0.00    +0.000 HD
BRANCH  23  25
ATOM     25  C   UNL     1      44.617   3.866   9.860  0.00  0.00    +0.000 C 
ATOM     26  C   UNL     1      45.123   2.472   9.438  0.00  0.00    +0.000 C 
ATOM     27  C   UNL     1      45.509   3.062   8.073  0.00  0.00    +0.000 C 
ATOM     28  C   UNL     1      45.436   4.466   8.696  0.00  0.00    +0.000 C 
ENDBRANCH  23  25
ENDBRANCH  21  23
ENDBRANCH  15  16
ENDBRANCH   1  15
TORSDOF 7
ENDMDL
MODEL 6
REMARK VINA RESULT:    -6.025      3.134      5.052
REMARK INTER + INTRA:          -9.603
REMARK INTER:                  -8.637
REMARK INTRA:                  -0.966
REMARK UNBOUND:                -1.113
REMARK  Name = 
REMARK  10 active torsions:
REMARK  status: ('A' for Active; 'I' for Inactive)
REMARK    1  A    between atoms: C_1  and  C_2
REMARK    2  A    between atoms: C_5  and  O_6
REMARK    3  A    between atoms: O_6  and  C_7
REMARK    4  A    between atoms: C_7  and  C_8
REMARK    5  A    between atoms: C_8  and  C_9
REMARK    6  A    between atoms: C_14  and  N_15
REMARK    7  A    between atoms: N_15  and  C_16
REMARK    8  A    between atoms: C_22  and  C_23
REMARK    9  A    between atoms: N_25  and  C_26
REMARK   10  A    between atoms: N_25  and  C_27
REMARK                            x       y       z     vdW  Elec       q    Type
REMARK                         _______ _______ _______ _____ _____    ______ ____
ROOT
ATOM      1  C   UNL     1      47.161   4.175  15.578  0.00  0.00    +0.000 C 
ENDROOT
BRANCH   1   2
ATOM      2  O   UNL     1      47.429   3.261  16.650  0.00  0.00    +0.000 OA
BRANCH   2   7
ATOM      3  C   UNL     1      52.903   2.770  18.235  0.00  0.00    +0.000 C 
ATOM      4  C   UNL     1      51.502   3.047  17.770  0.00  0.00    +0.000 A 
ATOM      5  C   UNL     1      50.840   1.924  17.243  0.00  0.00    +0.000 A 
ATOM      6  C   UNL     1      49.496   1.971  16.858  0.00  0.00    +0.000 A 
ATOM      7  C   UNL     1      48.768   3.149  16.965  0.00  0.00    +0.000 A 
ATOM      8  C   UNL     1      49.432   4.286  17.441  0.00  0.00    +0.000 A 
ATOM      9  C   UNL     1      50.806   4.273  17.843  0.00  0.00    +0.000 A 
BRANCH   9  10
ATOM     10  C   UNL     1      51.259   5.580  18.459  0.00  0.00    +0.000 C 
ATOM     11  O   UNL     1      50.968   5.720  19.650  0.00  0.00    +0.000 OA
ATOM     12  N   UNL     1      51.889   6.628  17.771  0.00  0.00    +0.000 N 
ATOM     13  C   UNL     1      52.406   6.612  16.419  0.00  0.00    +0.000 C 
ATOM     14  C   UNL     1      52.154   7.865  18.500  0.00  0.00    +0.000 C 
ENDBRANCH   9  10
ENDBRANCH   2   7
ENDBRANCH   1   2
BRANCH   1  15
ATOM     15  C   UNL     1      47.212   3.549  14.178  0.00  0.00    +0.000 C 
BRANCH  15  16
ATOM     16  C   UNL     1      46.171   4.240  13.314  0.00  0.00    +0.000 A 
ATOM     17  C   UNL     1      45.267   3.485  12.554  0.00  0.00    +0.000 A 
ATOM     18  C   UNL     1      44.219   4.109  11.881  0.00  0.00    +0.000 A 
ATOM     19  C   UNL     1      44.062   5.496  11.961  0.00  0.00    +0.000 A 
ATOM     20 CL   UNL     1      42.707   6.216  11.159  0.00  0.00    +0.000 Cl
ATOM     21  C   UNL     1      44.953   6.285  12.714  0.00  0.00    +0.000 A 
ATOM     22  C   UNL     1      46.012   5.637  13.373  0.00  0.00    +0.000 A 
BRANCH  21  23
ATOM     23  N   UNL     1      44.815   7.698  12.753  0.00  0.00    +0.000 N 
ATOM     24  H   UNL     1      44.805   8.030  13.720  0.00  0.00    +0.000 HD
BRANCH  23  25
ATOM     25  C   UNL     1      45.349   8.627  11.804  0.00  0.00    +0.000 C 
ATOM     26  C   UNL     1      46.761   9.124  12.175  0.00  0.00    +0.000 C 
ATOM     27  C   UNL     1      46.283  10.562  11.921  0.00  0.00    +0.000 C 
ATOM     28  C   UNL     1      44.832  10.065  12.027  0.00  0.00    +0.000 C 
ENDBRANCH  23  25
ENDBRANCH  21  23
ENDBRANCH  15  16
ENDBRANCH   1  15
TORSDOF 7
ENDMDL
MODEL 7
REMARK VINA RESULT:    -5.810      2.459      3.774
REMARK INTER + INTRA:          -9.301
REMARK INTER:                  -8.328
REMARK INTRA:                  -0.973
REMARK UNBOUND:                -1.113
REMARK  Name = 
REMARK  10 active torsions:
REMARK  status: ('A' for Active; 'I' for Inactive)
REMARK    1  A    between atoms: C_1  and  C_2
REMARK    2  A    between atoms: C_5  and  O_6
REMARK    3  A    between atoms: O_6  and  C_7
REMARK    4  A    between atoms: C_7  and  C_8
REMARK    5  A    between atoms: C_8  and  C_9
REMARK    6  A    between atoms: C_14  and  N_15
REMARK    7  A    between atoms: N_15  and  C_16
REMARK    8  A    between atoms: C_22  and  C_23
REMARK    9  A    between atoms: N_25  and  C_26
REMARK   10  A    between atoms: N_25  and  C_27
REMARK                            x       y       z     vdW  Elec       q    Type
REMARK                         _______ _______ _______ _____ _____    ______ ____
ROOT
ATOM      1  C   UNL     1      47.437   4.432  15.525  0.00  0.00    +0.000 C 
ENDROOT
BRANCH   1   2
ATOM      2  O   UNL     1      47.479   3.636  16.717  0.00  0.00    +0.000 OA
BRANCH   2   7
ATOM      3  C   UNL     1      49.308   6.442  21.355  0.00  0.00    +0.000 C 
ATOM      4  C   UNL     1      48.891   5.824  20.051  0.00  0.00    +0.000 A 
ATOM      5  C   UNL     1      48.923   4.418  20.046  0.00  0.00    +0.000 A 
ATOM      6  C   UNL     1      48.469   3.672  18.953  0.00  0.00    +0.000 A 
ATOM      7  C   UNL     1      47.987   4.304  17.814  0.00  0.00    +0.000 A 
ATOM      8  C   UNL     1      47.998   5.703  17.788  0.00  0.00    +0.000 A 
ATOM      9  C   UNL     1      48.456   6.497  18.888  0.00  0.00    +0.000 A 
BRANCH   9  10
ATOM     10  C   UNL     1      48.236   7.980  18.684  0.00  0.00    +0.000 C 
ATOM     11  O   UNL     1      47.084   8.368  18.896  0.00  0.00    +0.000 OA
ATOM     12  N   UNL     1      49.197   8.888  18.213  0.00  0.00    +0.000 N 
ATOM     13  C   UNL     1      50.612   8.654  18.016  0.00  0.00    +0.000 C 
ATOM     14  C   UNL     1      48.778  10.265  17.967  0.00  0.00    +0.000 C 
ENDBRANCH   9  10
ENDBRANCH   2   7
ENDBRANCH   1   2
BRANCH   1  15
ATOM     15  C   UNL     1      47.362   3.627  14.222  0.00  0.00    +0.000 C 
BRANCH  15  16
ATOM     16  C   UNL     1      46.136   4.087  13.452  0.00  0.00    +0.000 A 
ATOM     17  C   UNL     1      45.622   5.377  13.643  0.00  0.00    +0.000 A 
ATOM     18  C   UNL     1      44.593   5.852  12.832  0.00  0.00    +0.000 A 
ATOM     19  C   UNL     1      44.068   5.043  11.820  0.00  0.00    +0.000 A 
ATOM     20 CL   UNL     1      42.835   5.705  10.799  0.00  0.00    +0.000 Cl
ATOM     21  C   UNL     1      44.561   3.742  11.601  0.00  0.00    +0.000 A 
ATOM     22  C   UNL     1      45.587   3.277  12.440  0.00  0.00    +0.000 A 
BRANCH  21  23
ATOM     23  N   UNL     1      43.991   2.910  10.601  0.00  0.00    +0.000 N 
ATOM     24  H   UNL     1      43.009   2.720  10.812  0.00  0.00    +0.000 HD
BRANCH  23  25
ATOM     25  C   UNL     1      44.316   2.919   9.208  0.00  0.00    +0.000 C 
ATOM     26  C   UNL     1      45.394   1.882   8.832  0.00  0.00    +0.000 C 
ATOM     27  C   UNL     1      46.139   2.986   8.065  0.00  0.00    +0.000 C 
ATOM     28  C   UNL     1      45.322   4.032   8.841  0.00  0.00    +0.000 C 
ENDBRANCH  23  25
ENDBRANCH  21  23
ENDBRANCH  15  16
ENDBRANCH   1  15
TORSDOF 7
ENDMDL
MODEL 8
REMARK VINA RESULT:    -5.775      3.335      5.126
REMARK INTER + INTRA:          -9.252
REMARK INTER:                  -7.947
REMARK INTRA:                  -1.305
REMARK UNBOUND:                -1.113
REMARK  Name = 
REMARK  10 active torsions:
REMARK  status: ('A' for Active; 'I' for Inactive)
REMARK    1  A    between atoms: C_1  and  C_2
REMARK    2  A    between atoms: C_5  and  O_6
REMARK    3  A    between atoms: O_6  and  C_7
REMARK    4  A    between atoms: C_7  and  C_8
REMARK    5  A    between atoms: C_8  and  C_9
REMARK    6  A    between atoms: C_14  and  N_15
REMARK    7  A    between atoms: N_15  and  C_16
REMARK    8  A    between atoms: C_22  and  C_23
REMARK    9  A    between atoms: N_25  and  C_26
REMARK   10  A    between atoms: N_25  and  C_27
REMARK                            x       y       z     vdW  Elec       q    Type
REMARK                         _______ _______ _______ _____ _____    ______ ____
ROOT
ATOM      1  C   UNL     1      46.857   3.885  13.922  0.00  0.00    +0.000 C 
ENDROOT
BRANCH   1   2
ATOM      2  O   UNL     1      46.591   3.922  15.331  0.00  0.00    +0.000 OA
BRANCH   2   7
ATOM      3  C   UNL     1      51.134   4.284  18.789  0.00  0.00    +0.000 C 
ATOM      4  C   UNL     1      50.003   4.313  17.801  0.00  0.00    +0.000 A 
ATOM      5  C   UNL     1      49.482   3.045  17.487  0.00  0.00    +0.000 A 
ATOM      6  C   UNL     1      48.360   2.889  16.667  0.00  0.00    +0.000 A 
ATOM      7  C   UNL     1      47.729   3.993  16.110  0.00  0.00    +0.000 A 
ATOM      8  C   UNL     1      48.269   5.257  16.375  0.00  0.00    +0.000 A 
ATOM      9  C   UNL     1      49.416   5.453  17.209  0.00  0.00    +0.000 A 
BRANCH   9  10
ATOM     10  C   UNL     1      49.724   6.912  17.465  0.00  0.00    +0.000 C 
ATOM     11  O   UNL     1      49.018   7.449  18.323  0.00  0.00    +0.000 OA
ATOM     12  N   UNL     1      50.666   7.681  16.764  0.00  0.00    +0.000 N 
ATOM     13  C   UNL     1      51.653   7.215  15.813  0.00  0.00    +0.000 C 
ATOM     14  C   UNL     1      50.752   9.107  17.067  0.00  0.00    +0.000 C 
ENDBRANCH   9  10
ENDBRANCH   2   7
ENDBRANCH   1   2
BRANCH   1  15
ATOM     15  C   UNL     1      45.782   4.548  13.052  0.00  0.00    +0.000 C 
BRANCH  15  16
ATOM     16  C   UNL     1      46.140   6.016  12.897  0.00  0.00    +0.000 A 
ATOM     17  C   UNL     1      47.480   6.427  12.931  0.00  0.00    +0.000 A 
ATOM     18  C   UNL     1      47.821   7.747  12.640  0.00  0.00    +0.000 A 
ATOM     19  C   UNL     1      46.824   8.670  12.309  0.00  0.00    +0.000 A 
ATOM     20 CL   UNL     1      47.306  10.281  11.893  0.00  0.00    +0.000 Cl
ATOM     21  C   UNL     1      45.468   8.292  12.266  0.00  0.00    +0.000 A 
ATOM     22  C   UNL     1      45.146   6.961  12.578  0.00  0.00    +0.000 A 
BRANCH  21  23
ATOM     23  N   UNL     1      44.459   9.247  11.974  0.00  0.00    +0.000 N 
ATOM     24  H   UNL     1      44.524  10.042  12.613  0.00  0.00    +0.000 HD
BRANCH  23  25
ATOM     25  C   UNL     1      43.939   9.559  10.678  0.00  0.00    +0.000 C 
ATOM     26  C   UNL     1      44.202  11.018  10.257  0.00  0.00    +0.000 C 
ATOM     27  C   UNL     1      42.722  11.134   9.859  0.00  0.00    +0.000 C 
ATOM     28  C   UNL     1      42.430   9.886  10.708  0.00  0.00    +0.000 C 
ENDBRANCH  23  25
ENDBRANCH  21  23
ENDBRANCH  15  16
ENDBRANCH   1  15
TORSDOF 7
ENDMDL
MODEL 9
REMARK VINA RESULT:    -5.616      3.256      5.455
REMARK INTER + INTRA:          -9.027
REMARK INTER:                  -7.454
REMARK INTRA:                  -1.573
REMARK UNBOUND:                -1.113
REMARK  Name = 
REMARK  10 active torsions:
REMARK  status: ('A' for Active; 'I' for Inactive)
REMARK    1  A    between atoms: C_1  and  C_2
REMARK    2  A    between atoms: C_5  and  O_6
REMARK    3  A    between atoms: O_6  and  C_7
REMARK    4  A    between atoms: C_7  and  C_8
REMARK    5  A    between atoms: C_8  and  C_9
REMARK    6  A    between atoms: C_14  and  N_15
REMARK    7  A    between atoms: N_15  and  C_16
REMARK    8  A    between atoms: C_22  and  C_23
REMARK    9  A    between atoms: N_25  and  C_26
REMARK   10  A    between atoms: N_25  and  C_27
REMARK                            x       y       z     vdW  Elec       q    Type
REMARK                         _______ _______ _______ _____ _____    ______ ____
ROOT
ATOM      1  C   UNL     1      46.925   4.500  13.800  0.00  0.00    +0.000 C 
ENDROOT
BRANCH   1   2
ATOM      2  O   UNL     1      46.679   3.676  14.948  0.00  0.00    +0.000 OA
BRANCH   2   7
ATOM      3  C   UNL     1      49.679   5.163  19.585  0.00  0.00    +0.000 C 
ATOM      4  C   UNL     1      48.999   4.855  18.283  0.00  0.00    +0.000 A 
ATOM      5  C   UNL     1      48.404   3.581  18.233  0.00  0.00    +0.000 A 
ATOM      6  C   UNL     1      47.639   3.165  17.138  0.00  0.00    +0.000 A 
ATOM      7  C   UNL     1      47.457   3.997  16.042  0.00  0.00    +0.000 A 
ATOM      8  C   UNL     1      48.087   5.247  16.059  0.00  0.00    +0.000 A 
ATOM      9  C   UNL     1      48.877   5.705  17.161  0.00  0.00    +0.000 A 
BRANCH   9  10
ATOM     10  C   UNL     1      49.331   7.141  17.013  0.00  0.00    +0.000 C 
ATOM     11  O   UNL     1      50.250   7.315  16.208  0.00  0.00    +0.000 OA
ATOM     12  N   UNL     1      48.849   8.227  17.760  0.00  0.00    +0.000 N 
ATOM     13  C   UNL     1      47.715   8.247  18.659  0.00  0.00    +0.000 C 
ATOM     14  C   UNL     1      49.482   9.529  17.565  0.00  0.00    +0.000 C 
ENDBRANCH   9  10
ENDBRANCH   2   7
ENDBRANCH   1   2
BRANCH   1  15
ATOM     15  C   UNL     1      45.694   4.756  12.923  0.00  0.00    +0.000 C 
BRANCH  15  16
ATOM     16  C   UNL     1      45.666   6.233  12.568  0.00  0.00    +0.000 A 
ATOM     17  C   UNL     1      44.718   6.726  11.661  0.00  0.00    +0.000 A 
ATOM     18  C   UNL     1      44.593   8.098  11.449  0.00  0.00    +0.000 A 
ATOM     19  C   UNL     1      45.414   8.992  12.143  0.00  0.00    +0.000 A 
ATOM     20 CL   UNL     1      45.175  10.689  11.891  0.00  0.00    +0.000 Cl
ATOM     21  C   UNL     1      46.378   8.530  13.060  0.00  0.00    +0.000 A 
ATOM     22  C   UNL     1      46.498   7.143  13.247  0.00  0.00    +0.000 A 
BRANCH  21  23
ATOM     23  N   UNL     1      47.240   9.442  13.726  0.00  0.00    +0.000 N 
ATOM     24  H   UNL     1      46.898   9.632  14.670  0.00  0.00    +0.000 HD
BRANCH  23  25
ATOM     25  C   UNL     1      48.660   9.530  13.571  0.00  0.00    +0.000 C 
ATOM     26  C   UNL     1      49.209  10.947  13.833  0.00  0.00    +0.000 C 
ATOM     27  C   UNL     1      50.004  10.844  12.522  0.00  0.00    +0.000 C 
ATOM     28  C   UNL     1      49.087   9.685  12.095  0.00  0.00    +0.000 C 
ENDBRANCH  23  25
ENDBRANCH  21  23
ENDBRANCH  15  16
ENDBRANCH   1  15
TORSDOF 7
ENDMDL
