MODEL 1
REMARK VINA RESULT:    -8.252      0.000      0.000
REMARK INTER + INTRA:         -11.313
REMARK INTER:                 -11.147
REMARK INTRA:                  -0.166
REMARK UNBOUND:                -0.166
REMARK  Name = 
REMARK  7 active torsions:
REMARK  status: ('A' for Active; 'I' for Inactive)
REMARK    1  A    between atoms: C_2  and  O_3
REMARK    2  A    between atoms: C_2  and  C_4
REMARK    3  A    between atoms: C_7  and  C_8
REMARK    4  A    between atoms: C_8  and  C_9
REMARK    5  A    between atoms: C_9  and  O_10
REMARK    6  A    between atoms: C_9  and  C_11
REMARK    7  A    between atoms: C_15  and  C_16
REMARK                            x       y       z     vdW  Elec       q    Type
REMARK                         _______ _______ _______ _____ _____    ______ ____
ROOT
ATOM      1  C   UNL     1      44.675   5.687  11.586  0.00  0.00    +0.000 C 
ENDROOT
BRANCH   1   2
ATOM      2  C   UNL     1      46.006   5.910  12.281  0.00  0.00    +0.000 A 
ATOM      3  C   UNL     1      46.881   6.888  11.784  0.00  0.00    +0.000 A 
ATOM      4  C   UNL     1      48.067   7.193  12.449  0.00  0.00    +0.000 A 
ATOM      5  C   UNL     1      48.384   6.544  13.643  0.00  0.00    +0.000 A 
ATOM      6  C   UNL     1      47.515   5.593  14.202  0.00  0.00    +0.000 A 
ATOM      7  C   UNL     1      46.342   5.275  13.487  0.00  0.00    +0.000 A 
BRANCH   6   8
ATOM      8  C   UNL     1      47.752   5.002  15.529  0.00  0.00    +0.000 A 
ATOM      9  C   UNL     1      46.973   3.958  16.035  0.00  0.00    +0.000 A 
ATOM     10  N   UNL     1      47.233   3.328  17.207  0.00  0.00    +0.000 NA
ATOM     11  C   UNL     1      48.322   3.776  17.867  0.00  0.00    +0.000 A 
ATOM     12  C   UNL     1      49.102   4.813  17.387  0.00  0.00    +0.000 A 
ATOM     13  N   UNL     1      48.841   5.444  16.216  0.00  0.00    +0.000 NA
ENDBRANCH   6   8
ENDBRANCH   1   2
BRANCH   1  14
ATOM     14  C   UNL     1      44.358   4.239  11.199  0.00  0.00    +0.000 C 
ATOM     15  C   UNL     1      44.024   3.152  12.225  0.00  0.00    +0.000 C 
ATOM     16  C   UNL     1      42.919   3.790  11.446  0.00  0.00    +0.000 C 
BRANCH  14  20
ATOM     17  C   UNL     1      46.327   2.856   7.627  0.00  0.00    +0.000 A 
ATOM     18  C   UNL     1      46.206   4.225   7.839  0.00  0.00    +0.000 A 
ATOM     19  C   UNL     1      45.560   4.674   8.990  0.00  0.00    +0.000 A 
ATOM     20  C   UNL     1      45.021   3.760   9.903  0.00  0.00    +0.000 A 
ATOM     21  N   UNL     1      45.108   2.426   9.674  0.00  0.00    +0.000 NA
ATOM     22  C   UNL     1      45.748   2.001   8.551  0.00  0.00    +0.000 A 
BRANCH  17  24
ATOM     23  O   UNL     1      47.511   1.172   6.465  0.00  0.00    +0.000 OA
ATOM     24  C   UNL     1      47.010   2.282   6.454  0.00  0.00    +0.000 C 
BRANCH  24  25
ATOM     25  O   UNL     1      47.066   3.112   5.392  0.00  0.00    +0.000 OA
ATOM     26  H   UNL     1      46.391   3.815   5.370  0.00  0.00    +0.000 HD
ENDBRANCH  24  25
ENDBRANCH  17  24
ENDBRANCH  14  20
ENDBRANCH   1  14
BRANCH   1  27
ATOM     27  O   UNL     1      43.666   6.224  12.451  0.00  0.00    +0.000 OA
ATOM     28  H   UNL     1      42.828   6.172  11.967  0.00  0.00    +0.000 HD
ENDBRANCH   1  27
TORSDOF 7
ENDMDL
MODEL 2
REMARK VINA RESULT:    -8.072      2.874      4.299
REMARK INTER + INTRA:         -11.069
REMARK INTER:                 -10.042
REMARK INTRA:                  -1.027
REMARK UNBOUND:                -0.166
REMARK  Name = 
REMARK  7 active torsions:
REMARK  status: ('A' for Active; 'I' for Inactive)
REMARK    1  A    between atoms: C_2  and  O_3
REMARK    2  A    between atoms: C_2  and  C_4
REMARK    3  A    between atoms: C_7  and  C_8
REMARK    4  A    between atoms: C_8  and  C_9
REMARK    5  A    between atoms: C_9  and  O_10
REMARK    6  A    between atoms: C_9  and  C_11
REMARK    7  A    between atoms: C_15  and  C_16
REMARK                            x       y       z     vdW  Elec       q    Type
REMARK                         _______ _______ _______ _____ _____    ______ ____
ROOT
ATOM      1  C   UNL     1      44.982   4.640  12.797  0.00  0.00    +0.000 C 
ENDROOT
BRANCH   1   2
ATOM      2  C   UNL     1      45.997   5.766  12.869  0.00  0.00    +0.000 A 
ATOM      3  C   UNL     1      47.353   5.454  13.047  0.00  0.00    +0.000 A 
ATOM      4  C   UNL     1      48.327   6.450  13.019  0.00  0.00    +0.000 A 
ATOM      5  C   UNL     1      47.963   7.776  12.782  0.00  0.00    +0.000 A 
ATOM      6  C   UNL     1      46.623   8.128  12.552  0.00  0.00    +0.000 A 
ATOM      7  C   UNL     1      45.654   7.106  12.625  0.00  0.00    +0.000 A 
BRANCH   6   8
ATOM      8  C   UNL     1      46.228   9.489  12.155  0.00  0.00    +0.000 A 
ATOM      9  C   UNL     1      44.896   9.906  12.127  0.00  0.00    +0.000 A 
ATOM     10  N   UNL     1      44.513  11.180  11.866  0.00  0.00    +0.000 NA
ATOM     11  C   UNL     1      45.524  12.045  11.638  0.00  0.00    +0.000 A 
ATOM     12  C   UNL     1      46.850  11.651  11.655  0.00  0.00    +0.000 A 
ATOM     13  N   UNL     1      47.232  10.377  11.914  0.00  0.00    +0.000 NA
ENDBRANCH   6   8
ENDBRANCH   1   2
BRANCH   1  14
ATOM     14  C   UNL     1      44.076   4.636  11.561  0.00  0.00    +0.000 C 
ATOM     15  C   UNL     1      42.553   4.490  11.640  0.00  0.00    +0.000 C 
ATOM     16  C   UNL     1      43.149   5.843  11.418  0.00  0.00    +0.000 C 
BRANCH  14  20
ATOM     17  C   UNL     1      46.035   3.123   8.036  0.00  0.00    +0.000 A 
ATOM     18  C   UNL     1      45.990   4.498   8.242  0.00  0.00    +0.000 A 
ATOM     19  C   UNL     1      45.347   4.989   9.377  0.00  0.00    +0.000 A 
ATOM     20  C   UNL     1      44.737   4.113  10.281  0.00  0.00    +0.000 A 
ATOM     21  N   UNL     1      44.749   2.775  10.058  0.00  0.00    +0.000 NA
ATOM     22  C   UNL     1      45.387   2.308   8.951  0.00  0.00    +0.000 A 
BRANCH  17  24
ATOM     23  O   UNL     1      47.035   1.332   6.862  0.00  0.00    +0.000 OA
ATOM     24  C   UNL     1      46.708   2.505   6.881  0.00  0.00    +0.000 C 
BRANCH  24  25
ATOM     25  O   UNL     1      46.963   3.363   5.872  0.00  0.00    +0.000 OA
ATOM     26  H   UNL     1      47.857   3.751   5.863  0.00  0.00    +0.000 HD
ENDBRANCH  24  25
ENDBRANCH  17  24
ENDBRANCH  14  20
ENDBRANCH   1  14
BRANCH   1  27
ATOM     27  O   UNL     1      45.720   3.416  12.903  0.00  0.00    +0.000 OA
ATOM     28  H   UNL     1      46.093   3.391  13.797  0.00  0.00    +0.000 HD
ENDBRANCH   1  27
TORSDOF 7
ENDMDL
MODEL 3
REMARK VINA RESULT:    -7.496      2.850      7.498
REMARK INTER + INTRA:         -10.291
REMARK INTER:                 -10.117
REMARK INTRA:                  -0.174
REMARK UNBOUND:                -0.166
REMARK  Name = 
REMARK  7 active torsions:
REMARK  status: ('A' for Active; 'I' for Inactive)
REMARK    1  A    between atoms: C_2  and  O_3
REMARK    2  A    between atoms: C_2  and  C_4
REMARK    3  A    between atoms: C_7  and  C_8
REMARK    4  A    between atoms: C_8  and  C_9
REMARK    5  A    between atoms: C_9  and  O_10
REMARK    6  A    between atoms: C_9  and  C_11
REMARK    7  A    between atoms: C_15  and  C_16
REMARK                            x       y       z     vdW  Elec       q    Type
REMARK                         _______ _______ _______ _____ _____    ______ ____
ROOT
ATOM      1  C   UNL     1      45.799   7.413  12.724  0.00  0.00    +0.000 C 
ENDROOT
BRANCH   1   2
ATOM      2  C   UNL     1      45.011   6.277  12.099  0.00  0.00    +0.000 A 
ATOM      3  C   UNL     1      43.666   6.099  12.457  0.00  0.00    +0.000 A 
ATOM      4  C   UNL     1      42.880   5.132  11.833  0.00  0.00    +0.000 A 
ATOM      5  C   UNL     1      43.419   4.344  10.816  0.00  0.00    +0.000 A 
ATOM      6  C   UNL     1      44.747   4.519  10.393  0.00  0.00    +0.000 A 
ATOM      7  C   UNL     1      45.531   5.476  11.068  0.00  0.00    +0.000 A 
BRANCH   6   8
ATOM      8  C   UNL     1      45.297   3.806   9.229  0.00  0.00    +0.000 A 
ATOM      9  C   UNL     1      45.854   4.473   8.135  0.00  0.00    +0.000 A 
ATOM     10  N   UNL     1      46.460   3.842   7.100  0.00  0.00    +0.000 NA
ATOM     11  C   UNL     1      46.500   2.496   7.196  0.00  0.00    +0.000 A 
ATOM     12  C   UNL     1      45.948   1.816   8.267  0.00  0.00    +0.000 A 
ATOM     13  N   UNL     1      45.341   2.447   9.301  0.00  0.00    +0.000 NA
ENDBRANCH   6   8
ENDBRANCH   1   2
BRANCH   1  14
ATOM     14  C   UNL     1      47.269   7.113  13.037  0.00  0.00    +0.000 C 
ATOM     15  C   UNL     1      48.382   7.199  11.987  0.00  0.00    +0.000 C 
ATOM     16  C   UNL     1      48.215   8.312  12.971  0.00  0.00    +0.000 C 
BRANCH  14  20
ATOM     17  C   UNL     1      47.778   4.331  16.285  0.00  0.00    +0.000 A 
ATOM     18  C   UNL     1      48.452   5.547  16.330  0.00  0.00    +0.000 A 
ATOM     19  C   UNL     1      48.297   6.443  15.274  0.00  0.00    +0.000 A 
ATOM     20  C   UNL     1      47.494   6.114  14.177  0.00  0.00    +0.000 A 
ATOM     21  N   UNL     1      46.867   4.912  14.118  0.00  0.00    +0.000 NA
ATOM     22  C   UNL     1      47.021   4.049  15.159  0.00  0.00    +0.000 A 
BRANCH  17  24
ATOM     23  O   UNL     1      48.918   2.965  17.841  0.00  0.00    +0.000 OA
ATOM     24  C   UNL     1      47.859   3.326  17.359  0.00  0.00    +0.000 C 
BRANCH  24  25
ATOM     25  O   UNL     1      46.665   2.818  17.725  0.00  0.00    +0.000 OA
ATOM     26  H   UNL     1      45.916   3.443  17.705  0.00  0.00    +0.000 HD
ENDBRANCH  24  25
ENDBRANCH  17  24
ENDBRANCH  14  20
ENDBRANCH   1  14
BRANCH   1  27
ATOM     27  O   UNL     1      45.675   8.533  11.840  0.00  0.00    +0.000 OA
ATOM     28  H   UNL     1      46.557   8.697  11.472  0.00  0.00    +0.000 HD
ENDBRANCH   1  27
TORSDOF 7
ENDMDL
MODEL 4
REMARK VINA RESULT:    -7.464      3.426      5.149
REMARK INTER + INTRA:         -10.247
REMARK INTER:                  -8.758
REMARK INTRA:                  -1.490
REMARK UNBOUND:                -0.166
REMARK  Name = 
REMARK  7 active torsions:
REMARK  status: ('A' for Active; 'I' for Inactive)
REMARK    1  A    between atoms: C_2  and  O_3
REMARK    2  A    between atoms: C_2  and  C_4
REMARK    3  A    between atoms: C_7  and  C_8
REMARK    4  A    between atoms: C_8  and  C_9
REMARK    5  A    between atoms: C_9  and  O_10
REMARK    6  A    between atoms: C_9  and  C_11
REMARK    7  A    between atoms: C_15  and  C_16
REMARK                            x       y       z     vdW  Elec       q    Type
REMARK                         _______ _______ _______ _____ _____    ______ ____
ROOT
ATOM      1  C   UNL     1      48.218   9.079  14.013  0.00  0.00    +0.000 C 
ENDROOT
BRANCH   1   2
ATOM      2  C   UNL     1      49.056   8.157  14.879  0.00  0.00    +0.000 A 
ATOM      3  C   UNL     1      50.279   8.620  15.387  0.00  0.00    +0.000 A 
ATOM      4  C   UNL     1      51.030   7.843  16.266  0.00  0.00    +0.000 A 
ATOM      5  C   UNL     1      50.555   6.597  16.677  0.00  0.00    +0.000 A 
ATOM      6  C   UNL     1      49.315   6.113  16.231  0.00  0.00    +0.000 A 
ATOM      7  C   UNL     1      48.594   6.902  15.311  0.00  0.00    +0.000 A 
BRANCH   6   8
ATOM      8  C   UNL     1      48.722   4.873  16.759  0.00  0.00    +0.000 A 
ATOM      9  C   UNL     1      47.343   4.695  16.883  0.00  0.00    +0.000 A 
ATOM     10  N   UNL     1      46.768   3.528  17.268  0.00  0.00    +0.000 NA
ATOM     11  C   UNL     1      47.632   2.523  17.523  0.00  0.00    +0.000 A 
ATOM     12  C   UNL     1      49.002   2.682  17.413  0.00  0.00    +0.000 A 
ATOM     13  N   UNL     1      49.576   3.848  17.030  0.00  0.00    +0.000 NA
ENDBRANCH   6   8
ENDBRANCH   1   2
BRANCH   1  14
ATOM     14  C   UNL     1      48.151   8.719  12.525  0.00  0.00    +0.000 C 
ATOM     15  C   UNL     1      48.833   9.548  11.431  0.00  0.00    +0.000 C 
ATOM     16  C   UNL     1      49.471   8.277  11.892  0.00  0.00    +0.000 C 
BRANCH  14  20
ATOM     17  C   UNL     1      44.563   6.585  11.465  0.00  0.00    +0.000 A 
ATOM     18  C   UNL     1      45.760   5.882  11.555  0.00  0.00    +0.000 A 
ATOM     19  C   UNL     1      46.924   6.574  11.887  0.00  0.00    +0.000 A 
ATOM     20  C   UNL     1      46.890   7.956  12.103  0.00  0.00    +0.000 A 
ATOM     21  N   UNL     1      45.728   8.644  11.978  0.00  0.00    +0.000 NA
ATOM     22  C   UNL     1      44.598   7.956  11.661  0.00  0.00    +0.000 A 
BRANCH  17  24
ATOM     23  O   UNL     1      43.195   4.967  10.418  0.00  0.00    +0.000 OA
ATOM     24  C   UNL     1      43.277   5.943  11.142  0.00  0.00    +0.000 C 
BRANCH  24  25
ATOM     25  O   UNL     1      42.207   6.558  11.685  0.00  0.00    +0.000 OA
ATOM     26  H   UNL     1      41.357   6.408  11.229  0.00  0.00    +0.000 HD
ENDBRANCH  24  25
ENDBRANCH  17  24
ENDBRANCH  14  20
ENDBRANCH   1  14
BRANCH   1  27
ATOM     27  O   UNL     1      46.910   9.113  14.597  0.00  0.00    +0.000 OA
ATOM     28  H   UNL     1      46.433   8.339  14.259  0.00  0.00    +0.000 HD
ENDBRANCH   1  27
TORSDOF 7
ENDMDL
MODEL 5
REMARK VINA RESULT:    -7.434      1.786      2.497
REMARK INTER + INTRA:         -10.207
REMARK INTER:                  -9.529
REMARK INTRA:                  -0.678
REMARK UNBOUND:                -0.166
REMARK  Name = 
REMARK  7 active torsions:
REMARK  status: ('A' for Active; 'I' for Inactive)
REMARK    1  A    between atoms: C_2  and  O_3
REMARK    2  A    between atoms: C_2  and  C_4
REMARK    3  A    between atoms: C_7  and  C_8
REMARK    4  A    between atoms: C_8  and  C_9
REMARK    5  A    between atoms: C_9  and  O_10
REMARK    6  A    between atoms: C_9  and  C_11
REMARK    7  A    between atoms: C_15  and  C_16
REMARK                            x       y       z     vdW  Elec       q    Type
REMARK                         _______ _______ _______ _____ _____    ______ ____
ROOT
ATOM      1  C   UNL     1      44.880   5.219  12.912  0.00  0.00    +0.000 C 
ENDROOT
BRANCH   1   2
ATOM      2  C   UNL     1      45.950   6.294  12.855  0.00  0.00    +0.000 A 
ATOM      3  C   UNL     1      45.663   7.511  12.219  0.00  0.00    +0.000 A 
ATOM      4  C   UNL     1      46.581   8.560  12.232  0.00  0.00    +0.000 A 
ATOM      5  C   UNL     1      47.794   8.418  12.908  0.00  0.00    +0.000 A 
ATOM      6  C   UNL     1      48.103   7.234  13.597  0.00  0.00    +0.000 A 
ATOM      7  C   UNL     1      47.173   6.176  13.535  0.00  0.00    +0.000 A 
BRANCH   6   8
ATOM      8  C   UNL     1      49.304   7.110  14.438  0.00  0.00    +0.000 A 
ATOM      9  C   UNL     1      50.470   7.840  14.194  0.00  0.00    +0.000 A 
ATOM     10  N   UNL     1      51.551   7.822  15.011  0.00  0.00    +0.000 NA
ATOM     11  C   UNL     1      51.427   7.043  16.106  0.00  0.00    +0.000 A 
ATOM     12  C   UNL     1      50.284   6.306  16.362  0.00  0.00    +0.000 A 
ATOM     13  N   UNL     1      49.204   6.323  15.544  0.00  0.00    +0.000 NA
ENDBRANCH   6   8
ENDBRANCH   1   2
BRANCH   1  14
ATOM     14  C   UNL     1      43.983   5.103  11.675  0.00  0.00    +0.000 C 
ATOM     15  C   UNL     1      42.453   5.081  11.750  0.00  0.00    +0.000 C 
ATOM     16  C   UNL     1      43.148   6.341  11.347  0.00  0.00    +0.000 C 
BRANCH  14  20
ATOM     17  C   UNL     1      45.846   2.969   8.431  0.00  0.00    +0.000 A 
ATOM     18  C   UNL     1      45.869   4.360   8.421  0.00  0.00    +0.000 A 
ATOM     19  C   UNL     1      45.257   5.052   9.464  0.00  0.00    +0.000 A 
ATOM     20  C   UNL     1      44.610   4.357  10.493  0.00  0.00    +0.000 A 
ATOM     21  N   UNL     1      44.557   3.002  10.480  0.00  0.00    +0.000 NA
ATOM     22  C   UNL     1      45.165   2.338   9.460  0.00  0.00    +0.000 A 
BRANCH  17  24
ATOM     23  O   UNL     1      46.891   1.020   7.598  0.00  0.00    +0.000 OA
ATOM     24  C   UNL     1      46.482   2.147   7.387  0.00  0.00    +0.000 C 
BRANCH  24  25
ATOM     25  O   UNL     1      46.606   2.772   6.198  0.00  0.00    +0.000 OA
ATOM     26  H   UNL     1      46.713   3.740   6.239  0.00  0.00    +0.000 HD
ENDBRANCH  24  25
ENDBRANCH  17  24
ENDBRANCH  14  20
ENDBRANCH   1  14
BRANCH   1  27
ATOM     27  O   UNL     1      45.553   3.983  13.181  0.00  0.00    +0.000 OA
ATOM     28  H   UNL     1      46.497   4.191  13.259  0.00  0.00    +0.000 HD
ENDBRANCH   1  27
TORSDOF 7
ENDMDL
MODEL 6
REMARK VINA RESULT:    -7.120      3.927      7.287
REMARK INTER + INTRA:          -9.783
REMARK INTER:                  -9.369
REMARK INTRA:                  -0.414
REMARK UNBOUND:                -0.166
REMARK  Name = 
REMARK  7 active torsions:
REMARK  status: ('A' for Active; 'I' for Inactive)
REMARK    1  A    between atoms: C_2  and  O_3
REMARK    2  A    between atoms: C_2  and  C_4
REMARK    3  A    between atoms: C_7  and  C_8
REMARK    4  A    between atoms: C_8  and  C_9
REMARK    5  A    between atoms: C_9  and  O_10
REMARK    6  A    between atoms: C_9  and  C_11
REMARK    7  A    between atoms: C_15  and  C_16
REMARK                            x       y       z     vdW  Elec       q    Type
REMARK                         _______ _______ _______ _____ _____    ______ ____
ROOT
ATOM      1  C   UNL     1      47.405   8.644  13.927  0.00  0.00    +0.000 C 
ENDROOT
BRANCH   1   2
ATOM      2  C   UNL     1      46.191   8.404  13.049  0.00  0.00    +0.000 A 
ATOM      3  C   UNL     1      45.718   9.445  12.237  0.00  0.00    +0.000 A 
ATOM      4  C   UNL     1      44.669   9.237  11.343  0.00  0.00    +0.000 A 
ATOM      5  C   UNL     1      44.093   7.972  11.226  0.00  0.00    +0.000 A 
ATOM      6  C   UNL     1      44.565   6.889  11.985  0.00  0.00    +0.000 A 
ATOM      7  C   UNL     1      45.601   7.137  12.909  0.00  0.00    +0.000 A 
BRANCH   6   8
ATOM      8  C   UNL     1      44.078   5.516  11.777  0.00  0.00    +0.000 A 
ATOM      9  C   UNL     1      43.936   4.954  10.505  0.00  0.00    +0.000 A 
ATOM     10  N   UNL     1      43.590   3.662  10.290  0.00  0.00    +0.000 NA
ATOM     11  C   UNL     1      43.392   2.930  11.407  0.00  0.00    +0.000 A 
ATOM     12  C   UNL     1      43.521   3.468  12.675  0.00  0.00    +0.000 A 
ATOM     13  N   UNL     1      43.866   4.761  12.890  0.00  0.00    +0.000 NA
ENDBRANCH   6   8
ENDBRANCH   1   2
BRANCH   1  14
ATOM     14  C   UNL     1      48.500   7.574  13.859  0.00  0.00    +0.000 C 
ATOM     15  C   UNL     1      49.257   7.231  12.572  0.00  0.00    +0.000 C 
ATOM     16  C   UNL     1      49.915   8.093  13.601  0.00  0.00    +0.000 C 
BRANCH  14  20
ATOM     17  C   UNL     1      47.963   4.419  16.741  0.00  0.00    +0.000 A 
ATOM     18  C   UNL     1      48.748   5.514  17.084  0.00  0.00    +0.000 A 
ATOM     19  C   UNL     1      48.932   6.531  16.148  0.00  0.00    +0.000 A 
ATOM     20  C   UNL     1      48.354   6.438  14.877  0.00  0.00    +0.000 A 
ATOM     21  N   UNL     1      47.619   5.350  14.533  0.00  0.00    +0.000 NA
ATOM     22  C   UNL     1      47.441   4.369  15.458  0.00  0.00    +0.000 A 
BRANCH  17  24
ATOM     23  O   UNL     1      48.552   2.814  18.373  0.00  0.00    +0.000 OA
ATOM     24  C   UNL     1      47.691   3.304  17.666  0.00  0.00    +0.000 C 
BRANCH  24  25
ATOM     25  O   UNL     1      46.419   2.856  17.623  0.00  0.00    +0.000 OA
ATOM     26  H   UNL     1      46.309   1.923  17.362  0.00  0.00    +0.000 HD
ENDBRANCH  24  25
ENDBRANCH  17  24
ENDBRANCH  14  20
ENDBRANCH   1  14
BRANCH   1  27
ATOM     27  O   UNL     1      47.919   9.934  13.573  0.00  0.00    +0.000 OA
ATOM     28  H   UNL     1      47.402  10.586  14.070  0.00  0.00    +0.000 HD
ENDBRANCH   1  27
TORSDOF 7
ENDMDL
MODEL 7
REMARK VINA RESULT:    -7.119      3.795      7.972
REMARK INTER + INTRA:          -9.781
REMARK INTER:                  -8.358
REMARK INTRA:                  -1.424
REMARK UNBOUND:                -0.166
REMARK  Name = 
REMARK  7 active torsions:
REMARK  status: ('A' for Active; 'I' for Inactive)
REMARK    1  A    between atoms: C_2  and  O_3
REMARK    2  A    between atoms: C_2  and  C_4
REMARK    3  A    between atoms: C_7  and  C_8
REMARK    4  A    between atoms: C_8  and  C_9
REMARK    5  A    between atoms: C_9  and  O_10
REMARK    6  A    between atoms: C_9  and  C_11
REMARK    7  A    between atoms: C_15  and  C_16
REMARK                            x       y       z     vdW  Elec       q    Type
REMARK                         _______ _______ _______ _____ _____    ______ ____
ROOT
ATOM      1  C   UNL     1      49.357   7.860  12.937  0.00  0.00    +0.000 C 
ENDROOT
BRANCH   1   2
ATOM      2  C   UNL     1      47.843   7.906  12.847  0.00  0.00    +0.000 A 
ATOM      3  C   UNL     1      47.205   9.147  12.695  0.00  0.00    +0.000 A 
ATOM      4  C   UNL     1      45.826   9.225  12.508  0.00  0.00    +0.000 A 
ATOM      5  C   UNL     1      45.063   8.058  12.441  0.00  0.00    +0.000 A 
ATOM      6  C   UNL     1      45.666   6.794  12.541  0.00  0.00    +0.000 A 
ATOM      7  C   UNL     1      47.057   6.745  12.769  0.00  0.00    +0.000 A 
BRANCH   6   8
ATOM      8  C   UNL     1      44.911   5.548  12.328  0.00  0.00    +0.000 A 
ATOM      9  C   UNL     1      45.366   4.308  12.783  0.00  0.00    +0.000 A 
ATOM     10  N   UNL     1      44.643   3.165  12.691  0.00  0.00    +0.000 NA
ATOM     11  C   UNL     1      43.425   3.302  12.127  0.00  0.00    +0.000 A 
ATOM     12  C   UNL     1      42.960   4.520  11.664  0.00  0.00    +0.000 A 
ATOM     13  N   UNL     1      43.682   5.663  11.754  0.00  0.00    +0.000 NA
ENDBRANCH   6   8
ENDBRANCH   1   2
BRANCH   1  14
ATOM     14  C   UNL     1      49.960   8.296  14.277  0.00  0.00    +0.000 C 
ATOM     15  C   UNL     1      51.385   8.842  14.415  0.00  0.00    +0.000 C 
ATOM     16  C   UNL     1      50.231   9.793  14.422  0.00  0.00    +0.000 C 
BRANCH  14  20
ATOM     17  C   UNL     1      48.268   6.221  17.650  0.00  0.00    +0.000 A 
ATOM     18  C   UNL     1      48.262   7.612  17.645  0.00  0.00    +0.000 A 
ATOM     19  C   UNL     1      48.819   8.284  16.559  0.00  0.00    +0.000 A 
ATOM     20  C   UNL     1      49.396   7.571  15.503  0.00  0.00    +0.000 A 
ATOM     21  N   UNL     1      49.434   6.215  15.528  0.00  0.00    +0.000 NA
ATOM     22  C   UNL     1      48.879   5.570  16.590  0.00  0.00    +0.000 A 
BRANCH  17  24
ATOM     23  O   UNL     1      48.369   4.814  19.546  0.00  0.00    +0.000 OA
ATOM     24  C   UNL     1      47.686   5.419  18.740  0.00  0.00    +0.000 C 
BRANCH  24  25
ATOM     25  O   UNL     1      46.337   5.384  18.734  0.00  0.00    +0.000 OA
ATOM     26  H   UNL     1      45.938   4.525  18.501  0.00  0.00    +0.000 HD
ENDBRANCH  24  25
ENDBRANCH  17  24
ENDBRANCH  14  20
ENDBRANCH   1  14
BRANCH   1  27
ATOM     27  O   UNL     1      49.747   6.522  12.604  0.00  0.00    +0.000 OA
ATOM     28  H   UNL     1      50.327   6.214  13.318  0.00  0.00    +0.000 HD
ENDBRANCH   1  27
TORSDOF 7
ENDMDL
MODEL 8
REMARK VINA RESULT:    -6.775      2.498      4.003
REMARK INTER + INTRA:          -9.317
REMARK INTER:                  -8.641
REMARK INTRA:                  -0.676
REMARK UNBOUND:                -0.166
REMARK  Name = 
REMARK  7 active torsions:
REMARK  status: ('A' for Active; 'I' for Inactive)
REMARK    1  A    between atoms: C_2  and  O_3
REMARK    2  A    between atoms: C_2  and  C_4
REMARK    3  A    between atoms: C_7  and  C_8
REMARK    4  A    between atoms: C_8  and  C_9
REMARK    5  A    between atoms: C_9  and  O_10
REMARK    6  A    between atoms: C_9  and  C_11
REMARK    7  A    between atoms: C_15  and  C_16
REMARK                            x       y       z     vdW  Elec       q    Type
REMARK                         _______ _______ _______ _____ _____    ______ ____
ROOT
ATOM      1  C   UNL     1      47.956   7.783  12.423  0.00  0.00    +0.000 C 
ENDROOT
BRANCH   1   2
ATOM      2  C   UNL     1      48.487   7.627  13.836  0.00  0.00    +0.000 A 
ATOM      3  C   UNL     1      49.046   8.739  14.483  0.00  0.00    +0.000 A 
ATOM      4  C   UNL     1      49.453   8.664  15.814  0.00  0.00    +0.000 A 
ATOM      5  C   UNL     1      49.281   7.479  16.530  0.00  0.00    +0.000 A 
ATOM      6  C   UNL     1      48.683   6.356  15.937  0.00  0.00    +0.000 A 
ATOM      7  C   UNL     1      48.316   6.447  14.579  0.00  0.00    +0.000 A 
BRANCH   6   8
ATOM      8  C   UNL     1      48.355   5.145  16.708  0.00  0.00    +0.000 A 
ATOM      9  C   UNL     1      47.152   4.455  16.545  0.00  0.00    +0.000 A 
ATOM     10  N   UNL     1      46.869   3.283  17.165  0.00  0.00    +0.000 NA
ATOM     11  C   UNL     1      47.848   2.808  17.962  0.00  0.00    +0.000 A 
ATOM     12  C   UNL     1      49.045   3.479  18.142  0.00  0.00    +0.000 A 
ATOM     13  N   UNL     1      49.327   4.651  17.524  0.00  0.00    +0.000 NA
ENDBRANCH   6   8
ENDBRANCH   1   2
BRANCH   1  14
ATOM     14  C   UNL     1      46.430   7.799  12.280  0.00  0.00    +0.000 C 
ATOM     15  C   UNL     1      45.533   8.812  12.999  0.00  0.00    +0.000 C 
ATOM     16  C   UNL     1      45.848   9.010  11.552  0.00  0.00    +0.000 C 
BRANCH  14  20
ATOM     17  C   UNL     1      44.543   4.033  11.386  0.00  0.00    +0.000 A 
ATOM     18  C   UNL     1      44.733   4.389  12.716  0.00  0.00    +0.000 A 
ATOM     19  C   UNL     1      45.353   5.603  13.007  0.00  0.00    +0.000 A 
ATOM     20  C   UNL     1      45.798   6.437  11.976  0.00  0.00    +0.000 A 
ATOM     21  N   UNL     1      45.645   6.069  10.679  0.00  0.00    +0.000 NA
ATOM     22  C   UNL     1      45.031   4.886  10.408  0.00  0.00    +0.000 A 
BRANCH  17  24
ATOM     23  O   UNL     1      42.898   2.343  11.546  0.00  0.00    +0.000 OA
ATOM     24  C   UNL     1      43.879   2.783  10.975  0.00  0.00    +0.000 C 
BRANCH  24  25
ATOM     25  O   UNL     1      44.481   2.157   9.943  0.00  0.00    +0.000 OA
ATOM     26  H   UNL     1      45.317   1.701  10.155  0.00  0.00    +0.000 HD
ENDBRANCH  24  25
ENDBRANCH  17  24
ENDBRANCH  14  20
ENDBRANCH   1  14
BRANCH   1  27
ATOM     27  O   UNL     1      48.538   8.982  11.896  0.00  0.00    +0.000 OA
ATOM     28  H   UNL     1      48.527   8.896  10.930  0.00  0.00    +0.000 HD
ENDBRANCH   1  27
TORSDOF 7
ENDMDL
MODEL 9
REMARK VINA RESULT:    -6.226      4.496      8.456
REMARK INTER + INTRA:          -8.575
REMARK INTER:                  -9.029
REMARK INTRA:                   0.454
REMARK UNBOUND:                -0.166
REMARK  Name = 
REMARK  7 active torsions:
REMARK  status: ('A' for Active; 'I' for Inactive)
REMARK    1  A    between atoms: C_2  and  O_3
REMARK    2  A    between atoms: C_2  and  C_4
REMARK    3  A    between atoms: C_7  and  C_8
REMARK    4  A    between atoms: C_8  and  C_9
REMARK    5  A    between atoms: C_9  and  O_10
REMARK    6  A    between atoms: C_9  and  C_11
REMARK    7  A    between atoms: C_15  and  C_16
REMARK                            x       y       z     vdW  Elec       q    Type
REMARK                         _______ _______ _______ _____ _____    ______ ____
ROOT
ATOM      1  C   UNL     1      47.822   3.585  16.865  0.00  0.00    +0.000 C 
ENDROOT
BRANCH   1   2
ATOM      2  C   UNL     1      47.511   4.520  15.711  0.00  0.00    +0.000 A 
ATOM      3  C   UNL     1      48.334   5.636  15.494  0.00  0.00    +0.000 A 
ATOM      4  C   UNL     1      48.143   6.462  14.388  0.00  0.00    +0.000 A 
ATOM      5  C   UNL     1      47.142   6.169  13.462  0.00  0.00    +0.000 A 
ATOM      6  C   UNL     1      46.325   5.037  13.614  0.00  0.00    +0.000 A 
ATOM      7  C   UNL     1      46.514   4.240  14.762  0.00  0.00    +0.000 A 
BRANCH   6   8
ATOM      8  C   UNL     1      45.362   4.622  12.581  0.00  0.00    +0.000 A 
ATOM      9  C   UNL     1      45.332   5.198  11.309  0.00  0.00    +0.000 A 
ATOM     10  N   UNL     1      44.527   4.765  10.308  0.00  0.00    +0.000 NA
ATOM     11  C   UNL     1      43.743   3.712  10.620  0.00  0.00    +0.000 A 
ATOM     12  C   UNL     1      43.754   3.131  11.876  0.00  0.00    +0.000 A 
ATOM     13  N   UNL     1      44.557   3.565  12.877  0.00  0.00    +0.000 NA
ENDBRANCH   6   8
ENDBRANCH   1   2
BRANCH   1  14
ATOM     14  C   UNL     1      48.915   4.056  17.830  0.00  0.00    +0.000 C 
ATOM     15  C   UNL     1      49.010   5.494  18.351  0.00  0.00    +0.000 C 
ATOM     16  C   UNL     1      48.440   4.431  19.234  0.00  0.00    +0.000 C 
BRANCH  14  20
ATOM     17  C   UNL     1      52.597   1.829  17.651  0.00  0.00    +0.000 A 
ATOM     18  C   UNL     1      52.638   3.162  18.044  0.00  0.00    +0.000 A 
ATOM     19  C   UNL     1      51.448   3.887  18.092  0.00  0.00    +0.000 A 
ATOM     20  C   UNL     1      50.237   3.288  17.728  0.00  0.00    +0.000 A 
ATOM     21  N   UNL     1      50.207   1.998  17.309  0.00  0.00    +0.000 NA
ATOM     22  C   UNL     1      51.373   1.299  17.274  0.00  0.00    +0.000 A 
BRANCH  17  24
ATOM     23  O   UNL     1      54.901   1.410  17.328  0.00  0.00    +0.000 OA
ATOM     24  C   UNL     1      53.795   0.973  17.588  0.00  0.00    +0.000 C 
BRANCH  24  25
ATOM     25  O   UNL     1      53.545  -0.335  17.803  0.00  0.00    +0.000 OA
ATOM     26  H   UNL     1      52.667  -0.650  17.517  0.00  0.00    +0.000 HD
ENDBRANCH  24  25
ENDBRANCH  17  24
ENDBRANCH  14  20
ENDBRANCH   1  14
BRANCH   1  27
ATOM     27  O   UNL     1      46.586   3.359  17.554  0.00  0.00    +0.000 OA
ATOM     28  H   UNL     1      46.280   4.223  17.870  0.00  0.00    +0.000 HD
ENDBRANCH   1  27
TORSDOF 7
ENDMDL
