MODEL 1
REMARK VINA RESULT:    -9.034      0.000      0.000
REMARK INTER + INTRA:         -13.160
REMARK INTER:                 -12.203
REMARK INTRA:                  -0.957
REMARK UNBOUND:                -0.957
REMARK  Name = 
REMARK  6 active torsions:
REMARK  status: ('A' for Active; 'I' for Inactive)
REMARK    1  A    between atoms: C_2  and  C_25
REMARK    2  A    between atoms: N_3  and  C_4
REMARK    3  A    between atoms: C_4  and  C_5
REMARK    4  A    between atoms: C_9  and  C_10
REMARK    5  A    between atoms: C_10  and  N_11
REMARK    6  A    between atoms: C_12  and  C_14
REMARK                            x       y       z     vdW  Elec       q    Type
REMARK                         _______ _______ _______ _____ _____    ______ ____
ROOT
ATOM      1  C   UNL     1      44.923   5.314  11.612  0.00  0.00    +0.000 A 
ATOM      2  C   UNL     1      45.207   6.681  11.704  0.00  0.00    +0.000 A 
ATOM      3  C   UNL     1      46.110   7.149  12.658  0.00  0.00    +0.000 A 
ATOM      4  C   UNL     1      46.705   6.260  13.556  0.00  0.00    +0.000 A 
ATOM      5  C   UNL     1      46.387   4.895  13.526  0.00  0.00    +0.000 A 
ATOM      6  C   UNL     1      45.522   4.428  12.523  0.00  0.00    +0.000 A 
ENDROOT
BRANCH   1   7
ATOM      7  C   UNL     1      43.923   4.815  10.597  0.00  0.00    +0.000 C 
BRANCH   7  10
ATOM      8  O   UNL     1      45.717   5.370   8.527  0.00  0.00    +0.000 OA
ATOM      9  C   UNL     1      45.416   4.206   8.754  0.00  0.00    +0.000 C 
ATOM     10  N   UNL     1      44.528   3.827   9.736  0.00  0.00    +0.000 N 
ATOM     11  H   UNL     1      44.478   2.858  10.017  0.00  0.00    +0.000 HD
BRANCH   9  12
ATOM     12  C   UNL     1      46.055   3.097   7.993  0.00  0.00    +0.000 A 
ATOM     13  C   UNL     1      46.709   3.397   6.793  0.00  0.00    +0.000 A 
ATOM     14  C   UNL     1      47.339   2.385   6.066  0.00  0.00    +0.000 A 
ATOM     15  C   UNL     1      47.304   1.070   6.529  0.00  0.00    +0.000 A 
ATOM     16  C   UNL     1      46.629   0.761   7.711  0.00  0.00    +0.000 A 
ATOM     17  C   UNL     1      46.001   1.772   8.443  0.00  0.00    +0.000 A 
ENDBRANCH   9  12
ENDBRANCH   7  10
ENDBRANCH   1   7
BRANCH   5  18
ATOM     18  C   UNL     1      46.946   3.954  14.566  0.00  0.00    +0.000 C 
BRANCH  18  19
ATOM     19  N   UNL     1      47.423   4.653  15.729  0.00  0.00    +0.000 N 
ATOM     20  C   UNL     1      47.162   4.193  16.998  0.00  0.00    +0.000 C 
ATOM     21  O   UNL     1      46.551   3.148  17.204  0.00  0.00    +0.000 OA
ATOM     22  H   UNL     1      47.662   5.631  15.603  0.00  0.00    +0.000 HD
BRANCH  20  23
ATOM     23  C   UNL     1      47.719   4.988  18.098  0.00  0.00    +0.000 A 
ATOM     24  C   UNL     1      46.880   5.740  18.910  0.00  0.00    +0.000 A 
ATOM     25  S   UNL     1      47.695   6.535  20.183  0.00  0.00    +0.000 S 
ATOM     26  C   UNL     1      49.204   5.951  19.655  0.00  0.00    +0.000 A 
ATOM     27  N   UNL     1      50.352   6.283  20.303  0.00  0.00    +0.000 NA
ATOM     28  C   UNL     1      51.424   5.796  19.774  0.00  0.00    +0.000 A 
ATOM     29  N   UNL     1      51.454   5.002  18.656  0.00  0.00    +0.000 N 
ATOM     30  C   UNL     1      50.317   4.617  17.987  0.00  0.00    +0.000 A 
ATOM     31  O   UNL     1      50.374   3.875  17.012  0.00  0.00    +0.000 OA
ATOM     32  C   UNL     1      49.085   5.146  18.537  0.00  0.00    +0.000 A 
ATOM     33  H   UNL     1      52.326   4.646  18.294  0.00  0.00    +0.000 HD
ENDBRANCH  20  23
ENDBRANCH  18  19
ENDBRANCH   5  18
TORSDOF 6
ENDMDL
MODEL 2
REMARK VINA RESULT:    -8.993      2.137      3.106
REMARK INTER + INTRA:         -13.105
REMARK INTER:                 -11.903
REMARK INTRA:                  -1.201
REMARK UNBOUND:                -0.957
REMARK  Name = 
REMARK  6 active torsions:
REMARK  status: ('A' for Active; 'I' for Inactive)
REMARK    1  A    between atoms: C_2  and  C_25
REMARK    2  A    between atoms: N_3  and  C_4
REMARK    3  A    between atoms: C_4  and  C_5
REMARK    4  A    between atoms: C_9  and  C_10
REMARK    5  A    between atoms: C_10  and  N_11
REMARK    6  A    between atoms: C_12  and  C_14
REMARK                            x       y       z     vdW  Elec       q    Type
REMARK                         _______ _______ _______ _____ _____    ______ ____
ROOT
ATOM      1  C   UNL     1      45.179   6.579  11.201  0.00  0.00    +0.000 A 
ATOM      2  C   UNL     1      44.485   7.759  11.494  0.00  0.00    +0.000 A 
ATOM      3  C   UNL     1      45.165   8.869  11.992  0.00  0.00    +0.000 A 
ATOM      4  C   UNL     1      46.537   8.798  12.242  0.00  0.00    +0.000 A 
ATOM      5  C   UNL     1      47.243   7.607  12.018  0.00  0.00    +0.000 A 
ATOM      6  C   UNL     1      46.559   6.514  11.461  0.00  0.00    +0.000 A 
ENDROOT
BRANCH   1   7
ATOM      7  C   UNL     1      44.435   5.369  10.690  0.00  0.00    +0.000 C 
BRANCH   7  10
ATOM      8  O   UNL     1      43.988   2.740   9.857  0.00  0.00    +0.000 OA
ATOM      9  C   UNL     1      44.914   3.368   9.363  0.00  0.00    +0.000 C 
ATOM     10  N   UNL     1      45.231   4.660   9.717  0.00  0.00    +0.000 N 
ATOM     11  H   UNL     1      45.860   5.198   9.137  0.00  0.00    +0.000 HD
BRANCH   9  12
ATOM     12  C   UNL     1      45.740   2.770   8.278  0.00  0.00    +0.000 A 
ATOM     13  C   UNL     1      46.101   3.573   7.190  0.00  0.00    +0.000 A 
ATOM     14  C   UNL     1      46.895   3.051   6.167  0.00  0.00    +0.000 A 
ATOM     15  C   UNL     1      47.317   1.723   6.222  0.00  0.00    +0.000 A 
ATOM     16  C   UNL     1      46.937   0.911   7.291  0.00  0.00    +0.000 A 
ATOM     17  C   UNL     1      46.146   1.431   8.319  0.00  0.00    +0.000 A 
ENDBRANCH   9  12
ENDBRANCH   7  10
ENDBRANCH   1   7
BRANCH   5  18
ATOM     18  C   UNL     1      48.701   7.498  12.391  0.00  0.00    +0.000 C 
BRANCH  18  19
ATOM     19  N   UNL     1      48.897   6.745  13.601  0.00  0.00    +0.000 N 
ATOM     20  C   UNL     1      48.920   7.359  14.830  0.00  0.00    +0.000 C 
ATOM     21  O   UNL     1      48.732   8.565  14.964  0.00  0.00    +0.000 OA
ATOM     22  H   UNL     1      49.331   5.834  13.501  0.00  0.00    +0.000 HD
BRANCH  20  23
ATOM     23  C   UNL     1      49.111   6.477  15.987  0.00  0.00    +0.000 A 
ATOM     24  C   UNL     1      50.098   6.756  16.923  0.00  0.00    +0.000 A 
ATOM     25  S   UNL     1      50.120   5.667  18.238  0.00  0.00    +0.000 S 
ATOM     26  C   UNL     1      48.851   4.750  17.570  0.00  0.00    +0.000 A 
ATOM     27  N   UNL     1      48.385   3.636  18.195  0.00  0.00    +0.000 NA
ATOM     28  C   UNL     1      47.444   3.022  17.560  0.00  0.00    +0.000 A 
ATOM     29  N   UNL     1      46.922   3.422  16.357  0.00  0.00    +0.000 N 
ATOM     30  C   UNL     1      47.341   4.556  15.704  0.00  0.00    +0.000 A 
ATOM     31  O   UNL     1      46.827   4.908  14.648  0.00  0.00    +0.000 OA
ATOM     32  C   UNL     1      48.405   5.278  16.373  0.00  0.00    +0.000 A 
ATOM     33  H   UNL     1      46.181   2.901  15.913  0.00  0.00    +0.000 HD
ENDBRANCH  20  23
ENDBRANCH  18  19
ENDBRANCH   5  18
TORSDOF 6
ENDMDL
MODEL 3
REMARK VINA RESULT:    -8.535      1.686      2.221
REMARK INTER + INTRA:         -12.486
REMARK INTER:                 -11.600
REMARK INTRA:                  -0.885
REMARK UNBOUND:                -0.957
REMARK  Name = 
REMARK  6 active torsions:
REMARK  status: ('A' for Active; 'I' for Inactive)
REMARK    1  A    between atoms: C_2  and  C_25
REMARK    2  A    between atoms: N_3  and  C_4
REMARK    3  A    between atoms: C_4  and  C_5
REMARK    4  A    between atoms: C_9  and  C_10
REMARK    5  A    between atoms: C_10  and  N_11
REMARK    6  A    between atoms: C_12  and  C_14
REMARK                            x       y       z     vdW  Elec       q    Type
REMARK                         _______ _______ _______ _____ _____    ______ ____
ROOT
ATOM      1  C   UNL     1      44.581   4.577  11.914  0.00  0.00    +0.000 A 
ATOM      2  C   UNL     1      43.757   5.706  11.999  0.00  0.00    +0.000 A 
ATOM      3  C   UNL     1      44.270   6.918  12.455  0.00  0.00    +0.000 A 
ATOM      4  C   UNL     1      45.601   7.006  12.870  0.00  0.00    +0.000 A 
ATOM      5  C   UNL     1      46.428   5.873  12.856  0.00  0.00    +0.000 A 
ATOM      6  C   UNL     1      45.916   4.672  12.340  0.00  0.00    +0.000 A 
ENDROOT
BRANCH   1   7
ATOM      7  C   UNL     1      44.013   3.259  11.448  0.00  0.00    +0.000 C 
BRANCH   7  10
ATOM      8  O   UNL     1      44.062   4.258   8.838  0.00  0.00    +0.000 OA
ATOM      9  C   UNL     1      44.771   3.301   9.120  0.00  0.00    +0.000 C 
ATOM     10  N   UNL     1      44.805   2.721  10.368  0.00  0.00    +0.000 N 
ATOM     11  H   UNL     1      45.552   2.081  10.601  0.00  0.00    +0.000 HD
BRANCH   9  12
ATOM     12  C   UNL     1      45.704   2.728   8.110  0.00  0.00    +0.000 A 
ATOM     13  C   UNL     1      46.161   1.417   8.289  0.00  0.00    +0.000 A 
ATOM     14  C   UNL     1      47.018   0.841   7.349  0.00  0.00    +0.000 A 
ATOM     15  C   UNL     1      47.431   1.577   6.239  0.00  0.00    +0.000 A 
ATOM     16  C   UNL     1      46.999   2.894   6.071  0.00  0.00    +0.000 A 
ATOM     17  C   UNL     1      46.138   3.473   7.007  0.00  0.00    +0.000 A 
ENDBRANCH   9  12
ENDBRANCH   7  10
ENDBRANCH   1   7
BRANCH   5  18
ATOM     18  C   UNL     1      47.832   5.942  13.408  0.00  0.00    +0.000 C 
BRANCH  18  19
ATOM     19  N   UNL     1      47.846   6.061  14.841  0.00  0.00    +0.000 N 
ATOM     20  C   UNL     1      48.952   6.532  15.509  0.00  0.00    +0.000 C 
ATOM     21  O   UNL     1      49.960   6.913  14.921  0.00  0.00    +0.000 OA
ATOM     22  H   UNL     1      47.171   5.501  15.349  0.00  0.00    +0.000 HD
BRANCH  20  23
ATOM     23  C   UNL     1      48.833   6.621  16.969  0.00  0.00    +0.000 A 
ATOM     24  C   UNL     1      48.819   7.860  17.595  0.00  0.00    +0.000 A 
ATOM     25  S   UNL     1      48.596   7.769  19.285  0.00  0.00    +0.000 S 
ATOM     26  C   UNL     1      48.573   6.068  19.245  0.00  0.00    +0.000 A 
ATOM     27  N   UNL     1      48.435   5.340  20.386  0.00  0.00    +0.000 NA
ATOM     28  C   UNL     1      48.467   4.061  20.210  0.00  0.00    +0.000 A 
ATOM     29  N   UNL     1      48.620   3.442  18.997  0.00  0.00    +0.000 N 
ATOM     30  C   UNL     1      48.734   4.136  17.817  0.00  0.00    +0.000 A 
ATOM     31  O   UNL     1      48.832   3.551  16.743  0.00  0.00    +0.000 OA
ATOM     32  C   UNL     1      48.713   5.578  17.960  0.00  0.00    +0.000 A 
ATOM     33  H   UNL     1      48.631   2.435  18.925  0.00  0.00    +0.000 HD
ENDBRANCH  20  23
ENDBRANCH  18  19
ENDBRANCH   5  18
TORSDOF 6
ENDMDL
MODEL 4
REMARK VINA RESULT:    -8.346      4.506      5.585
REMARK INTER + INTRA:         -12.230
REMARK INTER:                 -10.988
REMARK INTRA:                  -1.242
REMARK UNBOUND:                -0.957
REMARK  Name = 
REMARK  6 active torsions:
REMARK  status: ('A' for Active; 'I' for Inactive)
REMARK    1  A    between atoms: C_2  and  C_25
REMARK    2  A    between atoms: N_3  and  C_4
REMARK    3  A    between atoms: C_4  and  C_5
REMARK    4  A    between atoms: C_9  and  C_10
REMARK    5  A    between atoms: C_10  and  N_11
REMARK    6  A    between atoms: C_12  and  C_14
REMARK                            x       y       z     vdW  Elec       q    Type
REMARK                         _______ _______ _______ _____ _____    ______ ____
ROOT
ATOM      1  C   UNL     1      44.843   4.089  12.193  0.00  0.00    +0.000 A 
ATOM      2  C   UNL     1      45.876   3.541  12.962  0.00  0.00    +0.000 A 
ATOM      3  C   UNL     1      46.690   4.366  13.736  0.00  0.00    +0.000 A 
ATOM      4  C   UNL     1      46.508   5.751  13.716  0.00  0.00    +0.000 A 
ATOM      5  C   UNL     1      45.523   6.329  12.902  0.00  0.00    +0.000 A 
ATOM      6  C   UNL     1      44.671   5.483  12.173  0.00  0.00    +0.000 A 
ENDROOT
BRANCH   1   7
ATOM      7  C   UNL     1      43.983   3.195  11.333  0.00  0.00    +0.000 C 
BRANCH   7  10
ATOM      8  O   UNL     1      44.291   4.404   8.833  0.00  0.00    +0.000 OA
ATOM      9  C   UNL     1      44.855   3.340   9.050  0.00  0.00    +0.000 C 
ATOM     10  N   UNL     1      44.753   2.654  10.239  0.00  0.00    +0.000 N 
ATOM     11  H   UNL     1      45.398   1.902  10.439  0.00  0.00    +0.000 HD
BRANCH   9  12
ATOM     12  C   UNL     1      45.756   2.739   8.028  0.00  0.00    +0.000 A 
ATOM     13  C   UNL     1      46.073   3.489   6.889  0.00  0.00    +0.000 A 
ATOM     14  C   UNL     1      46.933   2.965   5.923  0.00  0.00    +0.000 A 
ATOM     15  C   UNL     1      47.466   1.686   6.084  0.00  0.00    +0.000 A 
ATOM     16  C   UNL     1      47.131   0.924   7.205  0.00  0.00    +0.000 A 
ATOM     17  C   UNL     1      46.274   1.446   8.177  0.00  0.00    +0.000 A 
ENDBRANCH   9  12
ENDBRANCH   7  10
ENDBRANCH   1   7
BRANCH   5  18
ATOM     18  C   UNL     1      45.398   7.830  12.797  0.00  0.00    +0.000 C 
BRANCH  18  19
ATOM     19  N   UNL     1      46.548   8.426  12.170  0.00  0.00    +0.000 N 
ATOM     20  C   UNL     1      47.464   9.149  12.896  0.00  0.00    +0.000 C 
ATOM     21  O   UNL     1      47.375   9.286  14.113  0.00  0.00    +0.000 OA
ATOM     22  H   UNL     1      46.491   8.575  11.169  0.00  0.00    +0.000 HD
BRANCH  20  23
ATOM     23  C   UNL     1      48.600   9.692  12.142  0.00  0.00    +0.000 A 
ATOM     24  C   UNL     1      48.640  11.041  11.815  0.00  0.00    +0.000 A 
ATOM     25  S   UNL     1      50.071  11.504  11.007  0.00  0.00    +0.000 S 
ATOM     26  C   UNL     1      50.657   9.906  11.012  0.00  0.00    +0.000 A 
ATOM     27  N   UNL     1      51.852   9.593  10.443  0.00  0.00    +0.000 NA
ATOM     28  C   UNL     1      52.154   8.339  10.492  0.00  0.00    +0.000 A 
ATOM     29  N   UNL     1      51.373   7.368  11.062  0.00  0.00    +0.000 N 
ATOM     30  C   UNL     1      50.174   7.641  11.673  0.00  0.00    +0.000 A 
ATOM     31  O   UNL     1      49.516   6.755  12.208  0.00  0.00    +0.000 OA
ATOM     32  C   UNL     1      49.783   9.037  11.638  0.00  0.00    +0.000 A 
ATOM     33  H   UNL     1      51.669   6.403  11.073  0.00  0.00    +0.000 HD
ENDBRANCH  20  23
ENDBRANCH  18  19
ENDBRANCH   5  18
TORSDOF 6
ENDMDL
MODEL 5
REMARK VINA RESULT:    -8.210      1.499      2.119
REMARK INTER + INTRA:         -12.047
REMARK INTER:                 -11.013
REMARK INTRA:                  -1.034
REMARK UNBOUND:                -0.957
REMARK  Name = 
REMARK  6 active torsions:
REMARK  status: ('A' for Active; 'I' for Inactive)
REMARK    1  A    between atoms: C_2  and  C_25
REMARK    2  A    between atoms: N_3  and  C_4
REMARK    3  A    between atoms: C_4  and  C_5
REMARK    4  A    between atoms: C_9  and  C_10
REMARK    5  A    between atoms: C_10  and  N_11
REMARK    6  A    between atoms: C_12  and  C_14
REMARK                            x       y       z     vdW  Elec       q    Type
REMARK                         _______ _______ _______ _____ _____    ______ ____
ROOT
ATOM      1  C   UNL     1      45.505   5.737  11.682  0.00  0.00    +0.000 A 
ATOM      2  C   UNL     1      45.943   7.064  11.764  0.00  0.00    +0.000 A 
ATOM      3  C   UNL     1      46.764   7.469  12.815  0.00  0.00    +0.000 A 
ATOM      4  C   UNL     1      47.120   6.564  13.818  0.00  0.00    +0.000 A 
ATOM      5  C   UNL     1      46.640   5.247  13.792  0.00  0.00    +0.000 A 
ATOM      6  C   UNL     1      45.862   4.834  12.698  0.00  0.00    +0.000 A 
ENDROOT
BRANCH   1   7
ATOM      7  C   UNL     1      44.592   5.309  10.559  0.00  0.00    +0.000 C 
BRANCH   7  10
ATOM      8  O   UNL     1      44.245   2.628   9.852  0.00  0.00    +0.000 OA
ATOM      9  C   UNL     1      45.077   3.295   9.253  0.00  0.00    +0.000 C 
ATOM     10  N   UNL     1      45.340   4.617   9.537  0.00  0.00    +0.000 N 
ATOM     11  H   UNL     1      45.875   5.171   8.883  0.00  0.00    +0.000 HD
BRANCH   9  12
ATOM     12  C   UNL     1      45.837   2.712   8.113  0.00  0.00    +0.000 A 
ATOM     13  C   UNL     1      46.047   3.498   6.975  0.00  0.00    +0.000 A 
ATOM     14  C   UNL     1      46.776   2.990   5.897  0.00  0.00    +0.000 A 
ATOM     15  C   UNL     1      47.282   1.692   5.950  0.00  0.00    +0.000 A 
ATOM     16  C   UNL     1      47.051   0.894   7.071  0.00  0.00    +0.000 A 
ATOM     17  C   UNL     1      46.327   1.400   8.154  0.00  0.00    +0.000 A 
ENDBRANCH   9  12
ENDBRANCH   7  10
ENDBRANCH   1   7
BRANCH   5  18
ATOM     18  C   UNL     1      46.934   4.301  14.932  0.00  0.00    +0.000 C 
BRANCH  18  19
ATOM     19  N   UNL     1      47.683   4.936  15.984  0.00  0.00    +0.000 N 
ATOM     20  C   UNL     1      48.580   4.231  16.750  0.00  0.00    +0.000 C 
ATOM     21  O   UNL     1      48.822   3.044  16.550  0.00  0.00    +0.000 OA
ATOM     22  H   UNL     1      47.304   5.803  16.349  0.00  0.00    +0.000 HD
BRANCH  20  23
ATOM     23  C   UNL     1      49.291   4.998  17.779  0.00  0.00    +0.000 A 
ATOM     24  C   UNL     1      50.677   5.081  17.756  0.00  0.00    +0.000 A 
ATOM     25  S   UNL     1      51.322   6.078  18.983  0.00  0.00    +0.000 S 
ATOM     26  C   UNL     1      49.775   6.381  19.625  0.00  0.00    +0.000 A 
ATOM     27  N   UNL     1      49.612   7.161  20.726  0.00  0.00    +0.000 NA
ATOM     28  C   UNL     1      48.388   7.279  21.121  0.00  0.00    +0.000 A 
ATOM     29  N   UNL     1      47.310   6.691  20.512  0.00  0.00    +0.000 N 
ATOM     30  C   UNL     1      47.424   5.919  19.381  0.00  0.00    +0.000 A 
ATOM     31  O   UNL     1      46.435   5.438  18.838  0.00  0.00    +0.000 OA
ATOM     32  C   UNL     1      48.781   5.748  18.902  0.00  0.00    +0.000 A 
ATOM     33  H   UNL     1      46.375   6.827  20.866  0.00  0.00    +0.000 HD
ENDBRANCH  20  23
ENDBRANCH  18  19
ENDBRANCH   5  18
TORSDOF 6
ENDMDL
MODEL 6
REMARK VINA RESULT:    -8.151      3.255      4.438
REMARK INTER + INTRA:         -11.967
REMARK INTER:                 -11.182
REMARK INTRA:                  -0.785
REMARK UNBOUND:                -0.957
REMARK  Name = 
REMARK  6 active torsions:
REMARK  status: ('A' for Active; 'I' for Inactive)
REMARK    1  A    between atoms: C_2  and  C_25
REMARK    2  A    between atoms: N_3  and  C_4
REMARK    3  A    between atoms: C_4  and  C_5
REMARK    4  A    between atoms: C_9  and  C_10
REMARK    5  A    between atoms: C_10  and  N_11
REMARK    6  A    between atoms: C_12  and  C_14
REMARK                            x       y       z     vdW  Elec       q    Type
REMARK                         _______ _______ _______ _____ _____    ______ ____
ROOT
ATOM      1  C   UNL     1      44.147   3.861  11.804  0.00  0.00    +0.000 A 
ATOM      2  C   UNL     1      43.452   5.076  11.789  0.00  0.00    +0.000 A 
ATOM      3  C   UNL     1      43.930   6.169  12.507  0.00  0.00    +0.000 A 
ATOM      4  C   UNL     1      45.085   6.049  13.283  0.00  0.00    +0.000 A 
ATOM      5  C   UNL     1      45.764   4.824  13.367  0.00  0.00    +0.000 A 
ATOM      6  C   UNL     1      45.305   3.746  12.592  0.00  0.00    +0.000 A 
ENDROOT
BRANCH   1   7
ATOM      7  C   UNL     1      43.610   2.671  11.047  0.00  0.00    +0.000 C 
BRANCH   7  10
ATOM      8  O   UNL     1      44.114   4.132   8.719  0.00  0.00    +0.000 OA
ATOM      9  C   UNL     1      44.716   3.083   8.902  0.00  0.00    +0.000 C 
ATOM     10  N   UNL     1      44.527   2.280  10.004  0.00  0.00    +0.000 N 
ATOM     11  H   UNL     1      45.192   1.546  10.207  0.00  0.00    +0.000 HD
BRANCH   9  12
ATOM     12  C   UNL     1      45.759   2.632   7.940  0.00  0.00    +0.000 A 
ATOM     13  C   UNL     1      46.106   3.479   6.881  0.00  0.00    +0.000 A 
ATOM     14  C   UNL     1      47.096   3.097   5.974  0.00  0.00    +0.000 A 
ATOM     15  C   UNL     1      47.731   1.863   6.115  0.00  0.00    +0.000 A 
ATOM     16  C   UNL     1      47.369   1.003   7.153  0.00  0.00    +0.000 A 
ATOM     17  C   UNL     1      46.381   1.383   8.065  0.00  0.00    +0.000 A 
ENDBRANCH   9  12
ENDBRANCH   7  10
ENDBRANCH   1   7
BRANCH   5  18
ATOM     18  C   UNL     1      46.948   4.665  14.290  0.00  0.00    +0.000 C 
BRANCH  18  19
ATOM     19  N   UNL     1      47.483   5.933  14.709  0.00  0.00    +0.000 N 
ATOM     20  C   UNL     1      48.448   6.580  13.976  0.00  0.00    +0.000 C 
ATOM     21  O   UNL     1      48.869   6.137  12.911  0.00  0.00    +0.000 OA
ATOM     22  H   UNL     1      47.375   6.167  15.690  0.00  0.00    +0.000 HD
BRANCH  20  23
ATOM     23  C   UNL     1      48.898   7.873  14.502  0.00  0.00    +0.000 A 
ATOM     24  C   UNL     1      49.712   7.925  15.626  0.00  0.00    +0.000 A 
ATOM     25  S   UNL     1      50.198   9.507  16.045  0.00  0.00    +0.000 S 
ATOM     26  C   UNL     1      49.287  10.182  14.775  0.00  0.00    +0.000 A 
ATOM     27  N   UNL     1      49.245  11.526  14.579  0.00  0.00    +0.000 NA
ATOM     28  C   UNL     1      48.490  11.899  13.600  0.00  0.00    +0.000 A 
ATOM     29  N   UNL     1      47.775  11.049  12.796  0.00  0.00    +0.000 N 
ATOM     30  C   UNL     1      47.811   9.684  12.940  0.00  0.00    +0.000 A 
ATOM     31  O   UNL     1      47.189   8.948  12.179  0.00  0.00    +0.000 OA
ATOM     32  C   UNL     1      48.639   9.213  14.032  0.00  0.00    +0.000 A 
ATOM     33  H   UNL     1      47.206  11.403  12.041  0.00  0.00    +0.000 HD
ENDBRANCH  20  23
ENDBRANCH  18  19
ENDBRANCH   5  18
TORSDOF 6
ENDMDL
MODEL 7
REMARK VINA RESULT:    -8.108      2.861      3.408
REMARK INTER + INTRA:         -11.909
REMARK INTER:                 -11.031
REMARK INTRA:                  -0.878
REMARK UNBOUND:                -0.957
REMARK  Name = 
REMARK  6 active torsions:
REMARK  status: ('A' for Active; 'I' for Inactive)
REMARK    1  A    between atoms: C_2  and  C_25
REMARK    2  A    between atoms: N_3  and  C_4
REMARK    3  A    between atoms: C_4  and  C_5
REMARK    4  A    between atoms: C_9  and  C_10
REMARK    5  A    between atoms: C_10  and  N_11
REMARK    6  A    between atoms: C_12  and  C_14
REMARK                            x       y       z     vdW  Elec       q    Type
REMARK                         _______ _______ _______ _____ _____    ______ ____
ROOT
ATOM      1  C   UNL     1      44.051   3.756  11.794  0.00  0.00    +0.000 A 
ATOM      2  C   UNL     1      43.252   4.904  11.839  0.00  0.00    +0.000 A 
ATOM      3  C   UNL     1      43.669   6.023  12.558  0.00  0.00    +0.000 A 
ATOM      4  C   UNL     1      44.868   5.991  13.273  0.00  0.00    +0.000 A 
ATOM      5  C   UNL     1      45.654   4.829  13.297  0.00  0.00    +0.000 A 
ATOM      6  C   UNL     1      45.252   3.730  12.521  0.00  0.00    +0.000 A 
ENDROOT
BRANCH   1   7
ATOM      7  C   UNL     1      43.581   2.536  11.038  0.00  0.00    +0.000 C 
BRANCH   7  10
ATOM      8  O   UNL     1      44.053   4.053   8.739  0.00  0.00    +0.000 OA
ATOM      9  C   UNL     1      44.691   3.023   8.910  0.00  0.00    +0.000 C 
ATOM     10  N   UNL     1      44.521   2.195   9.997  0.00  0.00    +0.000 N 
ATOM     11  H   UNL     1      45.209   1.482  10.195  0.00  0.00    +0.000 HD
BRANCH   9  12
ATOM     12  C   UNL     1      45.757   2.624   7.950  0.00  0.00    +0.000 A 
ATOM     13  C   UNL     1      46.085   3.502   6.911  0.00  0.00    +0.000 A 
ATOM     14  C   UNL     1      47.096   3.170   6.007  0.00  0.00    +0.000 A 
ATOM     15  C   UNL     1      47.770   1.956   6.131  0.00  0.00    +0.000 A 
ATOM     16  C   UNL     1      47.428   1.065   7.150  0.00  0.00    +0.000 A 
ATOM     17  C   UNL     1      46.420   1.395   8.059  0.00  0.00    +0.000 A 
ENDBRANCH   9  12
ENDBRANCH   7  10
ENDBRANCH   1   7
BRANCH   5  18
ATOM     18  C   UNL     1      46.892   4.759  14.157  0.00  0.00    +0.000 C 
BRANCH  18  19
ATOM     19  N   UNL     1      47.321   6.059  14.598  0.00  0.00    +0.000 N 
ATOM     20  C   UNL     1      48.366   6.712  13.989  0.00  0.00    +0.000 C 
ATOM     21  O   UNL     1      48.955   6.245  13.018  0.00  0.00    +0.000 OA
ATOM     22  H   UNL     1      47.061   6.326  15.541  0.00  0.00    +0.000 HD
BRANCH  20  23
ATOM     23  C   UNL     1      48.695   8.039  14.522  0.00  0.00    +0.000 A 
ATOM     24  C   UNL     1      48.820   9.125  13.665  0.00  0.00    +0.000 A 
ATOM     25  S   UNL     1      49.128  10.598  14.471  0.00  0.00    +0.000 S 
ATOM     26  C   UNL     1      49.166   9.825  15.986  0.00  0.00    +0.000 A 
ATOM     27  N   UNL     1      49.413  10.524  17.126  0.00  0.00    +0.000 NA
ATOM     28  C   UNL     1      49.445   9.805  18.198  0.00  0.00    +0.000 A 
ATOM     29  N   UNL     1      49.247   8.448  18.235  0.00  0.00    +0.000 N 
ATOM     30  C   UNL     1      48.966   7.707  17.114  0.00  0.00    +0.000 A 
ATOM     31  O   UNL     1      48.756   6.500  17.186  0.00  0.00    +0.000 OA
ATOM     32  C   UNL     1      48.928   8.467  15.881  0.00  0.00    +0.000 A 
ATOM     33  H   UNL     1      49.278   7.943  19.108  0.00  0.00    +0.000 HD
ENDBRANCH  20  23
ENDBRANCH  18  19
ENDBRANCH   5  18
TORSDOF 6
ENDMDL
MODEL 8
REMARK VINA RESULT:    -7.860      2.311      3.135
REMARK INTER + INTRA:         -11.574
REMARK INTER:                 -10.652
REMARK INTRA:                  -0.922
REMARK UNBOUND:                -0.957
REMARK  Name = 
REMARK  6 active torsions:
REMARK  status: ('A' for Active; 'I' for Inactive)
REMARK    1  A    between atoms: C_2  and  C_25
REMARK    2  A    between atoms: N_3  and  C_4
REMARK    3  A    between atoms: C_4  and  C_5
REMARK    4  A    between atoms: C_9  and  C_10
REMARK    5  A    between atoms: C_10  and  N_11
REMARK    6  A    between atoms: C_12  and  C_14
REMARK                            x       y       z     vdW  Elec       q    Type
REMARK                         _______ _______ _______ _____ _____    ______ ____
ROOT
ATOM      1  C   UNL     1      44.949   7.347  11.566  0.00  0.00    +0.000 A 
ATOM      2  C   UNL     1      44.428   8.630  11.362  0.00  0.00    +0.000 A 
ATOM      3  C   UNL     1      45.141   9.753  11.778  0.00  0.00    +0.000 A 
ATOM      4  C   UNL     1      46.362   9.604  12.440  0.00  0.00    +0.000 A 
ATOM      5  C   UNL     1      46.873   8.327  12.714  0.00  0.00    +0.000 A 
ATOM      6  C   UNL     1      46.174   7.206  12.238  0.00  0.00    +0.000 A 
ENDROOT
BRANCH   1   7
ATOM      7  C   UNL     1      44.159   6.133  11.140  0.00  0.00    +0.000 C 
BRANCH   7  10
ATOM      8  O   UNL     1      43.532   3.515  10.391  0.00  0.00    +0.000 OA
ATOM      9  C   UNL     1      44.524   4.046   9.912  0.00  0.00    +0.000 C 
ATOM     10  N   UNL     1      44.932   5.322  10.230  0.00  0.00    +0.000 N 
ATOM     11  H   UNL     1      45.624   5.783   9.656  0.00  0.00    +0.000 HD
BRANCH   9  12
ATOM     12  C   UNL     1      45.340   3.339   8.887  0.00  0.00    +0.000 A 
ATOM     13  C   UNL     1      45.455   1.947   8.964  0.00  0.00    +0.000 A 
ATOM     14  C   UNL     1      46.193   1.250   8.005  0.00  0.00    +0.000 A 
ATOM     15  C   UNL     1      46.829   1.945   6.977  0.00  0.00    +0.000 A 
ATOM     16  C   UNL     1      46.740   3.336   6.911  0.00  0.00    +0.000 A 
ATOM     17  C   UNL     1      45.999   4.037   7.866  0.00  0.00    +0.000 A 
ENDBRANCH   9  12
ENDBRANCH   7  10
ENDBRANCH   1   7
BRANCH   5  18
ATOM     18  C   UNL     1      48.136   8.164  13.525  0.00  0.00    +0.000 C 
BRANCH  18  19
ATOM     19  N   UNL     1      47.910   7.430  14.741  0.00  0.00    +0.000 N 
ATOM     20  C   UNL     1      48.934   6.779  15.385  0.00  0.00    +0.000 C 
ATOM     21  O   UNL     1      50.095   6.826  14.986  0.00  0.00    +0.000 OA
ATOM     22  H   UNL     1      46.955   7.139  14.922  0.00  0.00    +0.000 HD
BRANCH  20  23
ATOM     23  C   UNL     1      48.576   6.079  16.624  0.00  0.00    +0.000 A 
ATOM     24  C   UNL     1      48.504   4.693  16.648  0.00  0.00    +0.000 A 
ATOM     25  S   UNL     1      48.150   4.054  18.191  0.00  0.00    +0.000 S 
ATOM     26  C   UNL     1      48.019   5.611  18.866  0.00  0.00    +0.000 A 
ATOM     27  N   UNL     1      47.703   5.785  20.177  0.00  0.00    +0.000 NA
ATOM     28  C   UNL     1      47.606   7.019  20.544  0.00  0.00    +0.000 A 
ATOM     29  N   UNL     1      47.799   8.098  19.720  0.00  0.00    +0.000 N 
ATOM     30  C   UNL     1      48.147   7.970  18.397  0.00  0.00    +0.000 A 
ATOM     31  O   UNL     1      48.350   8.956  17.696  0.00  0.00    +0.000 OA
ATOM     32  C   UNL     1      48.261   6.602  17.932  0.00  0.00    +0.000 A 
ATOM     33  H   UNL     1      47.714   9.040  20.070  0.00  0.00    +0.000 HD
ENDBRANCH  20  23
ENDBRANCH  18  19
ENDBRANCH   5  18
TORSDOF 6
ENDMDL
MODEL 9
REMARK VINA RESULT:    -7.790      2.615      3.885
REMARK INTER + INTRA:         -11.480
REMARK INTER:                 -10.211
REMARK INTRA:                  -1.269
REMARK UNBOUND:                -0.957
REMARK  Name = 
REMARK  6 active torsions:
REMARK  status: ('A' for Active; 'I' for Inactive)
REMARK    1  A    between atoms: C_2  and  C_25
REMARK    2  A    between atoms: N_3  and  C_4
REMARK    3  A    between atoms: C_4  and  C_5
REMARK    4  A    between atoms: C_9  and  C_10
REMARK    5  A    between atoms: C_10  and  N_11
REMARK    6  A    between atoms: C_12  and  C_14
REMARK                            x       y       z     vdW  Elec       q    Type
REMARK                         _______ _______ _______ _____ _____    ______ ____
ROOT
ATOM      1  C   UNL     1      44.829   8.315  11.570  0.00  0.00    +0.000 A 
ATOM      2  C   UNL     1      44.207   9.496  11.149  0.00  0.00    +0.000 A 
ATOM      3  C   UNL     1      44.884  10.712  11.220  0.00  0.00    +0.000 A 
ATOM      4  C   UNL     1      46.175  10.766  11.751  0.00  0.00    +0.000 A 
ATOM      5  C   UNL     1      46.795   9.607  12.239  0.00  0.00    +0.000 A 
ATOM      6  C   UNL     1      46.125   8.379  12.109  0.00  0.00    +0.000 A 
ENDROOT
BRANCH   1   7
ATOM      7  C   UNL     1      44.081   7.005  11.519  0.00  0.00    +0.000 C 
BRANCH   7  10
ATOM      8  O   UNL     1      44.166   4.219  11.720  0.00  0.00    +0.000 OA
ATOM      9  C   UNL     1      44.650   4.757  10.733  0.00  0.00    +0.000 C 
ATOM     10  N   UNL     1      44.678   6.120  10.547  0.00  0.00    +0.000 N 
ATOM     11  H   UNL     1      44.893   6.496   9.634  0.00  0.00    +0.000 HD
BRANCH   9  12
ATOM     12  C   UNL     1      45.204   3.937   9.620  0.00  0.00    +0.000 A 
ATOM     13  C   UNL     1      45.834   4.591   8.555  0.00  0.00    +0.000 A 
ATOM     14  C   UNL     1      46.385   3.851   7.507  0.00  0.00    +0.000 A 
ATOM     15  C   UNL     1      46.294   2.460   7.513  0.00  0.00    +0.000 A 
ATOM     16  C   UNL     1      45.643   1.805   8.559  0.00  0.00    +0.000 A 
ATOM     17  C   UNL     1      45.094   2.541   9.613  0.00  0.00    +0.000 A 
ENDBRANCH   9  12
ENDBRANCH   7  10
ENDBRANCH   1   7
BRANCH   5  18
ATOM     18  C   UNL     1      48.144   9.684  12.912  0.00  0.00    +0.000 C 
BRANCH  18  19
ATOM     19  N   UNL     1      48.211   8.860  14.090  0.00  0.00    +0.000 N 
ATOM     20  C   UNL     1      49.083   7.802  14.175  0.00  0.00    +0.000 C 
ATOM     21  O   UNL     1      49.876   7.532  13.276  0.00  0.00    +0.000 OA
ATOM     22  H   UNL     1      47.400   8.875  14.699  0.00  0.00    +0.000 HD
BRANCH  20  23
ATOM     23  C   UNL     1      49.065   7.051  15.435  0.00  0.00    +0.000 A 
ATOM     24  C   UNL     1      49.861   7.452  16.499  0.00  0.00    +0.000 A 
ATOM     25  S   UNL     1      49.649   6.506  17.905  0.00  0.00    +0.000 S 
ATOM     26  C   UNL     1      48.532   5.491  17.119  0.00  0.00    +0.000 A 
ATOM     27  N   UNL     1      47.968   4.435  17.765  0.00  0.00    +0.000 NA
ATOM     28  C   UNL     1      47.164   3.733  17.038  0.00  0.00    +0.000 A 
ATOM     29  N   UNL     1      46.869   3.992  15.724  0.00  0.00    +0.000 N 
ATOM     30  C   UNL     1      47.393   5.063  15.042  0.00  0.00    +0.000 A 
ATOM     31  O   UNL     1      47.079   5.289  13.877  0.00  0.00    +0.000 OA
ATOM     32  C   UNL     1      48.310   5.879  15.812  0.00  0.00    +0.000 A 
ATOM     33  H   UNL     1      46.226   3.407  15.211  0.00  0.00    +0.000 HD
ENDBRANCH  20  23
ENDBRANCH  18  19
ENDBRANCH   5  18
TORSDOF 6
ENDMDL
