MODEL 1
REMARK VINA RESULT:    -7.985      0.000      0.000
REMARK INTER + INTRA:         -12.866
REMARK INTER:                 -11.952
REMARK INTRA:                  -0.914
REMARK UNBOUND:                -0.914
REMARK  Name = 
REMARK  9 active torsions:
REMARK  status: ('A' for Active; 'I' for Inactive)
REMARK    1  A    between atoms: N_1  and  C_2
REMARK    2  A    between atoms: C_2  and  C_3
REMARK    3  A    between atoms: C_2  and  C_10
REMARK    4  A    between atoms: C_3  and  C_4
REMARK    5  A    between atoms: C_10  and  C_11
REMARK    6  A    between atoms: C_14  and  C_15
REMARK    7  A    between atoms: C_15  and  N_16
REMARK    8  A    between atoms: N_16  and  C_17
REMARK    9  A    between atoms: C_17  and  C_18
REMARK                            x       y       z     vdW  Elec       q    Type
REMARK                         _______ _______ _______ _____ _____    ______ ____
ROOT
ATOM      1  C   UNL     1      45.540   5.229  11.622  0.00  0.00    +0.000 A 
ATOM      2  C   UNL     1      45.849   4.635  12.852  0.00  0.00    +0.000 A 
ATOM      3  C   UNL     1      46.856   5.162  13.661  0.00  0.00    +0.000 A 
ATOM      4  C   UNL     1      47.592   6.282  13.250  0.00  0.00    +0.000 A 
ATOM      5  C   UNL     1      47.305   6.854  12.003  0.00  0.00    +0.000 A 
ATOM      6  C   UNL     1      46.284   6.335  11.198  0.00  0.00    +0.000 A 
ENDROOT
BRANCH   1   7
ATOM      7  C   UNL     1      44.396   4.697  10.788  0.00  0.00    +0.000 C 
BRANCH   7   8
ATOM      8  C   UNL     1      44.630   3.273  10.227  0.00  0.00    +0.000 C 
BRANCH   8   9
ATOM      9  N   UNL     1      43.621   2.368  10.813  0.00  0.00    +0.000 NA
ATOM     10  H   UNL     1      42.754   2.888  10.959  0.00  0.00    +0.000 HD
ATOM     11  H   UNL     1      43.921   2.080  11.745  0.00  0.00    +0.000 HD
ENDBRANCH   8   9
BRANCH   8  12
ATOM     12  C   UNL     1      44.583   3.224   8.677  0.00  0.00    +0.000 C 
BRANCH  12  13
ATOM     13  C   UNL     1      45.804   2.611   8.026  0.00  0.00    +0.000 A 
ATOM     14  C   UNL     1      46.072   1.245   8.152  0.00  0.00    +0.000 A 
ATOM     15  C   UNL     1      47.189   0.724   7.515  0.00  0.00    +0.000 A 
ATOM     16  N   UNL     1      48.043   1.460   6.774  0.00  0.00    +0.000 NA
ATOM     17  C   UNL     1      47.763   2.776   6.656  0.00  0.00    +0.000 A 
ATOM     18  C   UNL     1      46.668   3.388   7.249  0.00  0.00    +0.000 A 
ENDBRANCH  12  13
ENDBRANCH   8  12
ENDBRANCH   7   8
ENDBRANCH   1   7
BRANCH   4  19
ATOM     19  C   UNL     1      48.647   6.878  14.151  0.00  0.00    +0.000 C 
BRANCH  19  20
ATOM     20  N   UNL     1      48.140   7.060  15.507  0.00  0.00    +0.000 NA
ATOM     21  H   UNL     1      47.252   6.562  15.598  0.00  0.00    +0.000 HD
BRANCH  20  22
ATOM     22  C   UNL     1      49.066   6.510  16.501  0.00  0.00    +0.000 C 
BRANCH  22  23
ATOM     23  C   UNL     1      48.647   5.117  16.907  0.00  0.00    +0.000 A 
ATOM     24  C   UNL     1      47.302   4.808  17.091  0.00  0.00    +0.000 A 
ATOM     25  N   UNL     1      46.867   3.561  17.394  0.00  0.00    +0.000 NA
ATOM     26  C   UNL     1      47.835   2.623  17.484  0.00  0.00    +0.000 A 
ATOM     27  C   UNL     1      49.174   2.917  17.294  0.00  0.00    +0.000 A 
ATOM     28  N   UNL     1      49.613   4.162  17.005  0.00  0.00    +0.000 NA
ENDBRANCH  22  23
ENDBRANCH  20  22
ENDBRANCH  19  20
ENDBRANCH   4  19
TORSDOF 9
ENDMDL
MODEL 2
REMARK VINA RESULT:    -7.849      0.222      0.984
REMARK INTER + INTRA:         -12.664
REMARK INTER:                 -11.863
REMARK INTRA:                  -0.801
REMARK UNBOUND:                -0.914
REMARK  Name = 
REMARK  9 active torsions:
REMARK  status: ('A' for Active; 'I' for Inactive)
REMARK    1  A    between atoms: N_1  and  C_2
REMARK    2  A    between atoms: C_2  and  C_3
REMARK    3  A    between atoms: C_2  and  C_10
REMARK    4  A    between atoms: C_3  and  C_4
REMARK    5  A    between atoms: C_10  and  C_11
REMARK    6  A    between atoms: C_14  and  C_15
REMARK    7  A    between atoms: C_15  and  N_16
REMARK    8  A    between atoms: N_16  and  C_17
REMARK    9  A    between atoms: C_17  and  C_18
REMARK                            x       y       z     vdW  Elec       q    Type
REMARK                         _______ _______ _______ _____ _____    ______ ____
ROOT
ATOM      1  C   UNL     1      45.362   5.445  11.667  0.00  0.00    +0.000 A 
ATOM      2  C   UNL     1      45.973   6.663  11.343  0.00  0.00    +0.000 A 
ATOM      3  C   UNL     1      47.005   7.171  12.132  0.00  0.00    +0.000 A 
ATOM      4  C   UNL     1      47.436   6.485  13.276  0.00  0.00    +0.000 A 
ATOM      5  C   UNL     1      46.800   5.284  13.618  0.00  0.00    +0.000 A 
ATOM      6  C   UNL     1      45.775   4.766  12.819  0.00  0.00    +0.000 A 
ENDROOT
BRANCH   1   7
ATOM      7  C   UNL     1      44.298   4.865  10.764  0.00  0.00    +0.000 C 
BRANCH   7   8
ATOM      8  C   UNL     1      44.660   3.483  10.165  0.00  0.00    +0.000 C 
BRANCH   8   9
ATOM      9  N   UNL     1      43.703   2.484  10.684  0.00  0.00    +0.000 NA
ATOM     10  H   UNL     1      43.279   1.991   9.897  0.00  0.00    +0.000 HD
ATOM     11  H   UNL     1      42.931   2.961  11.149  0.00  0.00    +0.000 HD
ENDBRANCH   8   9
BRANCH   8  12
ATOM     12  C   UNL     1      44.670   3.486   8.614  0.00  0.00    +0.000 C 
BRANCH  12  13
ATOM     13  C   UNL     1      45.822   2.731   7.988  0.00  0.00    +0.000 A 
ATOM     14  C   UNL     1      45.974   1.357   8.195  0.00  0.00    +0.000 A 
ATOM     15  C   UNL     1      47.030   0.704   7.578  0.00  0.00    +0.000 A 
ATOM     16  N   UNL     1      47.932   1.316   6.782  0.00  0.00    +0.000 NA
ATOM     17  C   UNL     1      47.763   2.641   6.585  0.00  0.00    +0.000 A 
ATOM     18  C   UNL     1      46.735   3.381   7.152  0.00  0.00    +0.000 A 
ENDBRANCH  12  13
ENDBRANCH   8  12
ENDBRANCH   7   8
ENDBRANCH   1   7
BRANCH   4  19
ATOM     19  C   UNL     1      48.587   7.014  14.098  0.00  0.00    +0.000 C 
BRANCH  19  20
ATOM     20  N   UNL     1      48.255   7.035  15.518  0.00  0.00    +0.000 NA
ATOM     21  H   UNL     1      47.365   6.551  15.657  0.00  0.00    +0.000 HD
BRANCH  20  22
ATOM     22  C   UNL     1      49.271   6.339  16.314  0.00  0.00    +0.000 C 
BRANCH  22  23
ATOM     23  C   UNL     1      48.743   5.017  16.816  0.00  0.00    +0.000 A 
ATOM     24  C   UNL     1      47.374   4.813  16.966  0.00  0.00    +0.000 A 
ATOM     25  N   UNL     1      46.843   3.629  17.353  0.00  0.00    +0.000 NA
ATOM     26  C   UNL     1      47.741   2.640  17.564  0.00  0.00    +0.000 A 
ATOM     27  C   UNL     1      49.103   2.829  17.409  0.00  0.00    +0.000 A 
ATOM     28  N   UNL     1      49.636   4.014  17.036  0.00  0.00    +0.000 NA
ENDBRANCH  22  23
ENDBRANCH  20  22
ENDBRANCH  19  20
ENDBRANCH   4  19
TORSDOF 9
ENDMDL
MODEL 3
REMARK VINA RESULT:    -7.340      1.079      1.802
REMARK INTER + INTRA:         -11.902
REMARK INTER:                 -11.012
REMARK INTRA:                  -0.890
REMARK UNBOUND:                -0.914
REMARK  Name = 
REMARK  9 active torsions:
REMARK  status: ('A' for Active; 'I' for Inactive)
REMARK    1  A    between atoms: N_1  and  C_2
REMARK    2  A    between atoms: C_2  and  C_3
REMARK    3  A    between atoms: C_2  and  C_10
REMARK    4  A    between atoms: C_3  and  C_4
REMARK    5  A    between atoms: C_10  and  C_11
REMARK    6  A    between atoms: C_14  and  C_15
REMARK    7  A    between atoms: C_15  and  N_16
REMARK    8  A    between atoms: N_16  and  C_17
REMARK    9  A    between atoms: C_17  and  C_18
REMARK                            x       y       z     vdW  Elec       q    Type
REMARK                         _______ _______ _______ _____ _____    ______ ____
ROOT
ATOM      1  C   UNL     1      45.528   5.318  11.707  0.00  0.00    +0.000 A 
ATOM      2  C   UNL     1      46.048   4.814  12.906  0.00  0.00    +0.000 A 
ATOM      3  C   UNL     1      47.097   5.466  13.555  0.00  0.00    +0.000 A 
ATOM      4  C   UNL     1      47.666   6.625  13.009  0.00  0.00    +0.000 A 
ATOM      5  C   UNL     1      47.168   7.108  11.791  0.00  0.00    +0.000 A 
ATOM      6  C   UNL     1      46.105   6.463  11.148  0.00  0.00    +0.000 A 
ENDROOT
BRANCH   1   7
ATOM      7  C   UNL     1      44.342   4.648  11.053  0.00  0.00    +0.000 C 
BRANCH   7   8
ATOM      8  C   UNL     1      44.683   3.324  10.325  0.00  0.00    +0.000 C 
BRANCH   8   9
ATOM      9  N   UNL     1      43.737   2.284  10.778  0.00  0.00    +0.000 NA
ATOM     10  H   UNL     1      43.439   2.500  11.731  0.00  0.00    +0.000 HD
ATOM     11  H   UNL     1      44.221   1.389  10.846  0.00  0.00    +0.000 HD
ENDBRANCH   8   9
BRANCH   8  12
ATOM     12  C   UNL     1      44.653   3.465   8.781  0.00  0.00    +0.000 C 
BRANCH  12  13
ATOM     13  C   UNL     1      45.781   2.761   8.059  0.00  0.00    +0.000 A 
ATOM     14  C   UNL     1      46.652   3.470   7.228  0.00  0.00    +0.000 A 
ATOM     15  C   UNL     1      47.688   2.786   6.609  0.00  0.00    +0.000 A 
ATOM     16  N   UNL     1      47.910   1.463   6.759  0.00  0.00    +0.000 NA
ATOM     17  C   UNL     1      47.065   0.796   7.573  0.00  0.00    +0.000 A 
ATOM     18  C   UNL     1      46.005   1.392   8.241  0.00  0.00    +0.000 A 
ENDBRANCH  12  13
ENDBRANCH   8  12
ENDBRANCH   7   8
ENDBRANCH   1   7
BRANCH   4  19
ATOM     19  C   UNL     1      48.768   7.354  13.740  0.00  0.00    +0.000 C 
BRANCH  19  20
ATOM     20  N   UNL     1      49.477   6.462  14.651  0.00  0.00    +0.000 NA
ATOM     21  H   UNL     1      50.373   6.205  14.232  0.00  0.00    +0.000 HD
BRANCH  20  22
ATOM     22  C   UNL     1      49.752   7.117  15.933  0.00  0.00    +0.000 C 
BRANCH  22  23
ATOM     23  C   UNL     1      48.778   6.654  16.989  0.00  0.00    +0.000 A 
ATOM     24  C   UNL     1      48.286   5.352  16.976  0.00  0.00    +0.000 A 
ATOM     25  N   UNL     1      47.459   4.866  17.933  0.00  0.00    +0.000 NA
ATOM     26  C   UNL     1      47.160   5.734  18.925  0.00  0.00    +0.000 A 
ATOM     27  C   UNL     1      47.651   7.027  18.954  0.00  0.00    +0.000 A 
ATOM     28  N   UNL     1      48.465   7.519  17.993  0.00  0.00    +0.000 NA
ENDBRANCH  22  23
ENDBRANCH  20  22
ENDBRANCH  19  20
ENDBRANCH   4  19
TORSDOF 9
ENDMDL
MODEL 4
REMARK VINA RESULT:    -7.015      2.743      8.201
REMARK INTER + INTRA:         -11.415
REMARK INTER:                 -10.183
REMARK INTRA:                  -1.232
REMARK UNBOUND:                -0.914
REMARK  Name = 
REMARK  9 active torsions:
REMARK  status: ('A' for Active; 'I' for Inactive)
REMARK    1  A    between atoms: N_1  and  C_2
REMARK    2  A    between atoms: C_2  and  C_3
REMARK    3  A    between atoms: C_2  and  C_10
REMARK    4  A    between atoms: C_3  and  C_4
REMARK    5  A    between atoms: C_10  and  C_11
REMARK    6  A    between atoms: C_14  and  C_15
REMARK    7  A    between atoms: C_15  and  N_16
REMARK    8  A    between atoms: N_16  and  C_17
REMARK    9  A    between atoms: C_17  and  C_18
REMARK                            x       y       z     vdW  Elec       q    Type
REMARK                         _______ _______ _______ _____ _____    ______ ____
ROOT
ATOM      1  C   UNL     1      46.744   6.192  12.313  0.00  0.00    +0.000 A 
ATOM      2  C   UNL     1      46.264   5.184  13.160  0.00  0.00    +0.000 A 
ATOM      3  C   UNL     1      45.330   4.256  12.699  0.00  0.00    +0.000 A 
ATOM      4  C   UNL     1      44.838   4.326  11.389  0.00  0.00    +0.000 A 
ATOM      5  C   UNL     1      45.293   5.355  10.554  0.00  0.00    +0.000 A 
ATOM      6  C   UNL     1      46.242   6.277  11.011  0.00  0.00    +0.000 A 
ENDROOT
BRANCH   1   7
ATOM      7  C   UNL     1      47.813   7.145  12.798  0.00  0.00    +0.000 C 
BRANCH   7   8
ATOM      8  C   UNL     1      47.268   8.354  13.598  0.00  0.00    +0.000 C 
BRANCH   8   9
ATOM      9  N   UNL     1      47.829   8.302  14.963  0.00  0.00    +0.000 NA
ATOM     10  H   UNL     1      47.618   9.178  15.443  0.00  0.00    +0.000 HD
ATOM     11  H   UNL     1      48.847   8.263  14.912  0.00  0.00    +0.000 HD
ENDBRANCH   8   9
BRANCH   8  12
ATOM     12  C   UNL     1      47.583   9.713  12.921  0.00  0.00    +0.000 C 
BRANCH  12  13
ATOM     13  C   UNL     1      46.470  10.263  12.056  0.00  0.00    +0.000 A 
ATOM     14  C   UNL     1      46.716  11.290  11.141  0.00  0.00    +0.000 A 
ATOM     15  C   UNL     1      45.669  11.743  10.351  0.00  0.00    +0.000 A 
ATOM     16  N   UNL     1      44.414  11.250  10.411  0.00  0.00    +0.000 NA
ATOM     17  C   UNL     1      44.199  10.251  11.294  0.00  0.00    +0.000 A 
ATOM     18  C   UNL     1      45.181   9.727  12.121  0.00  0.00    +0.000 A 
ENDBRANCH  12  13
ENDBRANCH   8  12
ENDBRANCH   7   8
ENDBRANCH   1   7
BRANCH   4  19
ATOM     19  C   UNL     1      43.865   3.288  10.880  0.00  0.00    +0.000 C 
BRANCH  19  20
ATOM     20  N   UNL     1      43.999   3.101   9.440  0.00  0.00    +0.000 NA
ATOM     21  H   UNL     1      44.578   3.854   9.061  0.00  0.00    +0.000 HD
BRANCH  20  22
ATOM     22  C   UNL     1      44.655   1.829   9.126  0.00  0.00    +0.000 C 
BRANCH  22  23
ATOM     23  C   UNL     1      45.856   2.053   8.238  0.00  0.00    +0.000 A 
ATOM     24  C   UNL     1      46.657   0.983   7.848  0.00  0.00    +0.000 A 
ATOM     25  N   UNL     1      47.708   1.118   7.005  0.00  0.00    +0.000 NA
ATOM     26  C   UNL     1      47.915   2.372   6.544  0.00  0.00    +0.000 A 
ATOM     27  C   UNL     1      47.119   3.441   6.917  0.00  0.00    +0.000 A 
ATOM     28  N   UNL     1      46.078   3.311   7.769  0.00  0.00    +0.000 NA
ENDBRANCH  22  23
ENDBRANCH  20  22
ENDBRANCH  19  20
ENDBRANCH   4  19
TORSDOF 9
ENDMDL
MODEL 5
REMARK VINA RESULT:    -6.937      1.261      8.339
REMARK INTER + INTRA:         -11.299
REMARK INTER:                 -10.364
REMARK INTRA:                  -0.935
REMARK UNBOUND:                -0.914
REMARK  Name = 
REMARK  9 active torsions:
REMARK  status: ('A' for Active; 'I' for Inactive)
REMARK    1  A    between atoms: N_1  and  C_2
REMARK    2  A    between atoms: C_2  and  C_3
REMARK    3  A    between atoms: C_2  and  C_10
REMARK    4  A    between atoms: C_3  and  C_4
REMARK    5  A    between atoms: C_10  and  C_11
REMARK    6  A    between atoms: C_14  and  C_15
REMARK    7  A    between atoms: C_15  and  N_16
REMARK    8  A    between atoms: N_16  and  C_17
REMARK    9  A    between atoms: C_17  and  C_18
REMARK                            x       y       z     vdW  Elec       q    Type
REMARK                         _______ _______ _______ _____ _____    ______ ____
ROOT
ATOM      1  C   UNL     1      46.491   6.413  12.861  0.00  0.00    +0.000 A 
ATOM      2  C   UNL     1      45.803   5.397  13.538  0.00  0.00    +0.000 A 
ATOM      3  C   UNL     1      44.986   4.508  12.842  0.00  0.00    +0.000 A 
ATOM      4  C   UNL     1      44.818   4.625  11.455  0.00  0.00    +0.000 A 
ATOM      5  C   UNL     1      45.479   5.662  10.784  0.00  0.00    +0.000 A 
ATOM      6  C   UNL     1      46.312   6.546  11.480  0.00  0.00    +0.000 A 
ENDROOT
BRANCH   1   7
ATOM      7  C   UNL     1      47.435   7.323  13.614  0.00  0.00    +0.000 C 
BRANCH   7   8
ATOM      8  C   UNL     1      48.646   6.594  14.249  0.00  0.00    +0.000 C 
BRANCH   8   9
ATOM      9  N   UNL     1      49.869   7.011  13.533  0.00  0.00    +0.000 NA
ATOM     10  H   UNL     1      49.667   7.855  12.994  0.00  0.00    +0.000 HD
ATOM     11  H   UNL     1      50.116   6.304  12.841  0.00  0.00    +0.000 HD
ENDBRANCH   8   9
BRANCH   8  12
ATOM     12  C   UNL     1      48.776   6.863  15.770  0.00  0.00    +0.000 C 
BRANCH  12  13
ATOM     13  C   UNL     1      48.641   5.635  16.643  0.00  0.00    +0.000 A 
ATOM     14  C   UNL     1      47.782   4.593  16.285  0.00  0.00    +0.000 A 
ATOM     15  C   UNL     1      47.712   3.475  17.104  0.00  0.00    +0.000 A 
ATOM     16  N   UNL     1      48.428   3.329  18.239  0.00  0.00    +0.000 NA
ATOM     17  C   UNL     1      49.260   4.341  18.563  0.00  0.00    +0.000 A 
ATOM     18  C   UNL     1      49.404   5.494  17.806  0.00  0.00    +0.000 A 
ENDBRANCH  12  13
ENDBRANCH   8  12
ENDBRANCH   7   8
ENDBRANCH   1   7
BRANCH   4  19
ATOM     19  C   UNL     1      43.971   3.629  10.699  0.00  0.00    +0.000 C 
BRANCH  19  20
ATOM     20  N   UNL     1      44.697   2.384  10.472  0.00  0.00    +0.000 NA
ATOM     21  H   UNL     1      44.379   1.687  11.150  0.00  0.00    +0.000 HD
BRANCH  20  22
ATOM     22  C   UNL     1      44.441   1.853   9.130  0.00  0.00    +0.000 C 
BRANCH  22  23
ATOM     23  C   UNL     1      45.643   2.052   8.239  0.00  0.00    +0.000 A 
ATOM     24  C   UNL     1      45.947   3.312   7.731  0.00  0.00    +0.000 A 
ATOM     25  N   UNL     1      47.047   3.558   6.979  0.00  0.00    +0.000 NA
ATOM     26  C   UNL     1      47.849   2.491   6.772  0.00  0.00    +0.000 A 
ATOM     27  C   UNL     1      47.562   1.236   7.280  0.00  0.00    +0.000 A 
ATOM     28  N   UNL     1      46.459   0.984   8.019  0.00  0.00    +0.000 NA
ENDBRANCH  22  23
ENDBRANCH  20  22
ENDBRANCH  19  20
ENDBRANCH   4  19
TORSDOF 9
ENDMDL
MODEL 6
REMARK VINA RESULT:    -6.765      2.787      4.658
REMARK INTER + INTRA:         -11.040
REMARK INTER:                 -10.318
REMARK INTRA:                  -0.722
REMARK UNBOUND:                -0.914
REMARK  Name = 
REMARK  9 active torsions:
REMARK  status: ('A' for Active; 'I' for Inactive)
REMARK    1  A    between atoms: N_1  and  C_2
REMARK    2  A    between atoms: C_2  and  C_3
REMARK    3  A    between atoms: C_2  and  C_10
REMARK    4  A    between atoms: C_3  and  C_4
REMARK    5  A    between atoms: C_10  and  C_11
REMARK    6  A    between atoms: C_14  and  C_15
REMARK    7  A    between atoms: C_15  and  N_16
REMARK    8  A    between atoms: N_16  and  C_17
REMARK    9  A    between atoms: C_17  and  C_18
REMARK                            x       y       z     vdW  Elec       q    Type
REMARK                         _______ _______ _______ _____ _____    ______ ____
ROOT
ATOM      1  C   UNL     1      45.613   5.319  11.703  0.00  0.00    +0.000 A 
ATOM      2  C   UNL     1      45.956   4.657  12.888  0.00  0.00    +0.000 A 
ATOM      3  C   UNL     1      46.974   5.149  13.706  0.00  0.00    +0.000 A 
ATOM      4  C   UNL     1      47.686   6.302  13.348  0.00  0.00    +0.000 A 
ATOM      5  C   UNL     1      47.365   6.943  12.145  0.00  0.00    +0.000 A 
ATOM      6  C   UNL     1      46.334   6.459  11.331  0.00  0.00    +0.000 A 
ENDROOT
BRANCH   1   7
ATOM      7  C   UNL     1      44.458   4.823  10.863  0.00  0.00    +0.000 C 
BRANCH   7   8
ATOM      8  C   UNL     1      44.679   3.417  10.250  0.00  0.00    +0.000 C 
BRANCH   8   9
ATOM      9  N   UNL     1      43.667   2.499  10.811  0.00  0.00    +0.000 NA
ATOM     10  H   UNL     1      42.950   3.048  11.289  0.00  0.00    +0.000 HD
ATOM     11  H   UNL     1      44.094   1.925  11.538  0.00  0.00    +0.000 HD
ENDBRANCH   8   9
BRANCH   8  12
ATOM     12  C   UNL     1      44.623   3.423   8.701  0.00  0.00    +0.000 C 
BRANCH  12  13
ATOM     13  C   UNL     1      45.778   2.719   8.023  0.00  0.00    +0.000 A 
ATOM     14  C   UNL     1      46.684   3.429   7.231  0.00  0.00    +0.000 A 
ATOM     15  C   UNL     1      47.742   2.744   6.652  0.00  0.00    +0.000 A 
ATOM     16  N   UNL     1      47.954   1.420   6.805  0.00  0.00    +0.000 NA
ATOM     17  C   UNL     1      47.074   0.752   7.581  0.00  0.00    +0.000 A 
ATOM     18  C   UNL     1      45.990   1.349   8.207  0.00  0.00    +0.000 A 
ENDBRANCH  12  13
ENDBRANCH   8  12
ENDBRANCH   7   8
ENDBRANCH   1   7
BRANCH   4  19
ATOM     19  C   UNL     1      48.753   6.857  14.262  0.00  0.00    +0.000 C 
BRANCH  19  20
ATOM     20  N   UNL     1      49.964   7.188  13.520  0.00  0.00    +0.000 NA
ATOM     21  H   UNL     1      49.917   6.749  12.597  0.00  0.00    +0.000 HD
BRANCH  20  22
ATOM     22  C   UNL     1      50.090   8.634  13.321  0.00  0.00    +0.000 C 
BRANCH  22  23
ATOM     23  C   UNL     1      50.860   8.934  12.057  0.00  0.00    +0.000 A 
ATOM     24  C   UNL     1      51.102  10.250  11.672  0.00  0.00    +0.000 A 
ATOM     25  N   UNL     1      51.838  10.575  10.582  0.00  0.00    +0.000 NA
ATOM     26  C   UNL     1      52.347   9.525   9.900  0.00  0.00    +0.000 A 
ATOM     27  C   UNL     1      52.121   8.213  10.280  0.00  0.00    +0.000 A 
ATOM     28  N   UNL     1      51.375   7.885  11.359  0.00  0.00    +0.000 NA
ENDBRANCH  22  23
ENDBRANCH  20  22
ENDBRANCH  19  20
ENDBRANCH   4  19
TORSDOF 9
ENDMDL
MODEL 7
REMARK VINA RESULT:    -6.670      2.644      4.859
REMARK INTER + INTRA:         -10.899
REMARK INTER:                 -10.085
REMARK INTRA:                  -0.814
REMARK UNBOUND:                -0.914
REMARK  Name = 
REMARK  9 active torsions:
REMARK  status: ('A' for Active; 'I' for Inactive)
REMARK    1  A    between atoms: N_1  and  C_2
REMARK    2  A    between atoms: C_2  and  C_3
REMARK    3  A    between atoms: C_2  and  C_10
REMARK    4  A    between atoms: C_3  and  C_4
REMARK    5  A    between atoms: C_10  and  C_11
REMARK    6  A    between atoms: C_14  and  C_15
REMARK    7  A    between atoms: C_15  and  N_16
REMARK    8  A    between atoms: N_16  and  C_17
REMARK    9  A    between atoms: C_17  and  C_18
REMARK                            x       y       z     vdW  Elec       q    Type
REMARK                         _______ _______ _______ _____ _____    ______ ____
ROOT
ATOM      1  C   UNL     1      45.487   5.347  11.771  0.00  0.00    +0.000 A 
ATOM      2  C   UNL     1      46.238   6.357  11.155  0.00  0.00    +0.000 A 
ATOM      3  C   UNL     1      47.355   6.897  11.791  0.00  0.00    +0.000 A 
ATOM      4  C   UNL     1      47.736   6.457  13.067  0.00  0.00    +0.000 A 
ATOM      5  C   UNL     1      46.964   5.472  13.695  0.00  0.00    +0.000 A 
ATOM      6  C   UNL     1      45.851   4.918  13.051  0.00  0.00    +0.000 A 
ENDROOT
BRANCH   1   7
ATOM      7  C   UNL     1      44.324   4.714  11.041  0.00  0.00    +0.000 C 
BRANCH   7   8
ATOM      8  C   UNL     1      44.676   3.392  10.314  0.00  0.00    +0.000 C 
BRANCH   8   9
ATOM      9  N   UNL     1      43.706   2.358  10.728  0.00  0.00    +0.000 NA
ATOM     10  H   UNL     1      42.833   2.498  10.216  0.00  0.00    +0.000 HD
ATOM     11  H   UNL     1      43.464   2.491  11.710  0.00  0.00    +0.000 HD
ENDBRANCH   8   9
BRANCH   8  12
ATOM     12  C   UNL     1      44.698   3.545   8.771  0.00  0.00    +0.000 C 
BRANCH  12  13
ATOM     13  C   UNL     1      45.795   2.770   8.074  0.00  0.00    +0.000 A 
ATOM     14  C   UNL     1      45.968   1.404   8.311  0.00  0.00    +0.000 A 
ATOM     15  C   UNL     1      46.971   0.731   7.629  0.00  0.00    +0.000 A 
ATOM     16  N   UNL     1      47.800   1.318   6.740  0.00  0.00    +0.000 NA
ATOM     17  C   UNL     1      47.611   2.636   6.517  0.00  0.00    +0.000 A 
ATOM     18  C   UNL     1      46.633   3.393   7.145  0.00  0.00    +0.000 A 
ENDBRANCH  12  13
ENDBRANCH   8  12
ENDBRANCH   7   8
ENDBRANCH   1   7
BRANCH   4  19
ATOM     19  C   UNL     1      48.976   7.010  13.729  0.00  0.00    +0.000 C 
BRANCH  19  20
ATOM     20  N   UNL     1      49.686   7.924  12.840  0.00  0.00    +0.000 NA
ATOM     21  H   UNL     1      49.280   7.857  11.904  0.00  0.00    +0.000 HD
BRANCH  20  22
ATOM     22  C   UNL     1      49.553   9.313  13.287  0.00  0.00    +0.000 C 
BRANCH  22  23
ATOM     23  C   UNL     1      48.991  10.177  12.184  0.00  0.00    +0.000 A 
ATOM     24  C   UNL     1      47.668  10.607  12.226  0.00  0.00    +0.000 A 
ATOM     25  N   UNL     1      47.131  11.433  11.297  0.00  0.00    +0.000 NA
ATOM     26  C   UNL     1      47.982  11.835  10.327  0.00  0.00    +0.000 A 
ATOM     27  C   UNL     1      49.302  11.422  10.281  0.00  0.00    +0.000 A 
ATOM     28  N   UNL     1      49.837  10.587  11.199  0.00  0.00    +0.000 NA
ENDBRANCH  22  23
ENDBRANCH  20  22
ENDBRANCH  19  20
ENDBRANCH   4  19
TORSDOF 9
ENDMDL
MODEL 8
REMARK VINA RESULT:    -6.661      1.457      2.304
REMARK INTER + INTRA:         -10.884
REMARK INTER:                 -11.149
REMARK INTRA:                   0.265
REMARK UNBOUND:                -0.914
REMARK  Name = 
REMARK  9 active torsions:
REMARK  status: ('A' for Active; 'I' for Inactive)
REMARK    1  A    between atoms: N_1  and  C_2
REMARK    2  A    between atoms: C_2  and  C_3
REMARK    3  A    between atoms: C_2  and  C_10
REMARK    4  A    between atoms: C_3  and  C_4
REMARK    5  A    between atoms: C_10  and  C_11
REMARK    6  A    between atoms: C_14  and  C_15
REMARK    7  A    between atoms: C_15  and  N_16
REMARK    8  A    between atoms: N_16  and  C_17
REMARK    9  A    between atoms: C_17  and  C_18
REMARK                            x       y       z     vdW  Elec       q    Type
REMARK                         _______ _______ _______ _____ _____    ______ ____
ROOT
ATOM      1  C   UNL     1      44.748   5.045  11.466  0.00  0.00    +0.000 A 
ATOM      2  C   UNL     1      45.162   6.359  11.720  0.00  0.00    +0.000 A 
ATOM      3  C   UNL     1      46.131   6.622  12.688  0.00  0.00    +0.000 A 
ATOM      4  C   UNL     1      46.694   5.581  13.441  0.00  0.00    +0.000 A 
ATOM      5  C   UNL     1      46.252   4.271  13.209  0.00  0.00    +0.000 A 
ATOM      6  C   UNL     1      45.292   4.005  12.227  0.00  0.00    +0.000 A 
ENDROOT
BRANCH   1   7
ATOM      7  C   UNL     1      43.754   4.762  10.362  0.00  0.00    +0.000 C 
BRANCH   7   8
ATOM      8  C   UNL     1      44.402   4.340   9.020  0.00  0.00    +0.000 C 
BRANCH   8   9
ATOM      9  N   UNL     1      45.630   5.138   8.823  0.00  0.00    +0.000 NA
ATOM     10  H   UNL     1      45.824   5.664   9.676  0.00  0.00    +0.000 HD
ATOM     11  H   UNL     1      45.467   5.843   8.105  0.00  0.00    +0.000 HD
ENDBRANCH   8   9
BRANCH   8  12
ATOM     12  C   UNL     1      44.711   2.822   8.954  0.00  0.00    +0.000 C 
BRANCH  12  13
ATOM     13  C   UNL     1      45.777   2.436   7.952  0.00  0.00    +0.000 A 
ATOM     14  C   UNL     1      46.093   3.279   6.884  0.00  0.00    +0.000 A 
ATOM     15  C   UNL     1      47.096   2.894   6.006  0.00  0.00    +0.000 A 
ATOM     16  N   UNL     1      47.794   1.744   6.119  0.00  0.00    +0.000 NA
ATOM     17  C   UNL     1      47.481   0.948   7.163  0.00  0.00    +0.000 A 
ATOM     18  C   UNL     1      46.500   1.248   8.096  0.00  0.00    +0.000 A 
ENDBRANCH  12  13
ENDBRANCH   8  12
ENDBRANCH   7   8
ENDBRANCH   1   7
BRANCH   4  19
ATOM     19  C   UNL     1      47.778   5.866  14.452  0.00  0.00    +0.000 C 
BRANCH  19  20
ATOM     20  N   UNL     1      47.638   5.017  15.630  0.00  0.00    +0.000 NA
ATOM     21  H   UNL     1      47.960   4.075  15.399  0.00  0.00    +0.000 HD
BRANCH  20  22
ATOM     22  C   UNL     1      48.453   5.509  16.743  0.00  0.00    +0.000 C 
BRANCH  22  23
ATOM     23  C   UNL     1      49.590   4.559  17.033  0.00  0.00    +0.000 A 
ATOM     24  C   UNL     1      50.832   5.042  17.434  0.00  0.00    +0.000 A 
ATOM     25  N   UNL     1      51.867   4.233  17.766  0.00  0.00    +0.000 NA
ATOM     26  C   UNL     1      51.601   2.910  17.704  0.00  0.00    +0.000 A 
ATOM     27  C   UNL     1      50.367   2.417  17.316  0.00  0.00    +0.000 A 
ATOM     28  N   UNL     1      49.337   3.222  16.971  0.00  0.00    +0.000 NA
ENDBRANCH  22  23
ENDBRANCH  20  22
ENDBRANCH  19  20
ENDBRANCH   4  19
TORSDOF 9
ENDMDL
MODEL 9
REMARK VINA RESULT:    -6.647      2.131      3.389
REMARK INTER + INTRA:         -10.865
REMARK INTER:                 -10.108
REMARK INTRA:                  -0.757
REMARK UNBOUND:                -0.914
REMARK  Name = 
REMARK  9 active torsions:
REMARK  status: ('A' for Active; 'I' for Inactive)
REMARK    1  A    between atoms: N_1  and  C_2
REMARK    2  A    between atoms: C_2  and  C_3
REMARK    3  A    between atoms: C_2  and  C_10
REMARK    4  A    between atoms: C_3  and  C_4
REMARK    5  A    between atoms: C_10  and  C_11
REMARK    6  A    between atoms: C_14  and  C_15
REMARK    7  A    between atoms: C_15  and  N_16
REMARK    8  A    between atoms: N_16  and  C_17
REMARK    9  A    between atoms: C_17  and  C_18
REMARK                            x       y       z     vdW  Elec       q    Type
REMARK                         _______ _______ _______ _____ _____    ______ ____
ROOT
ATOM      1  C   UNL     1      45.402   5.350  11.669  0.00  0.00    +0.000 A 
ATOM      2  C   UNL     1      46.144   6.448  11.216  0.00  0.00    +0.000 A 
ATOM      3  C   UNL     1      47.204   6.949  11.973  0.00  0.00    +0.000 A 
ATOM      4  C   UNL     1      47.533   6.377  13.210  0.00  0.00    +0.000 A 
ATOM      5  C   UNL     1      46.768   5.300  13.677  0.00  0.00    +0.000 A 
ATOM      6  C   UNL     1      45.715   4.788  12.911  0.00  0.00    +0.000 A 
ENDROOT
BRANCH   1   7
ATOM      7  C   UNL     1      44.306   4.767  10.806  0.00  0.00    +0.000 C 
BRANCH   7   8
ATOM      8  C   UNL     1      44.641   3.378  10.209  0.00  0.00    +0.000 C 
BRANCH   8   9
ATOM      9  N   UNL     1      43.678   2.394  10.745  0.00  0.00    +0.000 NA
ATOM     10  H   UNL     1      43.858   1.485  10.316  0.00  0.00    +0.000 HD
ATOM     11  H   UNL     1      42.734   2.647  10.452  0.00  0.00    +0.000 HD
ENDBRANCH   8   9
BRANCH   8  12
ATOM     12  C   UNL     1      44.631   3.374   8.659  0.00  0.00    +0.000 C 
BRANCH  12  13
ATOM     13  C   UNL     1      45.825   2.697   8.020  0.00  0.00    +0.000 A 
ATOM     14  C   UNL     1      46.036   1.325   8.174  0.00  0.00    +0.000 A 
ATOM     15  C   UNL     1      47.130   0.745   7.548  0.00  0.00    +0.000 A 
ATOM     16  N   UNL     1      48.013   1.429   6.791  0.00  0.00    +0.000 NA
ATOM     17  C   UNL     1      47.787   2.752   6.645  0.00  0.00    +0.000 A 
ATOM     18  C   UNL     1      46.719   3.421   7.226  0.00  0.00    +0.000 A 
ENDBRANCH  12  13
ENDBRANCH   8  12
ENDBRANCH   7   8
ENDBRANCH   1   7
BRANCH   4  19
ATOM     19  C   UNL     1      48.713   6.891  14.001  0.00  0.00    +0.000 C 
BRANCH  19  20
ATOM     20  N   UNL     1      48.301   7.351  15.323  0.00  0.00    +0.000 NA
ATOM     21  H   UNL     1      48.993   7.043  16.010  0.00  0.00    +0.000 HD
BRANCH  20  22
ATOM     22  C   UNL     1      48.231   8.813  15.381  0.00  0.00    +0.000 C 
BRANCH  22  23
ATOM     23  C   UNL     1      48.669   9.315  16.736  0.00  0.00    +0.000 A 
ATOM     24  C   UNL     1      49.959   9.803  16.927  0.00  0.00    +0.000 A 
ATOM     25  N   UNL     1      50.384  10.321  18.104  0.00  0.00    +0.000 NA
ATOM     26  C   UNL     1      49.454  10.355  19.084  0.00  0.00    +0.000 A 
ATOM     27  C   UNL     1      48.166   9.882  18.903  0.00  0.00    +0.000 A 
ATOM     28  N   UNL     1      47.743   9.351  17.734  0.00  0.00    +0.000 NA
ENDBRANCH  22  23
ENDBRANCH  20  22
ENDBRANCH  19  20
ENDBRANCH   4  19
TORSDOF 9
ENDMDL
