MODEL 1
REMARK VINA RESULT:    -8.683      0.000      0.000
REMARK INTER + INTRA:         -13.211
REMARK INTER:                 -12.236
REMARK INTRA:                  -0.975
REMARK UNBOUND:                -0.975
REMARK  Name = 
REMARK  8 active torsions:
REMARK  status: ('A' for Active; 'I' for Inactive)
REMARK    1  A    between atoms: C_1  and  O_2
REMARK    2  A    between atoms: O_2  and  C_3
REMARK    3  A    between atoms: C_6  and  C_7
REMARK    4  A    between atoms: C_11  and  C_12
REMARK    5  A    between atoms: C_12  and  C_13
REMARK    6  A    between atoms: C_13  and  N_14
REMARK    7  A    between atoms: N_14  and  C_15
REMARK    8  A    between atoms: C_18  and  C_19
REMARK                            x       y       z     vdW  Elec       q    Type
REMARK                         _______ _______ _______ _____ _____    ______ ____
ROOT
ATOM      1  C   UNL     1      43.518   5.074  12.211  0.00  0.00    +0.000 C 
ENDROOT
BRANCH   1   6
ATOM      2  C   UNL     1      46.965   5.411  13.904  0.00  0.00    +0.000 A 
ATOM      3  C   UNL     1      47.634   6.183  12.945  0.00  0.00    +0.000 A 
ATOM      4  C   UNL     1      46.983   6.619  11.790  0.00  0.00    +0.000 A 
ATOM      5  C   UNL     1      45.651   6.272  11.561  0.00  0.00    +0.000 A 
ATOM      6  C   UNL     1      44.948   5.500  12.493  0.00  0.00    +0.000 A 
ATOM      7  C   UNL     1      45.619   5.106  13.663  0.00  0.00    +0.000 A 
BRANCH   2  11
ATOM      8  C   UNL     1      48.799   4.041  17.385  0.00  0.00    +0.000 A 
ATOM      9  C   UNL     1      47.964   3.221  16.645  0.00  0.00    +0.000 A 
ATOM     10  N   UNL     1      47.357   3.640  15.506  0.00  0.00    +0.000 NA
ATOM     11  C   UNL     1      47.621   4.923  15.122  0.00  0.00    +0.000 A 
ATOM     12  C   UNL     1      48.465   5.723  15.880  0.00  0.00    +0.000 A 
ATOM     13  N   UNL     1      49.074   5.309  17.006  0.00  0.00    +0.000 NA
BRANCH   8  15
ATOM     14  C   UNL     1      49.902   4.626  19.338  0.00  0.00    +0.000 C 
ATOM     15  O   UNL     1      49.343   3.568  18.557  0.00  0.00    +0.000 OA
ENDBRANCH   8  15
ENDBRANCH   2  11
ENDBRANCH   1   6
BRANCH   1  16
ATOM     16  C   UNL     1      43.263   4.722  10.739  0.00  0.00    +0.000 C 
BRANCH  16  17
ATOM     17  N   UNL     1      43.664   3.368  10.392  0.00  0.00    +0.000 N 
ATOM     18  H   UNL     1      43.625   2.680  11.139  0.00  0.00    +0.000 HD
BRANCH  17  19
ATOM     19  C   UNL     1      44.692   3.180   9.465  0.00  0.00    +0.000 A 
ATOM     20  C   UNL     1      45.237   4.206   8.679  0.00  0.00    +0.000 A 
ATOM     21  C   UNL     1      46.181   3.939   7.676  0.00  0.00    +0.000 A 
ATOM     22  C   UNL     1      46.582   2.628   7.418  0.00  0.00    +0.000 A 
ATOM     23  C   UNL     1      46.035   1.604   8.185  0.00  0.00    +0.000 A 
ATOM     24  F   UNL     1      46.368   0.320   7.972  0.00  0.00    +0.000 F 
ATOM     25  C   UNL     1      45.103   1.871   9.194  0.00  0.00    +0.000 A 
BRANCH  22  26
ATOM     26  C   UNL     1      47.557   2.390   6.322  0.00  0.00    +0.000 C 
ATOM     27  N   UNL     1      47.395   3.074   5.151  0.00  0.00    +0.000 N 
ATOM     28  O   UNL     1      48.490   1.600   6.452  0.00  0.00    +0.000 OA
ATOM     29  H   UNL     1      46.654   3.750   5.008  0.00  0.00    +0.000 HD
ATOM     30  H   UNL     1      48.067   2.924   4.415  0.00  0.00    +0.000 HD
ENDBRANCH  22  26
ENDBRANCH  17  19
ENDBRANCH  16  17
ENDBRANCH   1  16
TORSDOF 7
ENDMDL
MODEL 2
REMARK VINA RESULT:    -8.437      3.599      5.206
REMARK INTER + INTRA:         -12.864
REMARK INTER:                 -11.860
REMARK INTRA:                  -1.004
REMARK UNBOUND:                -0.975
REMARK  Name = 
REMARK  8 active torsions:
REMARK  status: ('A' for Active; 'I' for Inactive)
REMARK    1  A    between atoms: C_1  and  O_2
REMARK    2  A    between atoms: O_2  and  C_3
REMARK    3  A    between atoms: C_6  and  C_7
REMARK    4  A    between atoms: C_11  and  C_12
REMARK    5  A    between atoms: C_12  and  C_13
REMARK    6  A    between atoms: C_13  and  N_14
REMARK    7  A    between atoms: N_14  and  C_15
REMARK    8  A    between atoms: C_18  and  C_19
REMARK                            x       y       z     vdW  Elec       q    Type
REMARK                         _______ _______ _______ _____ _____    ______ ____
ROOT
ATOM      1  C   UNL     1      43.638   3.950  12.942  0.00  0.00    +0.000 C 
ENDROOT
BRANCH   1   6
ATOM      2  C   UNL     1      45.791   7.120  12.526  0.00  0.00    +0.000 A 
ATOM      3  C   UNL     1      47.020   6.646  13.006  0.00  0.00    +0.000 A 
ATOM      4  C   UNL     1      47.166   5.323  13.425  0.00  0.00    +0.000 A 
ATOM      5  C   UNL     1      46.078   4.450  13.391  0.00  0.00    +0.000 A 
ATOM      6  C   UNL     1      44.834   4.886  12.920  0.00  0.00    +0.000 A 
ATOM      7  C   UNL     1      44.726   6.213  12.472  0.00  0.00    +0.000 A 
BRANCH   2  11
ATOM      8  C   UNL     1      45.259  11.053  11.258  0.00  0.00    +0.000 A 
ATOM      9  C   UNL     1      44.310  10.080  10.992  0.00  0.00    +0.000 A 
ATOM     10  N   UNL     1      44.457   8.793  11.397  0.00  0.00    +0.000 NA
ATOM     11  C   UNL     1      45.596   8.507  12.091  0.00  0.00    +0.000 A 
ATOM     12  C   UNL     1      46.530   9.502  12.348  0.00  0.00    +0.000 A 
ATOM     13  N   UNL     1      46.385  10.780  11.954  0.00  0.00    +0.000 NA
BRANCH   8  15
ATOM     14  C   UNL     1      43.930  12.399   9.918  0.00  0.00    +0.000 C 
ATOM     15  O   UNL     1      45.071  12.328  10.776  0.00  0.00    +0.000 OA
ENDBRANCH   8  15
ENDBRANCH   2  11
ENDBRANCH   1   6
BRANCH   1  16
ATOM     16  C   UNL     1      43.608   2.965  11.765  0.00  0.00    +0.000 C 
BRANCH  16  17
ATOM     17  N   UNL     1      43.596   3.619  10.466  0.00  0.00    +0.000 N 
ATOM     18  H   UNL     1      42.684   3.771  10.046  0.00  0.00    +0.000 HD
BRANCH  17  19
ATOM     19  C   UNL     1      44.630   3.358   9.564  0.00  0.00    +0.000 A 
ATOM     20  C   UNL     1      45.265   4.341   8.791  0.00  0.00    +0.000 A 
ATOM     21  C   UNL     1      46.211   4.007   7.810  0.00  0.00    +0.000 A 
ATOM     22  C   UNL     1      46.525   2.670   7.562  0.00  0.00    +0.000 A 
ATOM     23  C   UNL     1      45.888   1.688   8.316  0.00  0.00    +0.000 A 
ATOM     24  F   UNL     1      46.134   0.384   8.110  0.00  0.00    +0.000 F 
ATOM     25  C   UNL     1      44.954   2.022   9.302  0.00  0.00    +0.000 A 
BRANCH  22  26
ATOM     26  C   UNL     1      47.505   2.362   6.490  0.00  0.00    +0.000 C 
ATOM     27  N   UNL     1      47.364   2.986   5.283  0.00  0.00    +0.000 N 
ATOM     28  O   UNL     1      48.427   1.568   6.670  0.00  0.00    +0.000 OA
ATOM     29  H   UNL     1      46.633   3.662   5.098  0.00  0.00    +0.000 HD
ATOM     30  H   UNL     1      48.040   2.788   4.562  0.00  0.00    +0.000 HD
ENDBRANCH  22  26
ENDBRANCH  17  19
ENDBRANCH  16  17
ENDBRANCH   1  16
TORSDOF 7
ENDMDL
MODEL 3
REMARK VINA RESULT:    -7.652      2.302      2.763
REMARK INTER + INTRA:         -11.758
REMARK INTER:                 -10.878
REMARK INTRA:                  -0.880
REMARK UNBOUND:                -0.975
REMARK  Name = 
REMARK  8 active torsions:
REMARK  status: ('A' for Active; 'I' for Inactive)
REMARK    1  A    between atoms: C_1  and  O_2
REMARK    2  A    between atoms: O_2  and  C_3
REMARK    3  A    between atoms: C_6  and  C_7
REMARK    4  A    between atoms: C_11  and  C_12
REMARK    5  A    between atoms: C_12  and  C_13
REMARK    6  A    between atoms: C_13  and  N_14
REMARK    7  A    between atoms: N_14  and  C_15
REMARK    8  A    between atoms: C_18  and  C_19
REMARK                            x       y       z     vdW  Elec       q    Type
REMARK                         _______ _______ _______ _____ _____    ______ ____
ROOT
ATOM      1  C   UNL     1      43.692   3.873  12.943  0.00  0.00    +0.000 C 
ENDROOT
BRANCH   1   6
ATOM      2  C   UNL     1      46.221   6.771  12.697  0.00  0.00    +0.000 A 
ATOM      3  C   UNL     1      45.512   7.644  11.860  0.00  0.00    +0.000 A 
ATOM      4  C   UNL     1      44.230   7.325  11.409  0.00  0.00    +0.000 A 
ATOM      5  C   UNL     1      43.639   6.114  11.770  0.00  0.00    +0.000 A 
ATOM      6  C   UNL     1      44.315   5.215  12.603  0.00  0.00    +0.000 A 
ATOM      7  C   UNL     1      45.589   5.578  13.069  0.00  0.00    +0.000 A 
BRANCH   2  11
ATOM      8  C   UNL     1      50.054   7.640  14.081  0.00  0.00    +0.000 A 
ATOM      9  C   UNL     1      49.212   6.794  14.785  0.00  0.00    +0.000 A 
ATOM     10  N   UNL     1      47.962   6.491  14.354  0.00  0.00    +0.000 NA
ATOM     11  C   UNL     1      47.575   7.066  13.178  0.00  0.00    +0.000 A 
ATOM     12  C   UNL     1      48.439   7.908  12.491  0.00  0.00    +0.000 A 
ATOM     13  N   UNL     1      49.682   8.206  12.911  0.00  0.00    +0.000 NA
BRANCH   8  15
ATOM     14  C   UNL     1      51.445   7.427  15.922  0.00  0.00    +0.000 C 
ATOM     15  O   UNL     1      51.291   7.945  14.600  0.00  0.00    +0.000 OA
ENDBRANCH   8  15
ENDBRANCH   2  11
ENDBRANCH   1   6
BRANCH   1  16
ATOM     16  C   UNL     1      43.912   2.804  11.864  0.00  0.00    +0.000 C 
BRANCH  16  17
ATOM     17  N   UNL     1      43.630   3.277  10.518  0.00  0.00    +0.000 N 
ATOM     18  H   UNL     1      42.682   3.137  10.180  0.00  0.00    +0.000 HD
BRANCH  17  19
ATOM     19  C   UNL     1      44.627   3.190   9.544  0.00  0.00    +0.000 A 
ATOM     20  C   UNL     1      45.088   4.281   8.792  0.00  0.00    +0.000 A 
ATOM     21  C   UNL     1      46.003   4.114   7.742  0.00  0.00    +0.000 A 
ATOM     22  C   UNL     1      46.458   2.840   7.400  0.00  0.00    +0.000 A 
ATOM     23  C   UNL     1      45.994   1.751   8.133  0.00  0.00    +0.000 A 
ATOM     24  F   UNL     1      46.381   0.499   7.840  0.00  0.00    +0.000 F 
ATOM     25  C   UNL     1      45.092   1.919   9.189  0.00  0.00    +0.000 A 
BRANCH  22  26
ATOM     26  C   UNL     1      47.398   2.708   6.257  0.00  0.00    +0.000 C 
ATOM     27  N   UNL     1      48.714   2.457   6.526  0.00  0.00    +0.000 N 
ATOM     28  O   UNL     1      47.015   2.820   5.094  0.00  0.00    +0.000 OA
ATOM     29  H   UNL     1      49.068   2.336   7.467  0.00  0.00    +0.000 HD
ATOM     30  H   UNL     1      49.347   2.352   5.749  0.00  0.00    +0.000 HD
ENDBRANCH  22  26
ENDBRANCH  17  19
ENDBRANCH  16  17
ENDBRANCH   1  16
TORSDOF 7
ENDMDL
MODEL 4
REMARK VINA RESULT:    -7.419      2.703      8.098
REMARK INTER + INTRA:         -11.429
REMARK INTER:                 -10.141
REMARK INTRA:                  -1.289
REMARK UNBOUND:                -0.975
REMARK  Name = 
REMARK  8 active torsions:
REMARK  status: ('A' for Active; 'I' for Inactive)
REMARK    1  A    between atoms: C_1  and  O_2
REMARK    2  A    between atoms: O_2  and  C_3
REMARK    3  A    between atoms: C_6  and  C_7
REMARK    4  A    between atoms: C_11  and  C_12
REMARK    5  A    between atoms: C_12  and  C_13
REMARK    6  A    between atoms: C_13  and  N_14
REMARK    7  A    between atoms: N_14  and  C_15
REMARK    8  A    between atoms: C_18  and  C_19
REMARK                            x       y       z     vdW  Elec       q    Type
REMARK                         _______ _______ _______ _____ _____    ______ ____
ROOT
ATOM      1  C   UNL     1      44.931   8.008  11.806  0.00  0.00    +0.000 C 
ENDROOT
BRANCH   1   6
ATOM      2  C   UNL     1      44.543   4.503  10.250  0.00  0.00    +0.000 A 
ATOM      3  C   UNL     1      43.452   4.027  10.988  0.00  0.00    +0.000 A 
ATOM      4  C   UNL     1      42.827   4.827  11.946  0.00  0.00    +0.000 A 
ATOM      5  C   UNL     1      43.297   6.116  12.200  0.00  0.00    +0.000 A 
ATOM      6  C   UNL     1      44.385   6.628  11.484  0.00  0.00    +0.000 A 
ATOM      7  C   UNL     1      44.972   5.812  10.502  0.00  0.00    +0.000 A 
BRANCH   2  11
ATOM      8  C   UNL     1      46.469   2.174   7.381  0.00  0.00    +0.000 A 
ATOM      9  C   UNL     1      46.325   3.541   7.215  0.00  0.00    +0.000 A 
ATOM     10  N   UNL     1      45.707   4.323   8.135  0.00  0.00    +0.000 NA
ATOM     11  C   UNL     1      45.233   3.686   9.246  0.00  0.00    +0.000 A 
ATOM     12  C   UNL     1      45.394   2.314   9.389  0.00  0.00    +0.000 A 
ATOM     13  N   UNL     1      46.012   1.536   8.483  0.00  0.00    +0.000 NA
BRANCH   8  15
ATOM     14  C   UNL     1      47.966   2.224   5.612  0.00  0.00    +0.000 C 
ATOM     15  O   UNL     1      47.063   1.432   6.386  0.00  0.00    +0.000 OA
ENDBRANCH   8  15
ENDBRANCH   2  11
ENDBRANCH   1   6
BRANCH   1  16
ATOM     16  C   UNL     1      45.875   8.027  13.016  0.00  0.00    +0.000 C 
BRANCH  16  17
ATOM     17  N   UNL     1      47.098   7.269  12.805  0.00  0.00    +0.000 N 
ATOM     18  H   UNL     1      47.389   7.141  11.840  0.00  0.00    +0.000 HD
BRANCH  17  19
ATOM     19  C   UNL     1      47.394   6.205  13.661  0.00  0.00    +0.000 A 
ATOM     20  C   UNL     1      46.825   4.928  13.552  0.00  0.00    +0.000 A 
ATOM     21  C   UNL     1      47.064   3.933  14.512  0.00  0.00    +0.000 A 
ATOM     22  C   UNL     1      47.863   4.206  15.624  0.00  0.00    +0.000 A 
ATOM     23  C   UNL     1      48.419   5.476  15.746  0.00  0.00    +0.000 A 
ATOM     24  F   UNL     1      49.180   5.804  16.802  0.00  0.00    +0.000 F 
ATOM     25  C   UNL     1      48.191   6.464  14.781  0.00  0.00    +0.000 A 
BRANCH  22  26
ATOM     26  C   UNL     1      48.059   3.134  16.633  0.00  0.00    +0.000 C 
ATOM     27  N   UNL     1      47.381   3.225  17.816  0.00  0.00    +0.000 N 
ATOM     28  O   UNL     1      48.808   2.182  16.422  0.00  0.00    +0.000 OA
ATOM     29  H   UNL     1      46.738   3.979  18.023  0.00  0.00    +0.000 HD
ATOM     30  H   UNL     1      47.503   2.488  18.493  0.00  0.00    +0.000 HD
ENDBRANCH  22  26
ENDBRANCH  17  19
ENDBRANCH  16  17
ENDBRANCH   1  16
TORSDOF 7
ENDMDL
MODEL 5
REMARK VINA RESULT:    -7.045      3.331      4.509
REMARK INTER + INTRA:         -10.902
REMARK INTER:                  -9.641
REMARK INTRA:                  -1.261
REMARK UNBOUND:                -0.975
REMARK  Name = 
REMARK  8 active torsions:
REMARK  status: ('A' for Active; 'I' for Inactive)
REMARK    1  A    between atoms: C_1  and  O_2
REMARK    2  A    between atoms: O_2  and  C_3
REMARK    3  A    between atoms: C_6  and  C_7
REMARK    4  A    between atoms: C_11  and  C_12
REMARK    5  A    between atoms: C_12  and  C_13
REMARK    6  A    between atoms: C_13  and  N_14
REMARK    7  A    between atoms: N_14  and  C_15
REMARK    8  A    between atoms: C_18  and  C_19
REMARK                            x       y       z     vdW  Elec       q    Type
REMARK                         _______ _______ _______ _____ _____    ______ ____
ROOT
ATOM      1  C   UNL     1      46.457  10.145  11.874  0.00  0.00    +0.000 C 
ENDROOT
BRANCH   1   6
ATOM      2  C   UNL     1      48.293   7.168  13.493  0.00  0.00    +0.000 A 
ATOM      3  C   UNL     1      49.544   7.286  12.873  0.00  0.00    +0.000 A 
ATOM      4  C   UNL     1      49.808   8.323  11.977  0.00  0.00    +0.000 A 
ATOM      5  C   UNL     1      48.816   9.253  11.665  0.00  0.00    +0.000 A 
ATOM      6  C   UNL     1      47.552   9.168  12.262  0.00  0.00    +0.000 A 
ATOM      7  C   UNL     1      47.327   8.135  13.186  0.00  0.00    +0.000 A 
BRANCH   2  11
ATOM      8  C   UNL     1      47.415   4.065  16.131  0.00  0.00    +0.000 A 
ATOM      9  C   UNL     1      48.399   4.996  16.422  0.00  0.00    +0.000 A 
ATOM     10  N   UNL     1      48.701   6.018  15.582  0.00  0.00    +0.000 NA
ATOM     11  C   UNL     1      47.975   6.084  14.428  0.00  0.00    +0.000 A 
ATOM     12  C   UNL     1      46.992   5.140  14.163  0.00  0.00    +0.000 A 
ATOM     13  N   UNL     1      46.684   4.129  14.995  0.00  0.00    +0.000 NA
BRANCH   8  15
ATOM     14  C   UNL     1      48.011   3.136  18.170  0.00  0.00    +0.000 C 
ATOM     15  O   UNL     1      47.192   3.025  17.003  0.00  0.00    +0.000 OA
ENDBRANCH   8  15
ENDBRANCH   2  11
ENDBRANCH   1   6
BRANCH   1  16
ATOM     16  C   UNL     1      45.041   9.580  12.049  0.00  0.00    +0.000 C 
BRANCH  16  17
ATOM     17  N   UNL     1      44.622   8.726  10.949  0.00  0.00    +0.000 N 
ATOM     18  H   UNL     1      43.946   9.123  10.302  0.00  0.00    +0.000 HD
BRANCH  17  19
ATOM     19  C   UNL     1      44.502   7.351  11.163  0.00  0.00    +0.000 A 
ATOM     20  C   UNL     1      45.542   6.432  10.964  0.00  0.00    +0.000 A 
ATOM     21  C   UNL     1      45.332   5.049  11.075  0.00  0.00    +0.000 A 
ATOM     22  C   UNL     1      44.060   4.552  11.363  0.00  0.00    +0.000 A 
ATOM     23  C   UNL     1      43.020   5.458  11.548  0.00  0.00    +0.000 A 
ATOM     24  F   UNL     1      41.771   5.039  11.809  0.00  0.00    +0.000 F 
ATOM     25  C   UNL     1      43.233   6.837  11.450  0.00  0.00    +0.000 A 
BRANCH  22  26
ATOM     26  C   UNL     1      43.877   3.079  11.435  0.00  0.00    +0.000 C 
ATOM     27  N   UNL     1      44.134   2.338  10.316  0.00  0.00    +0.000 N 
ATOM     28  O   UNL     1      43.504   2.528  12.468  0.00  0.00    +0.000 OA
ATOM     29  H   UNL     1      44.463   2.749   9.450  0.00  0.00    +0.000 HD
ATOM     30  H   UNL     1      44.025   1.339  10.371  0.00  0.00    +0.000 HD
ENDBRANCH  22  26
ENDBRANCH  17  19
ENDBRANCH  16  17
ENDBRANCH   1  16
TORSDOF 7
ENDMDL
MODEL 6
REMARK VINA RESULT:    -6.980      4.093      8.089
REMARK INTER + INTRA:         -10.811
REMARK INTER:                  -9.430
REMARK INTRA:                  -1.381
REMARK UNBOUND:                -0.975
REMARK  Name = 
REMARK  8 active torsions:
REMARK  status: ('A' for Active; 'I' for Inactive)
REMARK    1  A    between atoms: C_1  and  O_2
REMARK    2  A    between atoms: O_2  and  C_3
REMARK    3  A    between atoms: C_6  and  C_7
REMARK    4  A    between atoms: C_11  and  C_12
REMARK    5  A    between atoms: C_12  and  C_13
REMARK    6  A    between atoms: C_13  and  N_14
REMARK    7  A    between atoms: N_14  and  C_15
REMARK    8  A    between atoms: C_18  and  C_19
REMARK                            x       y       z     vdW  Elec       q    Type
REMARK                         _______ _______ _______ _____ _____    ______ ____
ROOT
ATOM      1  C   UNL     1      49.632   8.646  16.200  0.00  0.00    +0.000 C 
ENDROOT
BRANCH   1   6
ATOM      2  C   UNL     1      47.902   6.686  13.368  0.00  0.00    +0.000 A 
ATOM      3  C   UNL     1      48.609   7.178  12.262  0.00  0.00    +0.000 A 
ATOM      4  C   UNL     1      49.646   8.098  12.423  0.00  0.00    +0.000 A 
ATOM      5  C   UNL     1      49.985   8.561  13.695  0.00  0.00    +0.000 A 
ATOM      6  C   UNL     1      49.302   8.095  14.824  0.00  0.00    +0.000 A 
ATOM      7  C   UNL     1      48.286   7.143  14.635  0.00  0.00    +0.000 A 
BRANCH   2  11
ATOM      8  C   UNL     1      44.757   3.974  13.032  0.00  0.00    +0.000 A 
ATOM      9  C   UNL     1      44.561   5.329  12.820  0.00  0.00    +0.000 A 
ATOM     10  N   UNL     1      45.568   6.232  12.919  0.00  0.00    +0.000 NA
ATOM     11  C   UNL     1      46.797   5.731  13.236  0.00  0.00    +0.000 A 
ATOM     12  C   UNL     1      46.967   4.368  13.439  0.00  0.00    +0.000 A 
ATOM     13  N   UNL     1      45.973   3.468  13.336  0.00  0.00    +0.000 NA
BRANCH   8  15
ATOM     14  C   UNL     1      43.328   2.829  11.610  0.00  0.00    +0.000 C 
ATOM     15  O   UNL     1      43.682   3.118  12.964  0.00  0.00    +0.000 OA
ENDBRANCH   8  15
ENDBRANCH   2  11
ENDBRANCH   1   6
BRANCH   1  16
ATOM     16  C   UNL     1      48.570   8.326  17.260  0.00  0.00    +0.000 C 
BRANCH  16  17
ATOM     17  N   UNL     1      49.071   7.500  18.347  0.00  0.00    +0.000 N 
ATOM     18  H   UNL     1      49.684   7.957  19.016  0.00  0.00    +0.000 HD
BRANCH  17  19
ATOM     19  C   UNL     1      49.359   6.155  18.102  0.00  0.00    +0.000 A 
ATOM     20  C   UNL     1      50.649   5.659  17.862  0.00  0.00    +0.000 A 
ATOM     21  C   UNL     1      50.865   4.321  17.500  0.00  0.00    +0.000 A 
ATOM     22  C   UNL     1      49.785   3.451  17.343  0.00  0.00    +0.000 A 
ATOM     23  C   UNL     1      48.501   3.940  17.565  0.00  0.00    +0.000 A 
ATOM     24  F   UNL     1      47.421   3.157  17.412  0.00  0.00    +0.000 F 
ATOM     25  C   UNL     1      48.287   5.271  17.939  0.00  0.00    +0.000 A 
BRANCH  22  26
ATOM     26  C   UNL     1      50.059   2.052  16.923  0.00  0.00    +0.000 C 
ATOM     27  N   UNL     1      50.904   1.300  17.689  0.00  0.00    +0.000 N 
ATOM     28  O   UNL     1      49.546   1.571  15.915  0.00  0.00    +0.000 OA
ATOM     29  H   UNL     1      51.332   1.649  18.538  0.00  0.00    +0.000 HD
ATOM     30  H   UNL     1      51.076   0.347  17.412  0.00  0.00    +0.000 HD
ENDBRANCH  22  26
ENDBRANCH  17  19
ENDBRANCH  16  17
ENDBRANCH   1  16
TORSDOF 7
ENDMDL
MODEL 7
REMARK VINA RESULT:    -6.667      2.776      9.303
REMARK INTER + INTRA:         -10.370
REMARK INTER:                  -9.656
REMARK INTRA:                  -0.715
REMARK UNBOUND:                -0.975
REMARK  Name = 
REMARK  8 active torsions:
REMARK  status: ('A' for Active; 'I' for Inactive)
REMARK    1  A    between atoms: C_1  and  O_2
REMARK    2  A    between atoms: O_2  and  C_3
REMARK    3  A    between atoms: C_6  and  C_7
REMARK    4  A    between atoms: C_11  and  C_12
REMARK    5  A    between atoms: C_12  and  C_13
REMARK    6  A    between atoms: C_13  and  N_14
REMARK    7  A    between atoms: N_14  and  C_15
REMARK    8  A    between atoms: C_18  and  C_19
REMARK                            x       y       z     vdW  Elec       q    Type
REMARK                         _______ _______ _______ _____ _____    ______ ____
ROOT
ATOM      1  C   UNL     1      45.927   6.215  13.599  0.00  0.00    +0.000 C 
ENDROOT
BRANCH   1   6
ATOM      2  C   UNL     1      44.667   4.278  10.515  0.00  0.00    +0.000 A 
ATOM      3  C   UNL     1      43.287   4.309  10.753  0.00  0.00    +0.000 A 
ATOM      4  C   UNL     1      42.764   4.968  11.867  0.00  0.00    +0.000 A 
ATOM      5  C   UNL     1      43.616   5.595  12.777  0.00  0.00    +0.000 A 
ATOM      6  C   UNL     1      45.000   5.585  12.575  0.00  0.00    +0.000 A 
ATOM      7  C   UNL     1      45.495   4.943  11.427  0.00  0.00    +0.000 A 
BRANCH   2  11
ATOM      8  C   UNL     1      46.368   2.308   7.261  0.00  0.00    +0.000 A 
ATOM      9  C   UNL     1      45.926   1.607   8.371  0.00  0.00    +0.000 A 
ATOM     10  N   UNL     1      45.364   2.224   9.441  0.00  0.00    +0.000 NA
ATOM     11  C   UNL     1      45.254   3.582   9.364  0.00  0.00    +0.000 A 
ATOM     12  C   UNL     1      45.702   4.259   8.238  0.00  0.00    +0.000 A 
ATOM     13  N   UNL     1      46.253   3.652   7.172  0.00  0.00    +0.000 NA
BRANCH   8  15
ATOM     14  C   UNL     1      47.698   2.510   5.373  0.00  0.00    +0.000 C 
ATOM     15  O   UNL     1      46.973   1.626   6.230  0.00  0.00    +0.000 OA
ENDBRANCH   8  15
ENDBRANCH   2  11
ENDBRANCH   1   6
BRANCH   1  16
ATOM     16  C   UNL     1      47.183   5.381  13.884  0.00  0.00    +0.000 C 
BRANCH  16  17
ATOM     17  N   UNL     1      46.950   4.286  14.812  0.00  0.00    +0.000 N 
ATOM     18  H   UNL     1      46.019   3.878  14.804  0.00  0.00    +0.000 HD
BRANCH  17  19
ATOM     19  C   UNL     1      47.578   4.306  16.060  0.00  0.00    +0.000 A 
ATOM     20  C   UNL     1      47.517   3.255  16.987  0.00  0.00    +0.000 A 
ATOM     21  C   UNL     1      48.063   3.379  18.273  0.00  0.00    +0.000 A 
ATOM     22  C   UNL     1      48.662   4.574  18.672  0.00  0.00    +0.000 A 
ATOM     23  C   UNL     1      48.713   5.626  17.762  0.00  0.00    +0.000 A 
ATOM     24  F   UNL     1      49.260   6.807  18.094  0.00  0.00    +0.000 F 
ATOM     25  C   UNL     1      48.180   5.499  16.475  0.00  0.00    +0.000 A 
BRANCH  22  26
ATOM     26  C   UNL     1      49.194   4.671  20.056  0.00  0.00    +0.000 C 
ATOM     27  N   UNL     1      50.495   4.317  20.276  0.00  0.00    +0.000 N 
ATOM     28  O   UNL     1      48.492   5.058  20.988  0.00  0.00    +0.000 OA
ATOM     29  H   UNL     1      51.114   4.014  19.534  0.00  0.00    +0.000 HD
ATOM     30  H   UNL     1      50.858   4.399  21.212  0.00  0.00    +0.000 HD
ENDBRANCH  22  26
ENDBRANCH  17  19
ENDBRANCH  16  17
ENDBRANCH   1  16
TORSDOF 7
ENDMDL
MODEL 8
REMARK VINA RESULT:    -6.582      5.666      8.091
REMARK INTER + INTRA:         -10.250
REMARK INTER:                  -9.283
REMARK INTRA:                  -0.967
REMARK UNBOUND:                -0.975
REMARK  Name = 
REMARK  8 active torsions:
REMARK  status: ('A' for Active; 'I' for Inactive)
REMARK    1  A    between atoms: C_1  and  O_2
REMARK    2  A    between atoms: O_2  and  C_3
REMARK    3  A    between atoms: C_6  and  C_7
REMARK    4  A    between atoms: C_11  and  C_12
REMARK    5  A    between atoms: C_12  and  C_13
REMARK    6  A    between atoms: C_13  and  N_14
REMARK    7  A    between atoms: N_14  and  C_15
REMARK    8  A    between atoms: C_18  and  C_19
REMARK                            x       y       z     vdW  Elec       q    Type
REMARK                         _______ _______ _______ _____ _____    ______ ____
ROOT
ATOM      1  C   UNL     1      47.335   9.564  12.822  0.00  0.00    +0.000 C 
ENDROOT
BRANCH   1   6
ATOM      2  C   UNL     1      44.199  11.143  11.234  0.00  0.00    +0.000 A 
ATOM      3  C   UNL     1      44.801  12.053  10.354  0.00  0.00    +0.000 A 
ATOM      4  C   UNL     1      46.190  12.137  10.247  0.00  0.00    +0.000 A 
ATOM      5  C   UNL     1      47.007  11.324  11.033  0.00  0.00    +0.000 A 
ATOM      6  C   UNL     1      46.443  10.403  11.924  0.00  0.00    +0.000 A 
ATOM      7  C   UNL     1      45.043  10.317  11.986  0.00  0.00    +0.000 A 
BRANCH   2  11
ATOM      8  C   UNL     1      40.070  10.816  11.690  0.00  0.00    +0.000 A 
ATOM      9  C   UNL     1      40.787  11.803  12.346  0.00  0.00    +0.000 A 
ATOM     10  N   UNL     1      42.131  11.934  12.212  0.00  0.00    +0.000 NA
ATOM     11  C   UNL     1      42.744  11.037  11.385  0.00  0.00    +0.000 A 
ATOM     12  C   UNL     1      42.000  10.060  10.736  0.00  0.00    +0.000 A 
ATOM     13  N   UNL     1      40.667   9.930  10.861  0.00  0.00    +0.000 NA
BRANCH   8  15
ATOM     14  C   UNL     1      38.260  11.681  12.852  0.00  0.00    +0.000 C 
ATOM     15  O   UNL     1      38.716  10.708  11.910  0.00  0.00    +0.000 OA
ENDBRANCH   8  15
ENDBRANCH   2  11
ENDBRANCH   1   6
BRANCH   1  16
ATOM     16  C   UNL     1      47.345   8.074  12.456  0.00  0.00    +0.000 C 
BRANCH  16  17
ATOM     17  N   UNL     1      46.639   7.240  13.416  0.00  0.00    +0.000 N 
ATOM     18  H   UNL     1      47.074   7.133  14.327  0.00  0.00    +0.000 HD
BRANCH  17  19
ATOM     19  C   UNL     1      45.937   6.122  12.958  0.00  0.00    +0.000 A 
ATOM     20  C   UNL     1      46.340   4.797  13.181  0.00  0.00    +0.000 A 
ATOM     21  C   UNL     1      45.665   3.716  12.594  0.00  0.00    +0.000 A 
ATOM     22  C   UNL     1      44.581   3.941  11.743  0.00  0.00    +0.000 A 
ATOM     23  C   UNL     1      44.185   5.254  11.507  0.00  0.00    +0.000 A 
ATOM     24  F   UNL     1      43.161   5.535  10.684  0.00  0.00    +0.000 F 
ATOM     25  C   UNL     1      44.850   6.331  12.103  0.00  0.00    +0.000 A 
BRANCH  22  26
ATOM     26  C   UNL     1      43.920   2.768  11.116  0.00  0.00    +0.000 C 
ATOM     27  N   UNL     1      44.473   2.242   9.983  0.00  0.00    +0.000 N 
ATOM     28  O   UNL     1      42.901   2.273  11.594  0.00  0.00    +0.000 OA
ATOM     29  H   UNL     1      45.322   2.605   9.568  0.00  0.00    +0.000 HD
ATOM     30  H   UNL     1      44.032   1.436   9.568  0.00  0.00    +0.000 HD
ENDBRANCH  22  26
ENDBRANCH  17  19
ENDBRANCH  16  17
ENDBRANCH   1  16
TORSDOF 7
ENDMDL
MODEL 9
REMARK VINA RESULT:    -6.569      2.637      8.947
REMARK INTER + INTRA:         -10.232
REMARK INTER:                  -9.645
REMARK INTRA:                  -0.587
REMARK UNBOUND:                -0.975
REMARK  Name = 
REMARK  8 active torsions:
REMARK  status: ('A' for Active; 'I' for Inactive)
REMARK    1  A    between atoms: C_1  and  O_2
REMARK    2  A    between atoms: O_2  and  C_3
REMARK    3  A    between atoms: C_6  and  C_7
REMARK    4  A    between atoms: C_11  and  C_12
REMARK    5  A    between atoms: C_12  and  C_13
REMARK    6  A    between atoms: C_13  and  N_14
REMARK    7  A    between atoms: N_14  and  C_15
REMARK    8  A    between atoms: C_18  and  C_19
REMARK                            x       y       z     vdW  Elec       q    Type
REMARK                         _______ _______ _______ _____ _____    ______ ____
ROOT
ATOM      1  C   UNL     1      46.077   5.171  14.190  0.00  0.00    +0.000 C 
ENDROOT
BRANCH   1   6
ATOM      2  C   UNL     1      44.702   4.319  10.691  0.00  0.00    +0.000 A 
ATOM      3  C   UNL     1      43.344   4.607  10.885  0.00  0.00    +0.000 A 
ATOM      4  C   UNL     1      42.880   5.097  12.107  0.00  0.00    +0.000 A 
ATOM      5  C   UNL     1      43.765   5.292  13.168  0.00  0.00    +0.000 A 
ATOM      6  C   UNL     1      45.128   5.015  13.014  0.00  0.00    +0.000 A 
ATOM      7  C   UNL     1      45.571   4.556  11.763  0.00  0.00    +0.000 A 
BRANCH   2  11
ATOM      8  C   UNL     1      46.218   2.812   7.115  0.00  0.00    +0.000 A 
ATOM      9  C   UNL     1      45.713   1.969   8.091  0.00  0.00    +0.000 A 
ATOM     10  N   UNL     1      45.210   2.434   9.262  0.00  0.00    +0.000 NA
ATOM     11  C   UNL     1      45.223   3.789   9.427  0.00  0.00    +0.000 A 
ATOM     12  C   UNL     1      45.731   4.612   8.431  0.00  0.00    +0.000 A 
ATOM     13  N   UNL     1      46.225   4.156   7.266  0.00  0.00    +0.000 NA
BRANCH   8  15
ATOM     14  C   UNL     1      48.179   2.153   6.070  0.00  0.00    +0.000 C 
ATOM     15  O   UNL     1      46.759   2.272   5.971  0.00  0.00    +0.000 OA
ENDBRANCH   8  15
ENDBRANCH   2  11
ENDBRANCH   1   6
BRANCH   1  16
ATOM     16  C   UNL     1      46.922   3.920  14.464  0.00  0.00    +0.000 C 
BRANCH  16  17
ATOM     17  N   UNL     1      46.990   3.568  15.874  0.00  0.00    +0.000 N 
ATOM     18  H   UNL     1      46.160   3.759  16.427  0.00  0.00    +0.000 HD
BRANCH  17  19
ATOM     19  C   UNL     1      48.203   3.711  16.552  0.00  0.00    +0.000 A 
ATOM     20  C   UNL     1      48.788   4.948  16.861  0.00  0.00    +0.000 A 
ATOM     21  C   UNL     1      50.066   5.033  17.434  0.00  0.00    +0.000 A 
ATOM     22  C   UNL     1      50.802   3.875  17.687  0.00  0.00    +0.000 A 
ATOM     23  C   UNL     1      50.233   2.645  17.370  0.00  0.00    +0.000 A 
ATOM     24  F   UNL     1      50.899   1.497  17.574  0.00  0.00    +0.000 F 
ATOM     25  C   UNL     1      48.953   2.560  16.811  0.00  0.00    +0.000 A 
BRANCH  22  26
ATOM     26  C   UNL     1      52.165   4.015  18.261  0.00  0.00    +0.000 C 
ATOM     27  N   UNL     1      53.118   4.654  17.519  0.00  0.00    +0.000 N 
ATOM     28  O   UNL     1      52.443   3.573  19.374  0.00  0.00    +0.000 OA
ATOM     29  H   UNL     1      52.928   5.052  16.608  0.00  0.00    +0.000 HD
ATOM     30  H   UNL     1      54.037   4.763  17.917  0.00  0.00    +0.000 HD
ENDBRANCH  22  26
ENDBRANCH  17  19
ENDBRANCH  16  17
ENDBRANCH   1  16
TORSDOF 7
ENDMDL
