MODEL 1
REMARK VINA RESULT:    -7.032      0.000      0.000
REMARK INTER + INTRA:          -9.665
REMARK INTER:                  -8.676
REMARK INTRA:                  -0.989
REMARK UNBOUND:                -0.989
REMARK  Name = 
REMARK  6 active torsions:
REMARK  status: ('A' for Active; 'I' for Inactive)
REMARK    1  A    between atoms: C_1  and  C_2
REMARK    2  A    between atoms: C_5  and  O_6
REMARK    3  A    between atoms: O_6  and  C_7
REMARK    4  A    between atoms: C_7  and  C_8
REMARK    5  A    between atoms: C_12  and  C_13
REMARK    6  A    between atoms: C_22  and  C_23
REMARK                            x       y       z     vdW  Elec       q    Type
REMARK                         _______ _______ _______ _____ _____    ______ ____
ROOT
ATOM      1  C   UNL     1      43.752   5.359  11.027  0.00  0.00    +0.000 C 
ATOM      2  C   UNL     1      42.456   5.739  11.749  0.00  0.00    +0.000 C 
ATOM      3  C   UNL     1      43.173   6.760  10.938  0.00  0.00    +0.000 C 
ENDROOT
BRANCH   1   4
ATOM      4  C   UNL     1      44.959   5.074  11.905  0.00  0.00    +0.000 A 
ATOM      5  C   UNL     1      45.119   3.849  12.563  0.00  0.00    +0.000 A 
ATOM      6  C   UNL     1      46.252   3.590  13.334  0.00  0.00    +0.000 A 
ATOM      7  C   UNL     1      47.261   4.550  13.444  0.00  0.00    +0.000 A 
ATOM      8  C   UNL     1      47.154   5.792  12.802  0.00  0.00    +0.000 A 
ATOM      9  C   UNL     1      45.976   6.036  12.075  0.00  0.00    +0.000 A 
BRANCH   8  10
ATOM     10  C   UNL     1      48.248   6.785  12.820  0.00  0.00    +0.000 A 
ATOM     11  C   UNL     1      48.632   7.511  11.684  0.00  0.00    +0.000 A 
ATOM     12  C   UNL     1      49.717   8.387  11.730  0.00  0.00    +0.000 A 
ATOM     13  C   UNL     1      50.393   8.531  12.925  0.00  0.00    +0.000 A 
ATOM     14  N   UNL     1      50.066   7.867  14.051  0.00  0.00    +0.000 NA
ATOM     15  C   UNL     1      49.014   7.014  13.966  0.00  0.00    +0.000 A 
ENDBRANCH   8  10
ENDBRANCH   1   4
BRANCH   1  16
ATOM     16  O   UNL     1      43.546   4.447   9.917  0.00  0.00    +0.000 OA
BRANCH  16  21
ATOM     17  C   UNL     1      47.686   2.719   6.551  0.00  0.00    +0.000 C 
ATOM     18  C   UNL     1      46.676   3.150   7.564  0.00  0.00    +0.000 A 
ATOM     19  C   UNL     1      46.429   4.491   7.812  0.00  0.00    +0.000 A 
ATOM     20  N   UNL     1      45.456   4.941   8.631  0.00  0.00    +0.000 NA
ATOM     21  C   UNL     1      44.682   4.018   9.246  0.00  0.00    +0.000 A 
ATOM     22  C   UNL     1      44.894   2.645   9.133  0.00  0.00    +0.000 A 
ATOM     23  C   UNL     1      44.081   1.626   9.873  0.00  0.00    +0.000 C 
ATOM     24  C   UNL     1      45.905   2.217   8.262  0.00  0.00    +0.000 A 
ENDBRANCH  16  21
ENDBRANCH   1  16
TORSDOF 4
ENDMDL
MODEL 2
REMARK VINA RESULT:    -6.944      2.284      6.761
REMARK INTER + INTRA:          -9.557
REMARK INTER:                  -8.661
REMARK INTRA:                  -0.895
REMARK UNBOUND:                -0.989
REMARK  Name = 
REMARK  6 active torsions:
REMARK  status: ('A' for Active; 'I' for Inactive)
REMARK    1  A    between atoms: C_1  and  C_2
REMARK    2  A    between atoms: C_5  and  O_6
REMARK    3  A    between atoms: O_6  and  C_7
REMARK    4  A    between atoms: C_7  and  C_8
REMARK    5  A    between atoms: C_12  and  C_13
REMARK    6  A    between atoms: C_22  and  C_23
REMARK                            x       y       z     vdW  Elec       q    Type
REMARK                         _______ _______ _______ _____ _____    ______ ____
ROOT
ATOM      1  C   UNL     1      46.311   7.357  12.292  0.00  0.00    +0.000 C 
ATOM      2  C   UNL     1      46.255   8.818  11.838  0.00  0.00    +0.000 C 
ATOM      3  C   UNL     1      45.781   8.453  13.199  0.00  0.00    +0.000 C 
ENDROOT
BRANCH   1   4
ATOM      4  C   UNL     1      45.359   6.394  11.602  0.00  0.00    +0.000 A 
ATOM      5  C   UNL     1      43.973   6.482  11.771  0.00  0.00    +0.000 A 
ATOM      6  C   UNL     1      43.111   5.615  11.101  0.00  0.00    +0.000 A 
ATOM      7  C   UNL     1      43.622   4.652  10.228  0.00  0.00    +0.000 A 
ATOM      8  C   UNL     1      45.003   4.523  10.019  0.00  0.00    +0.000 A 
ATOM      9  C   UNL     1      45.843   5.381  10.749  0.00  0.00    +0.000 A 
BRANCH   8  10
ATOM     10  C   UNL     1      45.565   3.581   9.029  0.00  0.00    +0.000 A 
ATOM     11  C   UNL     1      46.131   4.003   7.817  0.00  0.00    +0.000 A 
ATOM     12  C   UNL     1      46.586   3.074   6.880  0.00  0.00    +0.000 A 
ATOM     13  C   UNL     1      46.477   1.731   7.183  0.00  0.00    +0.000 A 
ATOM     14  N   UNL     1      45.952   1.267   8.333  0.00  0.00    +0.000 NA
ATOM     15  C   UNL     1      45.508   2.198   9.214  0.00  0.00    +0.000 A 
ENDBRANCH   8  10
ENDBRANCH   1   4
BRANCH   1  16
ATOM     16  O   UNL     1      47.663   6.871  12.501  0.00  0.00    +0.000 OA
BRANCH  16  21
ATOM     17  C   UNL     1      48.068   4.769  17.685  0.00  0.00    +0.000 C 
ATOM     18  C   UNL     1      48.096   5.266  16.276  0.00  0.00    +0.000 A 
ATOM     19  C   UNL     1      47.359   4.648  15.278  0.00  0.00    +0.000 A 
ATOM     20  N   UNL     1      47.257   5.115  14.017  0.00  0.00    +0.000 NA
ATOM     21  C   UNL     1      47.921   6.254  13.717  0.00  0.00    +0.000 A 
ATOM     22  C   UNL     1      48.755   6.912  14.618  0.00  0.00    +0.000 A 
ATOM     23  C   UNL     1      49.548   8.133  14.261  0.00  0.00    +0.000 C 
ATOM     24  C   UNL     1      48.824   6.405  15.923  0.00  0.00    +0.000 A 
ENDBRANCH  16  21
ENDBRANCH   1  16
TORSDOF 4
ENDMDL
MODEL 3
REMARK VINA RESULT:    -6.722      2.281      6.253
REMARK INTER + INTRA:          -9.283
REMARK INTER:                  -8.390
REMARK INTRA:                  -0.893
REMARK UNBOUND:                -0.989
REMARK  Name = 
REMARK  6 active torsions:
REMARK  status: ('A' for Active; 'I' for Inactive)
REMARK    1  A    between atoms: C_1  and  C_2
REMARK    2  A    between atoms: C_5  and  O_6
REMARK    3  A    between atoms: O_6  and  C_7
REMARK    4  A    between atoms: C_7  and  C_8
REMARK    5  A    between atoms: C_12  and  C_13
REMARK    6  A    between atoms: C_22  and  C_23
REMARK                            x       y       z     vdW  Elec       q    Type
REMARK                         _______ _______ _______ _____ _____    ______ ____
ROOT
ATOM      1  C   UNL     1      45.706   5.155  13.075  0.00  0.00    +0.000 C 
ATOM      2  C   UNL     1      46.480   4.608  14.277  0.00  0.00    +0.000 C 
ATOM      3  C   UNL     1      47.214   5.296  13.182  0.00  0.00    +0.000 C 
ENDROOT
BRANCH   1   4
ATOM      4  C   UNL     1      45.089   4.128  12.140  0.00  0.00    +0.000 A 
ATOM      5  C   UNL     1      43.896   3.468  12.456  0.00  0.00    +0.000 A 
ATOM      6  C   UNL     1      43.323   2.556  11.571  0.00  0.00    +0.000 A 
ATOM      7  C   UNL     1      43.925   2.303  10.336  0.00  0.00    +0.000 A 
ATOM      8  C   UNL     1      45.119   2.941   9.967  0.00  0.00    +0.000 A 
ATOM      9  C   UNL     1      45.693   3.815  10.905  0.00  0.00    +0.000 A 
BRANCH   8  10
ATOM     10  C   UNL     1      45.724   2.767   8.630  0.00  0.00    +0.000 A 
ATOM     11  C   UNL     1      46.264   1.548   8.195  0.00  0.00    +0.000 A 
ATOM     12  C   UNL     1      46.890   1.449   6.952  0.00  0.00    +0.000 A 
ATOM     13  C   UNL     1      46.950   2.576   6.156  0.00  0.00    +0.000 A 
ATOM     14  N   UNL     1      46.442   3.770   6.516  0.00  0.00    +0.000 NA
ATOM     15  C   UNL     1      45.853   3.833   7.737  0.00  0.00    +0.000 A 
ENDBRANCH   8  10
ENDBRANCH   1   4
BRANCH   1  16
ATOM     16  O   UNL     1      44.873   6.299  13.400  0.00  0.00    +0.000 OA
BRANCH  16  21
ATOM     17  C   UNL     1      45.351  11.361  11.034  0.00  0.00    +0.000 C 
ATOM     18  C   UNL     1      45.298   9.957  11.543  0.00  0.00    +0.000 A 
ATOM     19  C   UNL     1      46.153   9.519  12.541  0.00  0.00    +0.000 A 
ATOM     20  N   UNL     1      46.079   8.302  13.118  0.00  0.00    +0.000 NA
ATOM     21  C   UNL     1      45.110   7.464  12.684  0.00  0.00    +0.000 A 
ATOM     22  C   UNL     1      44.249   7.770  11.632  0.00  0.00    +0.000 A 
ATOM     23  C   UNL     1      43.225   6.811  11.105  0.00  0.00    +0.000 C 
ATOM     24  C   UNL     1      44.348   9.050  11.068  0.00  0.00    +0.000 A 
ENDBRANCH  16  21
ENDBRANCH   1  16
TORSDOF 4
ENDMDL
MODEL 4
REMARK VINA RESULT:    -6.505      2.830      7.346
REMARK INTER + INTRA:          -9.014
REMARK INTER:                  -8.165
REMARK INTRA:                  -0.849
REMARK UNBOUND:                -0.989
REMARK  Name = 
REMARK  6 active torsions:
REMARK  status: ('A' for Active; 'I' for Inactive)
REMARK    1  A    between atoms: C_1  and  C_2
REMARK    2  A    between atoms: C_5  and  O_6
REMARK    3  A    between atoms: O_6  and  C_7
REMARK    4  A    between atoms: C_7  and  C_8
REMARK    5  A    between atoms: C_12  and  C_13
REMARK    6  A    between atoms: C_22  and  C_23
REMARK                            x       y       z     vdW  Elec       q    Type
REMARK                         _______ _______ _______ _____ _____    ______ ____
ROOT
ATOM      1  C   UNL     1      48.516   7.354  13.430  0.00  0.00    +0.000 C 
ATOM      2  C   UNL     1      49.631   7.947  12.563  0.00  0.00    +0.000 C 
ATOM      3  C   UNL     1      49.156   8.691  13.761  0.00  0.00    +0.000 C 
ENDROOT
BRANCH   1   4
ATOM      4  C   UNL     1      47.132   7.292  12.806  0.00  0.00    +0.000 A 
ATOM      5  C   UNL     1      46.221   8.347  12.927  0.00  0.00    +0.000 A 
ATOM      6  C   UNL     1      44.969   8.290  12.317  0.00  0.00    +0.000 A 
ATOM      7  C   UNL     1      44.611   7.178  11.551  0.00  0.00    +0.000 A 
ATOM      8  C   UNL     1      45.487   6.094  11.393  0.00  0.00    +0.000 A 
ATOM      9  C   UNL     1      46.721   6.166  12.064  0.00  0.00    +0.000 A 
BRANCH   8  10
ATOM     10  C   UNL     1      45.175   4.951  10.511  0.00  0.00    +0.000 A 
ATOM     11  C   UNL     1      45.613   4.878   9.180  0.00  0.00    +0.000 A 
ATOM     12  C   UNL     1      45.235   3.813   8.362  0.00  0.00    +0.000 A 
ATOM     13  C   UNL     1      44.430   2.827   8.899  0.00  0.00    +0.000 A 
ATOM     14  N   UNL     1      43.986   2.839  10.171  0.00  0.00    +0.000 NA
ATOM     15  C   UNL     1      44.363   3.895  10.933  0.00  0.00    +0.000 A 
ENDBRANCH   8  10
ENDBRANCH   1   4
BRANCH   1  16
ATOM     16  O   UNL     1      48.930   6.179  14.174  0.00  0.00    +0.000 OA
BRANCH  16  21
ATOM     17  C   UNL     1      47.938   5.457  19.647  0.00  0.00    +0.000 C 
ATOM     18  C   UNL     1      48.062   5.708  18.179  0.00  0.00    +0.000 A 
ATOM     19  C   UNL     1      48.785   6.784  17.690  0.00  0.00    +0.000 A 
ATOM     20  N   UNL     1      49.025   6.999  16.380  0.00  0.00    +0.000 NA
ATOM     21  C   UNL     1      48.521   6.106  15.498  0.00  0.00    +0.000 A 
ATOM     22  C   UNL     1      47.712   5.035  15.873  0.00  0.00    +0.000 A 
ATOM     23  C   UNL     1      47.093   4.090  14.888  0.00  0.00    +0.000 C 
ATOM     24  C   UNL     1      47.497   4.837  17.244  0.00  0.00    +0.000 A 
ENDBRANCH  16  21
ENDBRANCH   1  16
TORSDOF 4
ENDMDL
MODEL 5
REMARK VINA RESULT:    -6.273      3.077      6.714
REMARK INTER + INTRA:          -8.728
REMARK INTER:                  -8.036
REMARK INTRA:                  -0.692
REMARK UNBOUND:                -0.989
REMARK  Name = 
REMARK  6 active torsions:
REMARK  status: ('A' for Active; 'I' for Inactive)
REMARK    1  A    between atoms: C_1  and  C_2
REMARK    2  A    between atoms: C_5  and  O_6
REMARK    3  A    between atoms: O_6  and  C_7
REMARK    4  A    between atoms: C_7  and  C_8
REMARK    5  A    between atoms: C_12  and  C_13
REMARK    6  A    between atoms: C_22  and  C_23
REMARK                            x       y       z     vdW  Elec       q    Type
REMARK                         _______ _______ _______ _____ _____    ______ ____
ROOT
ATOM      1  C   UNL     1      46.359   7.665  12.454  0.00  0.00    +0.000 C 
ATOM      2  C   UNL     1      47.549   7.256  13.326  0.00  0.00    +0.000 C 
ATOM      3  C   UNL     1      47.789   7.776  11.954  0.00  0.00    +0.000 C 
ENDROOT
BRANCH   1   4
ATOM      4  C   UNL     1      45.455   6.544  11.969  0.00  0.00    +0.000 A 
ATOM      5  C   UNL     1      44.183   6.335  12.516  0.00  0.00    +0.000 A 
ATOM      6  C   UNL     1      43.351   5.326  12.034  0.00  0.00    +0.000 A 
ATOM      7  C   UNL     1      43.769   4.516  10.976  0.00  0.00    +0.000 A 
ATOM      8  C   UNL     1      45.031   4.684  10.389  0.00  0.00    +0.000 A 
ATOM      9  C   UNL     1      45.862   5.679  10.933  0.00  0.00    +0.000 A 
BRANCH   8  10
ATOM     10  C   UNL     1      45.460   3.908   9.206  0.00  0.00    +0.000 A 
ATOM     11  C   UNL     1      45.461   2.506   9.180  0.00  0.00    +0.000 A 
ATOM     12  C   UNL     1      45.941   1.815   8.066  0.00  0.00    +0.000 A 
ATOM     13  C   UNL     1      46.402   2.546   6.989  0.00  0.00    +0.000 A 
ATOM     14  N   UNL     1      46.418   3.892   6.955  0.00  0.00    +0.000 NA
ATOM     15  C   UNL     1      45.956   4.531   8.058  0.00  0.00    +0.000 A 
ENDBRANCH   8  10
ENDBRANCH   1   4
BRANCH   1  16
ATOM     16  O   UNL     1      45.688   8.864  12.922  0.00  0.00    +0.000 OA
BRANCH  16  21
ATOM     17  C   UNL     1      44.392  12.031   8.479  0.00  0.00    +0.000 C 
ATOM     18  C   UNL     1      44.682  11.300   9.749  0.00  0.00    +0.000 A 
ATOM     19  C   UNL     1      43.870  10.266  10.188  0.00  0.00    +0.000 A 
ATOM     20  N   UNL     1      44.141   9.498  11.264  0.00  0.00    +0.000 NA
ATOM     21  C   UNL     1      45.275   9.764  11.951  0.00  0.00    +0.000 A 
ATOM     22  C   UNL     1      46.120  10.830  11.647  0.00  0.00    +0.000 A 
ATOM     23  C   UNL     1      47.336  11.168  12.455  0.00  0.00    +0.000 C 
ATOM     24  C   UNL     1      45.812  11.596  10.514  0.00  0.00    +0.000 A 
ENDBRANCH  16  21
ENDBRANCH   1  16
TORSDOF 4
ENDMDL
MODEL 6
REMARK VINA RESULT:    -5.833      2.407      7.404
REMARK INTER + INTRA:          -8.186
REMARK INTER:                  -7.235
REMARK INTRA:                  -0.950
REMARK UNBOUND:                -0.989
REMARK  Name = 
REMARK  6 active torsions:
REMARK  status: ('A' for Active; 'I' for Inactive)
REMARK    1  A    between atoms: C_1  and  C_2
REMARK    2  A    between atoms: C_5  and  O_6
REMARK    3  A    between atoms: O_6  and  C_7
REMARK    4  A    between atoms: C_7  and  C_8
REMARK    5  A    between atoms: C_12  and  C_13
REMARK    6  A    between atoms: C_22  and  C_23
REMARK                            x       y       z     vdW  Elec       q    Type
REMARK                         _______ _______ _______ _____ _____    ______ ____
ROOT
ATOM      1  C   UNL     1      48.217   8.156  12.580  0.00  0.00    +0.000 C 
ATOM      2  C   UNL     1      48.677   9.302  11.675  0.00  0.00    +0.000 C 
ATOM      3  C   UNL     1      48.312   9.583  13.089  0.00  0.00    +0.000 C 
ENDROOT
BRANCH   1   4
ATOM      4  C   UNL     1      46.867   7.536  12.259  0.00  0.00    +0.000 A 
ATOM      5  C   UNL     1      45.691   7.971  12.879  0.00  0.00    +0.000 A 
ATOM      6  C   UNL     1      44.455   7.417  12.545  0.00  0.00    +0.000 A 
ATOM      7  C   UNL     1      44.371   6.428  11.562  0.00  0.00    +0.000 A 
ATOM      8  C   UNL     1      45.519   5.959  10.906  0.00  0.00    +0.000 A 
ATOM      9  C   UNL     1      46.752   6.504  11.305  0.00  0.00    +0.000 A 
BRANCH   8  10
ATOM     10  C   UNL     1      45.449   4.985   9.796  0.00  0.00    +0.000 A 
ATOM     11  C   UNL     1      44.685   3.811   9.865  0.00  0.00    +0.000 A 
ATOM     12  C   UNL     1      44.705   2.886   8.821  0.00  0.00    +0.000 A 
ATOM     13  C   UNL     1      45.484   3.162   7.714  0.00  0.00    +0.000 A 
ATOM     14  N   UNL     1      46.231   4.276   7.589  0.00  0.00    +0.000 NA
ATOM     15  C   UNL     1      46.197   5.147   8.628  0.00  0.00    +0.000 A 
ENDBRANCH   8  10
ENDBRANCH   1   4
BRANCH   1  16
ATOM     16  O   UNL     1      49.280   7.224  12.912  0.00  0.00    +0.000 OA
BRANCH  16  21
ATOM     17  C   UNL     1      49.383   6.525  18.476  0.00  0.00    +0.000 C 
ATOM     18  C   UNL     1      49.466   6.606  16.986  0.00  0.00    +0.000 A 
ATOM     19  C   UNL     1      48.526   5.990  16.176  0.00  0.00    +0.000 A 
ATOM     20  N   UNL     1      48.484   6.120  14.834  0.00  0.00    +0.000 NA
ATOM     21  C   UNL     1      49.425   6.899  14.253  0.00  0.00    +0.000 A 
ATOM     22  C   UNL     1      50.464   7.499  14.961  0.00  0.00    +0.000 A 
ATOM     23  C   UNL     1      51.547   8.301  14.305  0.00  0.00    +0.000 C 
ATOM     24  C   UNL     1      50.465   7.352  16.355  0.00  0.00    +0.000 A 
ENDBRANCH  16  21
ENDBRANCH   1  16
TORSDOF 4
ENDMDL
MODEL 7
REMARK VINA RESULT:    -5.671      3.929      8.331
REMARK INTER + INTRA:          -7.986
REMARK INTER:                  -7.627
REMARK INTRA:                  -0.359
REMARK UNBOUND:                -0.989
REMARK  Name = 
REMARK  6 active torsions:
REMARK  status: ('A' for Active; 'I' for Inactive)
REMARK    1  A    between atoms: C_1  and  C_2
REMARK    2  A    between atoms: C_5  and  O_6
REMARK    3  A    between atoms: O_6  and  C_7
REMARK    4  A    between atoms: C_7  and  C_8
REMARK    5  A    between atoms: C_12  and  C_13
REMARK    6  A    between atoms: C_22  and  C_23
REMARK                            x       y       z     vdW  Elec       q    Type
REMARK                         _______ _______ _______ _____ _____    ______ ____
ROOT
ATOM      1  C   UNL     1      49.253   6.614  15.414  0.00  0.00    +0.000 C 
ATOM      2  C   UNL     1      50.639   7.253  15.534  0.00  0.00    +0.000 C 
ATOM      3  C   UNL     1      49.507   7.798  16.331  0.00  0.00    +0.000 C 
ENDROOT
BRANCH   1   4
ATOM      4  C   UNL     1      48.531   6.801  14.090  0.00  0.00    +0.000 A 
ATOM      5  C   UNL     1      48.962   7.737  13.143  0.00  0.00    +0.000 A 
ATOM      6  C   UNL     1      48.311   7.870  11.916  0.00  0.00    +0.000 A 
ATOM      7  C   UNL     1      47.225   7.049  11.605  0.00  0.00    +0.000 A 
ATOM      8  C   UNL     1      46.756   6.092  12.515  0.00  0.00    +0.000 A 
ATOM      9  C   UNL     1      47.404   6.021  13.760  0.00  0.00    +0.000 A 
BRANCH   8  10
ATOM     10  C   UNL     1      45.673   5.144  12.175  0.00  0.00    +0.000 A 
ATOM     11  C   UNL     1      44.975   5.197  10.960  0.00  0.00    +0.000 A 
ATOM     12  C   UNL     1      43.913   4.327  10.710  0.00  0.00    +0.000 A 
ATOM     13  C   UNL     1      43.577   3.406  11.683  0.00  0.00    +0.000 A 
ATOM     14  N   UNL     1      44.216   3.303  12.864  0.00  0.00    +0.000 NA
ATOM     15  C   UNL     1      45.235   4.173  13.078  0.00  0.00    +0.000 A 
ENDBRANCH   8  10
ENDBRANCH   1   4
BRANCH   1  16
ATOM     16  O   UNL     1      49.179   5.285  15.993  0.00  0.00    +0.000 OA
BRANCH  16  21
ATOM     17  C   UNL     1      47.710   5.732  21.387  0.00  0.00    +0.000 C 
ATOM     18  C   UNL     1      48.082   5.462  19.966  0.00  0.00    +0.000 A 
ATOM     19  C   UNL     1      47.191   5.695  18.930  0.00  0.00    +0.000 A 
ATOM     20  N   UNL     1      47.505   5.577  17.623  0.00  0.00    +0.000 NA
ATOM     21  C   UNL     1      48.769   5.205  17.316  0.00  0.00    +0.000 A 
ATOM     22  C   UNL     1      49.721   4.868  18.276  0.00  0.00    +0.000 A 
ATOM     23  C   UNL     1      51.097   4.385  17.931  0.00  0.00    +0.000 C 
ATOM     24  C   UNL     1      49.361   5.017  19.623  0.00  0.00    +0.000 A 
ENDBRANCH  16  21
ENDBRANCH   1  16
TORSDOF 4
ENDMDL
MODEL 8
REMARK VINA RESULT:    -5.654      3.032      7.854
REMARK INTER + INTRA:          -7.965
REMARK INTER:                  -6.842
REMARK INTRA:                  -1.123
REMARK UNBOUND:                -0.989
REMARK  Name = 
REMARK  6 active torsions:
REMARK  status: ('A' for Active; 'I' for Inactive)
REMARK    1  A    between atoms: C_1  and  C_2
REMARK    2  A    between atoms: C_5  and  O_6
REMARK    3  A    between atoms: O_6  and  C_7
REMARK    4  A    between atoms: C_7  and  C_8
REMARK    5  A    between atoms: C_12  and  C_13
REMARK    6  A    between atoms: C_22  and  C_23
REMARK                            x       y       z     vdW  Elec       q    Type
REMARK                         _______ _______ _______ _____ _____    ______ ____
ROOT
ATOM      1  C   UNL     1      49.423   8.189  12.520  0.00  0.00    +0.000 C 
ATOM      2  C   UNL     1      50.251   7.623  11.363  0.00  0.00    +0.000 C 
ATOM      3  C   UNL     1      50.280   9.084  11.643  0.00  0.00    +0.000 C 
ENDROOT
BRANCH   1   4
ATOM      4  C   UNL     1      47.912   8.158  12.352  0.00  0.00    +0.000 A 
ATOM      5  C   UNL     1      47.165   9.330  12.187  0.00  0.00    +0.000 A 
ATOM      6  C   UNL     1      45.785   9.282  11.997  0.00  0.00    +0.000 A 
ATOM      7  C   UNL     1      45.126   8.051  11.945  0.00  0.00    +0.000 A 
ATOM      8  C   UNL     1      45.826   6.846  12.099  0.00  0.00    +0.000 A 
ATOM      9  C   UNL     1      47.208   6.936  12.339  0.00  0.00    +0.000 A 
BRANCH   8  10
ATOM     10  C   UNL     1      45.171   5.530  11.951  0.00  0.00    +0.000 A 
ATOM     11  C   UNL     1      44.908   4.951  10.701  0.00  0.00    +0.000 A 
ATOM     12  C   UNL     1      44.224   3.738  10.608  0.00  0.00    +0.000 A 
ATOM     13  C   UNL     1      43.826   3.118  11.776  0.00  0.00    +0.000 A 
ATOM     14  N   UNL     1      44.058   3.621  13.003  0.00  0.00    +0.000 NA
ATOM     15  C   UNL     1      44.714   4.807  13.056  0.00  0.00    +0.000 A 
ENDBRANCH   8  10
ENDBRANCH   1   4
BRANCH   1  16
ATOM     16  O   UNL     1      49.923   7.806  13.827  0.00  0.00    +0.000 OA
BRANCH  16  21
ATOM     17  C   UNL     1      48.421  10.406  18.564  0.00  0.00    +0.000 C 
ATOM     18  C   UNL     1      48.673   9.708  17.267  0.00  0.00    +0.000 A 
ATOM     19  C   UNL     1      49.143  10.394  16.159  0.00  0.00    +0.000 A 
ATOM     20  N   UNL     1      49.494   9.804  14.997  0.00  0.00    +0.000 NA
ATOM     21  C   UNL     1      49.372   8.459  14.920  0.00  0.00    +0.000 A 
ATOM     22  C   UNL     1      48.833   7.680  15.942  0.00  0.00    +0.000 A 
ATOM     23  C   UNL     1      48.630   6.200  15.826  0.00  0.00    +0.000 C 
ATOM     24  C   UNL     1      48.494   8.329  17.138  0.00  0.00    +0.000 A 
ENDBRANCH  16  21
ENDBRANCH   1  16
TORSDOF 4
ENDMDL
MODEL 9
REMARK VINA RESULT:    -5.550      2.319      4.103
REMARK INTER + INTRA:          -7.837
REMARK INTER:                  -6.899
REMARK INTRA:                  -0.938
REMARK UNBOUND:                -0.989
REMARK  Name = 
REMARK  6 active torsions:
REMARK  status: ('A' for Active; 'I' for Inactive)
REMARK    1  A    between atoms: C_1  and  C_2
REMARK    2  A    between atoms: C_5  and  O_6
REMARK    3  A    between atoms: O_6  and  C_7
REMARK    4  A    between atoms: C_7  and  C_8
REMARK    5  A    between atoms: C_12  and  C_13
REMARK    6  A    between atoms: C_22  and  C_23
REMARK                            x       y       z     vdW  Elec       q    Type
REMARK                         _______ _______ _______ _____ _____    ______ ____
ROOT
ATOM      1  C   UNL     1      45.784   7.774  12.513  0.00  0.00    +0.000 C 
ATOM      2  C   UNL     1      45.104   9.088  12.905  0.00  0.00    +0.000 C 
ATOM      3  C   UNL     1      45.202   8.711  11.469  0.00  0.00    +0.000 C 
ENDROOT
BRANCH   1   4
ATOM      4  C   UNL     1      47.286   7.695  12.731  0.00  0.00    +0.000 A 
ATOM      5  C   UNL     1      48.195   8.049  11.728  0.00  0.00    +0.000 A 
ATOM      6  C   UNL     1      49.570   8.007  11.957  0.00  0.00    +0.000 A 
ATOM      7  C   UNL     1      50.063   7.629  13.209  0.00  0.00    +0.000 A 
ATOM      8  C   UNL     1      49.195   7.269  14.251  0.00  0.00    +0.000 A 
ATOM      9  C   UNL     1      47.818   7.275  13.967  0.00  0.00    +0.000 A 
BRANCH   8  10
ATOM     10  C   UNL     1      49.683   6.960  15.611  0.00  0.00    +0.000 A 
ATOM     11  C   UNL     1      51.047   6.899  15.931  0.00  0.00    +0.000 A 
ATOM     12  C   UNL     1      51.463   6.535  17.212  0.00  0.00    +0.000 A 
ATOM     13  C   UNL     1      50.498   6.249  18.158  0.00  0.00    +0.000 A 
ATOM     14  N   UNL     1      49.175   6.299  17.912  0.00  0.00    +0.000 NA
ATOM     15  C   UNL     1      48.808   6.644  16.652  0.00  0.00    +0.000 A 
ENDBRANCH   8  10
ENDBRANCH   1   4
BRANCH   1  16
ATOM     16  O   UNL     1      45.025   6.597  12.896  0.00  0.00    +0.000 OA
BRANCH  16  21
ATOM     17  C   UNL     1      44.326   2.132   9.575  0.00  0.00    +0.000 C 
ATOM     18  C   UNL     1      44.656   3.327  10.409  0.00  0.00    +0.000 A 
ATOM     19  C   UNL     1      44.244   4.598  10.043  0.00  0.00    +0.000 A 
ATOM     20  N   UNL     1      44.414   5.697  10.807  0.00  0.00    +0.000 NA
ATOM     21  C   UNL     1      45.029   5.537  12.001  0.00  0.00    +0.000 A 
ATOM     22  C   UNL     1      45.556   4.321  12.433  0.00  0.00    +0.000 A 
ATOM     23  C   UNL     1      46.302   4.162  13.723  0.00  0.00    +0.000 C 
ATOM     24  C   UNL     1      45.346   3.200  11.617  0.00  0.00    +0.000 A 
ENDBRANCH  16  21
ENDBRANCH   1  16
TORSDOF 4
ENDMDL
