MODEL 1
REMARK VINA RESULT:    -8.332      0.000      0.000
REMARK INTER + INTRA:         -12.788
REMARK INTER:                 -11.741
REMARK INTRA:                  -1.047
REMARK UNBOUND:                -1.047
REMARK  Name = 
REMARK  7 active torsions:
REMARK  status: ('A' for Active; 'I' for Inactive)
REMARK    1  A    between atoms: C_2  and  C_20
REMARK    2  A    between atoms: N_3  and  C_4
REMARK    3  A    between atoms: C_4  and  C_5
REMARK    4  A    between atoms: C_8  and  C_9
REMARK    5  A    between atoms: C_9  and  C_10
REMARK    6  A    between atoms: C_10  and  O_11
REMARK    7  A    between atoms: O_11  and  C_12
REMARK                            x       y       z     vdW  Elec       q    Type
REMARK                         _______ _______ _______ _____ _____    ______ ____
ROOT
ATOM      1  C   UNL     1      47.918   7.064  13.475  0.00  0.00    +0.000 C 
ENDROOT
BRANCH   1   2
ATOM      2  C   UNL     1      46.927   6.084  12.922  0.00  0.00    +0.000 A 
ATOM      3  C   UNL     1      46.363   6.248  11.655  0.00  0.00    +0.000 A 
ATOM      4  C   UNL     1      45.465   5.301  11.165  0.00  0.00    +0.000 A 
ATOM      5  C   UNL     1      45.137   4.208  11.958  0.00  0.00    +0.000 A 
ATOM      6  N   UNL     1      45.653   4.049  13.202  0.00  0.00    +0.000 NA
ATOM      7  C   UNL     1      46.520   4.980  13.656  0.00  0.00    +0.000 A 
BRANCH   5   8
ATOM      8  C   UNL     1      44.191   3.148  11.437  0.00  0.00    +0.000 C 
BRANCH   8   9
ATOM      9  C   UNL     1      44.119   3.140   9.910  0.00  0.00    +0.000 C 
BRANCH   9  10
ATOM     10  O   UNL     1      44.548   1.874   9.386  0.00  0.00    +0.000 OA
BRANCH  10  11
ATOM     11  C   UNL     1      45.567   2.040   8.460  0.00  0.00    +0.000 A 
ATOM     12  C   UNL     1      45.723   3.297   7.900  0.00  0.00    +0.000 A 
ATOM     13  C   UNL     1      46.744   3.480   6.970  0.00  0.00    +0.000 A 
ATOM     14  C   UNL     1      47.568   2.410   6.637  0.00  0.00    +0.000 A 
ATOM     15  C   UNL     1      47.337   1.194   7.252  0.00  0.00    +0.000 A 
ATOM     16  N   UNL     1      46.356   0.986   8.149  0.00  0.00    +0.000 NA
ENDBRANCH  10  11
ENDBRANCH   9  10
ENDBRANCH   8   9
ENDBRANCH   5   8
ENDBRANCH   1   2
BRANCH   1  19
ATOM     17  O   UNL     1      50.214   6.824  15.093  0.00  0.00    +0.000 OA
ATOM     18  C   UNL     1      49.116   6.947  15.630  0.00  0.00    +0.000 C 
ATOM     19  N   UNL     1      47.953   7.034  14.913  0.00  0.00    +0.000 N 
ATOM     20  H   UNL     1      47.097   7.300  15.387  0.00  0.00    +0.000 HD
BRANCH  18  21
ATOM     21  C   UNL     1      48.974   6.945  17.093  0.00  0.00    +0.000 A 
ATOM     22  C   UNL     1      48.817   8.144  17.775  0.00  0.00    +0.000 A 
ATOM     23  S   UNL     1      48.689   7.959  19.466  0.00  0.00    +0.000 S 
ATOM     24  C   UNL     1      48.795   6.266  19.343  0.00  0.00    +0.000 A 
ATOM     25  N   UNL     1      48.719   5.478  20.450  0.00  0.00    +0.000 NA
ATOM     26  C   UNL     1      48.770   4.210  20.208  0.00  0.00    +0.000 A 
ATOM     27  N   UNL     1      48.902   3.658  18.962  0.00  0.00    +0.000 N 
ATOM     28  C   UNL     1      49.064   4.415  17.827  0.00  0.00    +0.000 A 
ATOM     29  O   UNL     1      49.326   3.892  16.748  0.00  0.00    +0.000 OA
ATOM     30  C   UNL     1      48.956   5.848  18.035  0.00  0.00    +0.000 A 
ATOM     31  H   UNL     1      48.972   2.658  18.843  0.00  0.00    +0.000 HD
ENDBRANCH  18  21
ENDBRANCH   1  19
TORSDOF 7
ENDMDL
MODEL 2
REMARK VINA RESULT:    -7.843      1.524      2.183
REMARK INTER + INTRA:         -12.099
REMARK INTER:                 -11.019
REMARK INTRA:                  -1.080
REMARK UNBOUND:                -1.047
REMARK  Name = 
REMARK  7 active torsions:
REMARK  status: ('A' for Active; 'I' for Inactive)
REMARK    1  A    between atoms: C_2  and  C_20
REMARK    2  A    between atoms: N_3  and  C_4
REMARK    3  A    between atoms: C_4  and  C_5
REMARK    4  A    between atoms: C_8  and  C_9
REMARK    5  A    between atoms: C_9  and  C_10
REMARK    6  A    between atoms: C_10  and  O_11
REMARK    7  A    between atoms: O_11  and  C_12
REMARK                            x       y       z     vdW  Elec       q    Type
REMARK                         _______ _______ _______ _____ _____    ______ ____
ROOT
ATOM      1  C   UNL     1      48.198   6.738  14.301  0.00  0.00    +0.000 C 
ENDROOT
BRANCH   1   2
ATOM      2  C   UNL     1      47.214   5.856  13.593  0.00  0.00    +0.000 A 
ATOM      3  C   UNL     1      46.692   6.196  12.344  0.00  0.00    +0.000 A 
ATOM      4  C   UNL     1      45.798   5.337  11.705  0.00  0.00    +0.000 A 
ATOM      5  C   UNL     1      45.433   4.153  12.336  0.00  0.00    +0.000 A 
ATOM      6  N   UNL     1      45.907   3.822  13.562  0.00  0.00    +0.000 NA
ATOM      7  C   UNL     1      46.771   4.671  14.162  0.00  0.00    +0.000 A 
BRANCH   5   8
ATOM      8  C   UNL     1      44.491   3.186  11.650  0.00  0.00    +0.000 C 
BRANCH   8   9
ATOM      9  C   UNL     1      44.249   3.557  10.187  0.00  0.00    +0.000 C 
BRANCH   9  10
ATOM     10  O   UNL     1      44.194   2.381   9.366  0.00  0.00    +0.000 OA
BRANCH  10  11
ATOM     11  C   UNL     1      45.290   2.316   8.517  0.00  0.00    +0.000 A 
ATOM     12  C   UNL     1      45.648   3.474   7.848  0.00  0.00    +0.000 A 
ATOM     13  C   UNL     1      46.747   3.427   6.993  0.00  0.00    +0.000 A 
ATOM     14  C   UNL     1      47.445   2.233   6.841  0.00  0.00    +0.000 A 
ATOM     15  C   UNL     1      47.014   1.130   7.554  0.00  0.00    +0.000 A 
ATOM     16  N   UNL     1      45.954   1.145   8.382  0.00  0.00    +0.000 NA
ENDBRANCH  10  11
ENDBRANCH   9  10
ENDBRANCH   8   9
ENDBRANCH   5   8
ENDBRANCH   1   2
BRANCH   1  19
ATOM     17  O   UNL     1      50.294   5.936  16.008  0.00  0.00    +0.000 OA
ATOM     18  C   UNL     1      49.201   6.216  16.495  0.00  0.00    +0.000 C 
ATOM     19  N   UNL     1      48.126   6.580  15.729  0.00  0.00    +0.000 N 
ATOM     20  H   UNL     1      47.302   6.960  16.181  0.00  0.00    +0.000 HD
BRANCH  18  21
ATOM     21  C   UNL     1      48.959   6.116  17.942  0.00  0.00    +0.000 A 
ATOM     22  C   UNL     1      49.273   4.944  18.616  0.00  0.00    +0.000 A 
ATOM     23  S   UNL     1      48.908   4.994  20.282  0.00  0.00    +0.000 S 
ATOM     24  C   UNL     1      48.356   6.599  20.169  0.00  0.00    +0.000 A 
ATOM     25  N   UNL     1      47.918   7.268  21.270  0.00  0.00    +0.000 NA
ATOM     26  C   UNL     1      47.570   8.492  21.048  0.00  0.00    +0.000 A 
ATOM     27  N   UNL     1      47.607   9.105  19.824  0.00  0.00    +0.000 N 
ATOM     28  C   UNL     1      47.964   8.445  18.673  0.00  0.00    +0.000 A 
ATOM     29  O   UNL     1      47.847   8.978  17.574  0.00  0.00    +0.000 OA
ATOM     30  C   UNL     1      48.421   7.082  18.874  0.00  0.00    +0.000 A 
ATOM     31  H   UNL     1      47.287  10.055  19.710  0.00  0.00    +0.000 HD
ENDBRANCH  18  21
ENDBRANCH   1  19
TORSDOF 7
ENDMDL
MODEL 3
REMARK VINA RESULT:    -7.581      3.329      5.146
REMARK INTER + INTRA:         -11.729
REMARK INTER:                 -10.647
REMARK INTRA:                  -1.083
REMARK UNBOUND:                -1.047
REMARK  Name = 
REMARK  7 active torsions:
REMARK  status: ('A' for Active; 'I' for Inactive)
REMARK    1  A    between atoms: C_2  and  C_20
REMARK    2  A    between atoms: N_3  and  C_4
REMARK    3  A    between atoms: C_4  and  C_5
REMARK    4  A    between atoms: C_8  and  C_9
REMARK    5  A    between atoms: C_9  and  C_10
REMARK    6  A    between atoms: C_10  and  O_11
REMARK    7  A    between atoms: O_11  and  C_12
REMARK                            x       y       z     vdW  Elec       q    Type
REMARK                         _______ _______ _______ _____ _____    ______ ____
ROOT
ATOM      1  C   UNL     1      47.389   5.614  14.622  0.00  0.00    +0.000 C 
ENDROOT
BRANCH   1   2
ATOM      2  C   UNL     1      46.368   4.936  13.760  0.00  0.00    +0.000 A 
ATOM      3  C   UNL     1      45.235   5.610  13.299  0.00  0.00    +0.000 A 
ATOM      4  C   UNL     1      44.320   4.953  12.476  0.00  0.00    +0.000 A 
ATOM      5  C   UNL     1      44.550   3.624  12.137  0.00  0.00    +0.000 A 
ATOM      6  N   UNL     1      45.630   2.947  12.601  0.00  0.00    +0.000 NA
ATOM      7  C   UNL     1      46.501   3.604  13.398  0.00  0.00    +0.000 A 
BRANCH   5   8
ATOM      8  C   UNL     1      43.592   2.897  11.219  0.00  0.00    +0.000 C 
BRANCH   8   9
ATOM      9  C   UNL     1      44.287   2.358   9.969  0.00  0.00    +0.000 C 
BRANCH   9  10
ATOM     10  O   UNL     1      44.737   3.434   9.133  0.00  0.00    +0.000 OA
BRANCH  10  11
ATOM     11  C   UNL     1      45.625   2.976   8.170  0.00  0.00    +0.000 A 
ATOM     12  C   UNL     1      46.117   1.690   8.315  0.00  0.00    +0.000 A 
ATOM     13  C   UNL     1      47.008   1.214   7.356  0.00  0.00    +0.000 A 
ATOM     14  C   UNL     1      47.371   2.033   6.293  0.00  0.00    +0.000 A 
ATOM     15  C   UNL     1      46.825   3.302   6.230  0.00  0.00    +0.000 A 
ATOM     16  N   UNL     1      45.967   3.789   7.144  0.00  0.00    +0.000 NA
ENDBRANCH  10  11
ENDBRANCH   9  10
ENDBRANCH   8   9
ENDBRANCH   5   8
ENDBRANCH   1   2
BRANCH   1  19
ATOM     17  O   UNL     1      49.163   6.355  12.560  0.00  0.00    +0.000 OA
ATOM     18  C   UNL     1      48.521   7.229  13.137  0.00  0.00    +0.000 C 
ATOM     19  N   UNL     1      47.666   6.951  14.170  0.00  0.00    +0.000 N 
ATOM     20  H   UNL     1      47.039   7.676  14.502  0.00  0.00    +0.000 HD
BRANCH  18  21
ATOM     21  C   UNL     1      48.679   8.650  12.793  0.00  0.00    +0.000 A 
ATOM     22  C   UNL     1      49.950   9.199  12.692  0.00  0.00    +0.000 A 
ATOM     23  S   UNL     1      49.948  10.862  12.307  0.00  0.00    +0.000 S 
ATOM     24  C   UNL     1      48.249  10.895  12.221  0.00  0.00    +0.000 A 
ATOM     25  N   UNL     1      47.588  12.039  11.896  0.00  0.00    +0.000 NA
ATOM     26  C   UNL     1      46.304  11.912  11.825  0.00  0.00    +0.000 A 
ATOM     27  N   UNL     1      45.621  10.749  12.061  0.00  0.00    +0.000 N 
ATOM     28  C   UNL     1      46.239   9.593  12.470  0.00  0.00    +0.000 A 
ATOM     29  O   UNL     1      45.587   8.613  12.814  0.00  0.00    +0.000 OA
ATOM     30  C   UNL     1      47.689   9.665  12.511  0.00  0.00    +0.000 A 
ATOM     31  H   UNL     1      44.612  10.725  12.024  0.00  0.00    +0.000 HD
ENDBRANCH  18  21
ENDBRANCH   1  19
TORSDOF 7
ENDMDL
MODEL 4
REMARK VINA RESULT:    -7.563      1.326      1.624
REMARK INTER + INTRA:         -11.704
REMARK INTER:                 -10.788
REMARK INTRA:                  -0.917
REMARK UNBOUND:                -1.047
REMARK  Name = 
REMARK  7 active torsions:
REMARK  status: ('A' for Active; 'I' for Inactive)
REMARK    1  A    between atoms: C_2  and  C_20
REMARK    2  A    between atoms: N_3  and  C_4
REMARK    3  A    between atoms: C_4  and  C_5
REMARK    4  A    between atoms: C_8  and  C_9
REMARK    5  A    between atoms: C_9  and  C_10
REMARK    6  A    between atoms: C_10  and  O_11
REMARK    7  A    between atoms: O_11  and  C_12
REMARK                            x       y       z     vdW  Elec       q    Type
REMARK                         _______ _______ _______ _____ _____    ______ ____
ROOT
ATOM      1  C   UNL     1      47.402   8.279  13.388  0.00  0.00    +0.000 C 
ENDROOT
BRANCH   1   2
ATOM      2  C   UNL     1      46.478   7.286  12.750  0.00  0.00    +0.000 A 
ATOM      3  C   UNL     1      46.717   5.913  12.820  0.00  0.00    +0.000 A 
ATOM      4  C   UNL     1      45.820   5.019  12.236  0.00  0.00    +0.000 A 
ATOM      5  C   UNL     1      44.701   5.518  11.578  0.00  0.00    +0.000 A 
ATOM      6  N   UNL     1      44.471   6.850  11.475  0.00  0.00    +0.000 NA
ATOM      7  C   UNL     1      45.355   7.697  12.048  0.00  0.00    +0.000 A 
BRANCH   5   8
ATOM      8  C   UNL     1      43.695   4.569  10.965  0.00  0.00    +0.000 C 
BRANCH   8   9
ATOM      9  C   UNL     1      43.988   4.292   9.491  0.00  0.00    +0.000 C 
BRANCH   9  10
ATOM     10  O   UNL     1      44.288   2.903   9.283  0.00  0.00    +0.000 OA
BRANCH  10  11
ATOM     11  C   UNL     1      45.342   2.750   8.394  0.00  0.00    +0.000 A 
ATOM     12  C   UNL     1      45.965   1.515   8.349  0.00  0.00    +0.000 A 
ATOM     13  C   UNL     1      47.024   1.343   7.460  0.00  0.00    +0.000 A 
ATOM     14  C   UNL     1      47.417   2.404   6.651  0.00  0.00    +0.000 A 
ATOM     15  C   UNL     1      46.731   3.600   6.765  0.00  0.00    +0.000 A 
ATOM     16  N   UNL     1      45.710   3.795   7.618  0.00  0.00    +0.000 NA
ENDBRANCH  10  11
ENDBRANCH   9  10
ENDBRANCH   8   9
ENDBRANCH   5   8
ENDBRANCH   1   2
BRANCH   1  19
ATOM     17  O   UNL     1      49.773   7.010  14.236  0.00  0.00    +0.000 OA
ATOM     18  C   UNL     1      48.929   7.318  15.074  0.00  0.00    +0.000 C 
ATOM     19  N   UNL     1      47.739   7.905  14.736  0.00  0.00    +0.000 N 
ATOM     20  H   UNL     1      47.151   8.289  15.468  0.00  0.00    +0.000 HD
BRANCH  18  21
ATOM     21  C   UNL     1      49.118   7.016  16.500  0.00  0.00    +0.000 A 
ATOM     22  C   UNL     1      49.622   7.989  17.352  0.00  0.00    +0.000 A 
ATOM     23  S   UNL     1      49.797   7.462  18.965  0.00  0.00    +0.000 S 
ATOM     24  C   UNL     1      49.166   5.927  18.590  0.00  0.00    +0.000 A 
ATOM     25  N   UNL     1      49.013   4.979  19.554  0.00  0.00    +0.000 NA
ATOM     26  C   UNL     1      48.482   3.877  19.139  0.00  0.00    +0.000 A 
ATOM     27  N   UNL     1      48.102   3.631  17.846  0.00  0.00    +0.000 N 
ATOM     28  C   UNL     1      48.312   4.527  16.826  0.00  0.00    +0.000 A 
ATOM     29  O   UNL     1      48.096   4.222  15.658  0.00  0.00    +0.000 OA
ATOM     30  C   UNL     1      48.853   5.807  17.248  0.00  0.00    +0.000 A 
ATOM     31  H   UNL     1      47.726   2.734  17.578  0.00  0.00    +0.000 HD
ENDBRANCH  18  21
ENDBRANCH   1  19
TORSDOF 7
ENDMDL
MODEL 5
REMARK VINA RESULT:    -7.229      1.826      3.211
REMARK INTER + INTRA:         -11.234
REMARK INTER:                 -10.069
REMARK INTRA:                  -1.165
REMARK UNBOUND:                -1.047
REMARK  Name = 
REMARK  7 active torsions:
REMARK  status: ('A' for Active; 'I' for Inactive)
REMARK    1  A    between atoms: C_2  and  C_20
REMARK    2  A    between atoms: N_3  and  C_4
REMARK    3  A    between atoms: C_4  and  C_5
REMARK    4  A    between atoms: C_8  and  C_9
REMARK    5  A    between atoms: C_9  and  C_10
REMARK    6  A    between atoms: C_10  and  O_11
REMARK    7  A    between atoms: O_11  and  C_12
REMARK                            x       y       z     vdW  Elec       q    Type
REMARK                         _______ _______ _______ _____ _____    ______ ____
ROOT
ATOM      1  C   UNL     1      47.437   4.129  15.347  0.00  0.00    +0.000 C 
ENDROOT
BRANCH   1   2
ATOM      2  C   UNL     1      46.657   4.378  14.092  0.00  0.00    +0.000 A 
ATOM      3  C   UNL     1      46.274   3.333  13.249  0.00  0.00    +0.000 A 
ATOM      4  C   UNL     1      45.526   3.601  12.103  0.00  0.00    +0.000 A 
ATOM      5  C   UNL     1      45.183   4.917  11.813  0.00  0.00    +0.000 A 
ATOM      6  N   UNL     1      45.572   5.945  12.605  0.00  0.00    +0.000 NA
ATOM      7  C   UNL     1      46.298   5.661  13.710  0.00  0.00    +0.000 A 
BRANCH   5   8
ATOM      8  C   UNL     1      44.343   5.232  10.594  0.00  0.00    +0.000 C 
BRANCH   8   9
ATOM      9  C   UNL     1      44.031   3.983   9.771  0.00  0.00    +0.000 C 
BRANCH   9  10
ATOM     10  O   UNL     1      44.318   4.203   8.382  0.00  0.00    +0.000 OA
BRANCH  10  11
ATOM     11  C   UNL     1      45.352   3.384   7.953  0.00  0.00    +0.000 A 
ATOM     12  C   UNL     1      45.397   2.095   8.457  0.00  0.00    +0.000 A 
ATOM     13  C   UNL     1      46.428   1.258   8.035  0.00  0.00    +0.000 A 
ATOM     14  C   UNL     1      47.369   1.736   7.128  0.00  0.00    +0.000 A 
ATOM     15  C   UNL     1      47.239   3.036   6.677  0.00  0.00    +0.000 A 
ATOM     16  N   UNL     1      46.258   3.868   7.072  0.00  0.00    +0.000 NA
ENDBRANCH  10  11
ENDBRANCH   9  10
ENDBRANCH   8   9
ENDBRANCH   5   8
ENDBRANCH   1   2
BRANCH   1  19
ATOM     17  O   UNL     1      49.712   4.883  16.833  0.00  0.00    +0.000 OA
ATOM     18  C   UNL     1      48.744   5.641  16.797  0.00  0.00    +0.000 C 
ATOM     19  N   UNL     1      47.592   5.329  16.126  0.00  0.00    +0.000 N 
ATOM     20  H   UNL     1      46.891   6.048  15.986  0.00  0.00    +0.000 HD
BRANCH  18  21
ATOM     21  C   UNL     1      48.740   6.914  17.531  0.00  0.00    +0.000 A 
ATOM     22  C   UNL     1      48.846   6.915  18.915  0.00  0.00    +0.000 A 
ATOM     23  S   UNL     1      48.803   8.475  19.605  0.00  0.00    +0.000 S 
ATOM     24  C   UNL     1      48.684   9.207  18.074  0.00  0.00    +0.000 A 
ATOM     25  N   UNL     1      48.637  10.561  17.948  0.00  0.00    +0.000 NA
ATOM     26  C   UNL     1      48.591  10.983  16.728  0.00  0.00    +0.000 A 
ATOM     27  N   UNL     1      48.575  10.175  15.623  0.00  0.00    +0.000 N 
ATOM     28  C   UNL     1      48.539   8.804  15.704  0.00  0.00    +0.000 A 
ATOM     29  O   UNL     1      48.377   8.113  14.704  0.00  0.00    +0.000 OA
ATOM     30  C   UNL     1      48.647   8.276  17.052  0.00  0.00    +0.000 A 
ATOM     31  H   UNL     1      48.502  10.567  14.695  0.00  0.00    +0.000 HD
ENDBRANCH  18  21
ENDBRANCH   1  19
TORSDOF 7
ENDMDL
MODEL 6
REMARK VINA RESULT:    -7.173      2.537      4.129
REMARK INTER + INTRA:         -11.156
REMARK INTER:                  -9.992
REMARK INTRA:                  -1.164
REMARK UNBOUND:                -1.047
REMARK  Name = 
REMARK  7 active torsions:
REMARK  status: ('A' for Active; 'I' for Inactive)
REMARK    1  A    between atoms: C_2  and  C_20
REMARK    2  A    between atoms: N_3  and  C_4
REMARK    3  A    between atoms: C_4  and  C_5
REMARK    4  A    between atoms: C_8  and  C_9
REMARK    5  A    between atoms: C_9  and  C_10
REMARK    6  A    between atoms: C_10  and  O_11
REMARK    7  A    between atoms: O_11  and  C_12
REMARK                            x       y       z     vdW  Elec       q    Type
REMARK                         _______ _______ _______ _____ _____    ______ ____
ROOT
ATOM      1  C   UNL     1      47.689   5.508  14.387  0.00  0.00    +0.000 C 
ENDROOT
BRANCH   1   2
ATOM      2  C   UNL     1      46.635   5.374  13.330  0.00  0.00    +0.000 A 
ATOM      3  C   UNL     1      46.699   6.094  12.135  0.00  0.00    +0.000 A 
ATOM      4  C   UNL     1      45.713   5.923  11.165  0.00  0.00    +0.000 A 
ATOM      5  C   UNL     1      44.670   5.038  11.411  0.00  0.00    +0.000 A 
ATOM      6  N   UNL     1      44.577   4.354  12.578  0.00  0.00    +0.000 NA
ATOM      7  C   UNL     1      45.543   4.537  13.504  0.00  0.00    +0.000 A 
BRANCH   5   8
ATOM      8  C   UNL     1      43.605   4.808  10.361  0.00  0.00    +0.000 C 
BRANCH   8   9
ATOM      9  C   UNL     1      44.162   4.117   9.117  0.00  0.00    +0.000 C 
BRANCH   9  10
ATOM     10  O   UNL     1      44.783   2.870   9.461  0.00  0.00    +0.000 OA
BRANCH  10  11
ATOM     11  C   UNL     1      45.674   2.471   8.476  0.00  0.00    +0.000 A 
ATOM     12  C   UNL     1      46.100   3.430   7.573  0.00  0.00    +0.000 A 
ATOM     13  C   UNL     1      46.997   3.045   6.578  0.00  0.00    +0.000 A 
ATOM     14  C   UNL     1      47.434   1.726   6.524  0.00  0.00    +0.000 A 
ATOM     15  C   UNL     1      46.956   0.841   7.471  0.00  0.00    +0.000 A 
ATOM     16  N   UNL     1      46.086   1.182   8.439  0.00  0.00    +0.000 NA
ENDBRANCH  10  11
ENDBRANCH   9  10
ENDBRANCH   8   9
ENDBRANCH   5   8
ENDBRANCH   1   2
BRANCH   1  19
ATOM     17  O   UNL     1      50.038   6.572  15.527  0.00  0.00    +0.000 OA
ATOM     18  C   UNL     1      49.109   7.330  15.257  0.00  0.00    +0.000 C 
ATOM     19  N   UNL     1      47.925   6.884  14.734  0.00  0.00    +0.000 N 
ATOM     20  H   UNL     1      47.257   7.557  14.377  0.00  0.00    +0.000 HD
BRANCH  18  21
ATOM     21  C   UNL     1      49.188   8.770  15.541  0.00  0.00    +0.000 A 
ATOM     22  C   UNL     1      49.474   9.207  16.828  0.00  0.00    +0.000 A 
ATOM     23  S   UNL     1      49.506  10.905  16.983  0.00  0.00    +0.000 S 
ATOM     24  C   UNL     1      49.180  11.118  15.327  0.00  0.00    +0.000 A 
ATOM     25  N   UNL     1      49.103  12.362  14.783  0.00  0.00    +0.000 NA
ATOM     26  C   UNL     1      48.893  12.376  13.508  0.00  0.00    +0.000 A 
ATOM     27  N   UNL     1      48.741  11.259  12.730  0.00  0.00    +0.000 N 
ATOM     28  C   UNL     1      48.730   9.988  13.249  0.00  0.00    +0.000 A 
ATOM     29  O   UNL     1      48.446   9.020  12.550  0.00  0.00    +0.000 OA
ATOM     30  C   UNL     1      49.019   9.911  14.670  0.00  0.00    +0.000 A 
ATOM     31  H   UNL     1      48.543  11.339  11.743  0.00  0.00    +0.000 HD
ENDBRANCH  18  21
ENDBRANCH   1  19
TORSDOF 7
ENDMDL
MODEL 7
REMARK VINA RESULT:    -7.025      2.896      8.780
REMARK INTER + INTRA:         -10.946
REMARK INTER:                  -9.574
REMARK INTRA:                  -1.372
REMARK UNBOUND:                -1.047
REMARK  Name = 
REMARK  7 active torsions:
REMARK  status: ('A' for Active; 'I' for Inactive)
REMARK    1  A    between atoms: C_2  and  C_20
REMARK    2  A    between atoms: N_3  and  C_4
REMARK    3  A    between atoms: C_4  and  C_5
REMARK    4  A    between atoms: C_8  and  C_9
REMARK    5  A    between atoms: C_9  and  C_10
REMARK    6  A    between atoms: C_10  and  O_11
REMARK    7  A    between atoms: O_11  and  C_12
REMARK                            x       y       z     vdW  Elec       q    Type
REMARK                         _______ _______ _______ _____ _____    ______ ____
ROOT
ATOM      1  C   UNL     1      47.490   7.760  12.015  0.00  0.00    +0.000 C 
ENDROOT
BRANCH   1   2
ATOM      2  C   UNL     1      48.007   7.832  13.420  0.00  0.00    +0.000 A 
ATOM      3  C   UNL     1      47.985   9.023  14.148  0.00  0.00    +0.000 A 
ATOM      4  C   UNL     1      48.451   9.044  15.462  0.00  0.00    +0.000 A 
ATOM      5  C   UNL     1      48.943   7.870  16.023  0.00  0.00    +0.000 A 
ATOM      6  N   UNL     1      48.998   6.713  15.319  0.00  0.00    +0.000 NA
ATOM      7  C   UNL     1      48.543   6.717  14.047  0.00  0.00    +0.000 A 
BRANCH   5   8
ATOM      8  C   UNL     1      49.423   7.857  17.458  0.00  0.00    +0.000 C 
BRANCH   8   9
ATOM      9  C   UNL     1      48.416   7.195  18.398  0.00  0.00    +0.000 C 
BRANCH   9  10
ATOM     10  O   UNL     1      48.985   6.034  19.019  0.00  0.00    +0.000 OA
BRANCH  10  11
ATOM     11  C   UNL     1      48.703   4.890  18.288  0.00  0.00    +0.000 A 
ATOM     12  C   UNL     1      49.733   3.986  18.093  0.00  0.00    +0.000 A 
ATOM     13  C   UNL     1      49.466   2.830  17.362  0.00  0.00    +0.000 A 
ATOM     14  C   UNL     1      48.186   2.620  16.859  0.00  0.00    +0.000 A 
ATOM     15  C   UNL     1      47.221   3.578  17.108  0.00  0.00    +0.000 A 
ATOM     16  N   UNL     1      47.452   4.705  17.805  0.00  0.00    +0.000 NA
ENDBRANCH  10  11
ENDBRANCH   9  10
ENDBRANCH   8   9
ENDBRANCH   5   8
ENDBRANCH   1   2
BRANCH   1  19
ATOM     17  O   UNL     1      44.691   7.420  12.030  0.00  0.00    +0.000 OA
ATOM     18  C   UNL     1      45.407   6.457  11.764  0.00  0.00    +0.000 C 
ATOM     19  N   UNL     1      46.774   6.536  11.770  0.00  0.00    +0.000 N 
ATOM     20  H   UNL     1      47.316   5.770  11.386  0.00  0.00    +0.000 HD
BRANCH  18  21
ATOM     21  C   UNL     1      44.838   5.132  11.481  0.00  0.00    +0.000 A 
ATOM     22  C   UNL     1      44.096   4.476  12.454  0.00  0.00    +0.000 A 
ATOM     23  S   UNL     1      43.530   2.943  11.965  0.00  0.00    +0.000 S 
ATOM     24  C   UNL     1      44.220   3.120  10.420  0.00  0.00    +0.000 A 
ATOM     25  N   UNL     1      44.076   2.152   9.475  0.00  0.00    +0.000 NA
ATOM     26  C   UNL     1      44.613   2.435   8.335  0.00  0.00    +0.000 A 
ATOM     27  N   UNL     1      45.291   3.592   8.057  0.00  0.00    +0.000 N 
ATOM     28  C   UNL     1      45.530   4.559   9.003  0.00  0.00    +0.000 A 
ATOM     29  O   UNL     1      46.263   5.513   8.764  0.00  0.00    +0.000 OA
ATOM     30  C   UNL     1      44.898   4.318  10.288  0.00  0.00    +0.000 A 
ATOM     31  H   UNL     1      45.719   3.738   7.154  0.00  0.00    +0.000 HD
ENDBRANCH  18  21
ENDBRANCH   1  19
TORSDOF 7
ENDMDL
MODEL 8
REMARK VINA RESULT:    -7.005      2.319      2.851
REMARK INTER + INTRA:         -10.919
REMARK INTER:                  -9.825
REMARK INTRA:                  -1.094
REMARK UNBOUND:                -1.047
REMARK  Name = 
REMARK  7 active torsions:
REMARK  status: ('A' for Active; 'I' for Inactive)
REMARK    1  A    between atoms: C_2  and  C_20
REMARK    2  A    between atoms: N_3  and  C_4
REMARK    3  A    between atoms: C_4  and  C_5
REMARK    4  A    between atoms: C_8  and  C_9
REMARK    5  A    between atoms: C_9  and  C_10
REMARK    6  A    between atoms: C_10  and  O_11
REMARK    7  A    between atoms: O_11  and  C_12
REMARK                            x       y       z     vdW  Elec       q    Type
REMARK                         _______ _______ _______ _____ _____    ______ ____
ROOT
ATOM      1  C   UNL     1      47.975   5.611  14.316  0.00  0.00    +0.000 C 
ENDROOT
BRANCH   1   2
ATOM      2  C   UNL     1      46.859   5.489  13.324  0.00  0.00    +0.000 A 
ATOM      3  C   UNL     1      46.856   6.215  12.131  0.00  0.00    +0.000 A 
ATOM      4  C   UNL     1      45.813   6.055  11.220  0.00  0.00    +0.000 A 
ATOM      5  C   UNL     1      44.780   5.175  11.525  0.00  0.00    +0.000 A 
ATOM      6  N   UNL     1      44.752   4.485  12.691  0.00  0.00    +0.000 NA
ATOM      7  C   UNL     1      45.774   4.658  13.559  0.00  0.00    +0.000 A 
BRANCH   5   8
ATOM      8  C   UNL     1      43.653   4.957  10.539  0.00  0.00    +0.000 C 
BRANCH   8   9
ATOM      9  C   UNL     1      44.110   4.188   9.300  0.00  0.00    +0.000 C 
BRANCH   9  10
ATOM     10  O   UNL     1      44.910   3.056   9.670  0.00  0.00    +0.000 OA
BRANCH  10  11
ATOM     11  C   UNL     1      45.691   2.630   8.605  0.00  0.00    +0.000 A 
ATOM     12  C   UNL     1      46.053   3.575   7.660  0.00  0.00    +0.000 A 
ATOM     13  C   UNL     1      46.838   3.164   6.585  0.00  0.00    +0.000 A 
ATOM     14  C   UNL     1      47.233   1.833   6.496  0.00  0.00    +0.000 A 
ATOM     15  C   UNL     1      46.826   0.963   7.490  0.00  0.00    +0.000 A 
ATOM     16  N   UNL     1      46.063   1.331   8.535  0.00  0.00    +0.000 NA
ENDBRANCH  10  11
ENDBRANCH   9  10
ENDBRANCH   8   9
ENDBRANCH   5   8
ENDBRANCH   1   2
BRANCH   1  19
ATOM     17  O   UNL     1      50.193   7.310  14.695  0.00  0.00    +0.000 OA
ATOM     18  C   UNL     1      49.088   7.675  15.088  0.00  0.00    +0.000 C 
ATOM     19  N   UNL     1      47.971   6.892  14.971  0.00  0.00    +0.000 N 
ATOM     20  H   UNL     1      47.060   7.298  15.155  0.00  0.00    +0.000 HD
BRANCH  18  21
ATOM     21  C   UNL     1      48.904   8.963  15.772  0.00  0.00    +0.000 A 
ATOM     22  C   UNL     1      49.201  10.147  15.109  0.00  0.00    +0.000 A 
ATOM     23  S   UNL     1      48.952  11.543  16.057  0.00  0.00    +0.000 S 
ATOM     24  C   UNL     1      48.397  10.618  17.372  0.00  0.00    +0.000 A 
ATOM     25  N   UNL     1      47.982  11.215  18.523  0.00  0.00    +0.000 NA
ATOM     26  C   UNL     1      47.546  10.397  19.422  0.00  0.00    +0.000 A 
ATOM     27  N   UNL     1      47.498   9.035  19.281  0.00  0.00    +0.000 N 
ATOM     28  C   UNL     1      47.980   8.385  18.172  0.00  0.00    +0.000 A 
ATOM     29  O   UNL     1      48.057   7.161  18.137  0.00  0.00    +0.000 OA
ATOM     30  C   UNL     1      48.429   9.261  17.105  0.00  0.00    +0.000 A 
ATOM     31  H   UNL     1      47.178   8.448  20.038  0.00  0.00    +0.000 HD
ENDBRANCH  18  21
ENDBRANCH   1  19
TORSDOF 7
ENDMDL
MODEL 9
REMARK VINA RESULT:    -6.806      3.373      8.371
REMARK INTER + INTRA:         -10.638
REMARK INTER:                  -9.448
REMARK INTRA:                  -1.190
REMARK UNBOUND:                -1.047
REMARK  Name = 
REMARK  7 active torsions:
REMARK  status: ('A' for Active; 'I' for Inactive)
REMARK    1  A    between atoms: C_2  and  C_20
REMARK    2  A    between atoms: N_3  and  C_4
REMARK    3  A    between atoms: C_4  and  C_5
REMARK    4  A    between atoms: C_8  and  C_9
REMARK    5  A    between atoms: C_9  and  C_10
REMARK    6  A    between atoms: C_10  and  O_11
REMARK    7  A    between atoms: O_11  and  C_12
REMARK                            x       y       z     vdW  Elec       q    Type
REMARK                         _______ _______ _______ _____ _____    ______ ____
ROOT
ATOM      1  C   UNL     1      47.944   8.223  12.233  0.00  0.00    +0.000 C 
ENDROOT
BRANCH   1   2
ATOM      2  C   UNL     1      48.382   7.962  13.643  0.00  0.00    +0.000 A 
ATOM      3  C   UNL     1      48.568   9.002  14.556  0.00  0.00    +0.000 A 
ATOM      4  C   UNL     1      48.951   8.717  15.867  0.00  0.00    +0.000 A 
ATOM      5  C   UNL     1      49.153   7.393  16.238  0.00  0.00    +0.000 A 
ATOM      6  N   UNL     1      49.006   6.374  15.355  0.00  0.00    +0.000 NA
ATOM      7  C   UNL     1      48.636   6.675  14.091  0.00  0.00    +0.000 A 
BRANCH   5   8
ATOM      8  C   UNL     1      49.536   7.054  17.662  0.00  0.00    +0.000 C 
BRANCH   8   9
ATOM      9  C   UNL     1      48.316   6.733  18.527  0.00  0.00    +0.000 C 
BRANCH   9  10
ATOM     10  O   UNL     1      48.516   5.514  19.257  0.00  0.00    +0.000 OA
BRANCH  10  11
ATOM     11  C   UNL     1      48.626   4.432  18.397  0.00  0.00    +0.000 A 
ATOM     12  C   UNL     1      47.503   4.080  17.667  0.00  0.00    +0.000 A 
ATOM     13  C   UNL     1      47.598   2.996  16.796  0.00  0.00    +0.000 A 
ATOM     14  C   UNL     1      48.803   2.311  16.685  0.00  0.00    +0.000 A 
ATOM     15  C   UNL     1      49.870   2.739  17.451  0.00  0.00    +0.000 A 
ATOM     16  N   UNL     1      49.807   3.778  18.304  0.00  0.00    +0.000 NA
ENDBRANCH  10  11
ENDBRANCH   9  10
ENDBRANCH   8   9
ENDBRANCH   5   8
ENDBRANCH   1   2
BRANCH   1  19
ATOM     17  O   UNL     1      45.217   7.971  11.565  0.00  0.00    +0.000 OA
ATOM     18  C   UNL     1      45.979   7.038  11.324  0.00  0.00    +0.000 C 
ATOM     19  N   UNL     1      47.308   7.072  11.650  0.00  0.00    +0.000 N 
ATOM     20  H   UNL     1      47.926   6.356  11.285  0.00  0.00    +0.000 HD
BRANCH  18  21
ATOM     21  C   UNL     1      45.494   5.788  10.720  0.00  0.00    +0.000 A 
ATOM     22  C   UNL     1      45.802   5.494   9.399  0.00  0.00    +0.000 A 
ATOM     23  S   UNL     1      45.142   4.017   8.855  0.00  0.00    +0.000 S 
ATOM     24  C   UNL     1      44.456   3.700  10.380  0.00  0.00    +0.000 A 
ATOM     25  N   UNL     1      43.762   2.552  10.609  0.00  0.00    +0.000 NA
ATOM     26  C   UNL     1      43.335   2.420  11.821  0.00  0.00    +0.000 A 
ATOM     27  N   UNL     1      43.527   3.336  12.821  0.00  0.00    +0.000 N 
ATOM     28  C   UNL     1      44.149   4.542  12.614  0.00  0.00    +0.000 A 
ATOM     29  O   UNL     1      44.176   5.401  13.490  0.00  0.00    +0.000 OA
ATOM     30  C   UNL     1      44.701   4.718  11.283  0.00  0.00    +0.000 A 
ATOM     31  H   UNL     1      43.135   3.189  13.740  0.00  0.00    +0.000 HD
ENDBRANCH  18  21
ENDBRANCH   1  19
TORSDOF 7
ENDMDL
