MODEL 1
REMARK VINA RESULT:    -8.027      0.000      0.000
REMARK INTER + INTRA:         -13.940
REMARK INTER:                 -12.251
REMARK INTRA:                  -1.689
REMARK UNBOUND:                -1.689
REMARK  Name = 
REMARK  10 active torsions:
REMARK  status: ('A' for Active; 'I' for Inactive)
REMARK    1  A    between atoms: C_1  and  C_2
REMARK    2  A    between atoms: C_2  and  S_3
REMARK    3  A    between atoms: S_3  and  C_6
REMARK    4  A    between atoms: C_13  and  C_14
REMARK    5  A    between atoms: N_16  and  C_17
REMARK    6  A    between atoms: C_17  and  C_18
REMARK    7  A    between atoms: C_21  and  N_22
REMARK    8  A    between atoms: N_22  and  C_23
REMARK    9  A    between atoms: C_23  and  C_24
REMARK   10  A    between atoms: C_24  and  C_25
REMARK                            x       y       z     vdW  Elec       q    Type
REMARK                         _______ _______ _______ _____ _____    ______ ____
ROOT
ATOM      1  C   UNL     1      48.889   8.039  15.492  0.00  0.00    +0.000 C 
ATOM      2  O   UNL     1      49.757   8.715  14.948  0.00  0.00    +0.000 OA
ATOM      3  N   UNL     1      48.050   7.222  14.761  0.00  0.00    +0.000 N 
ATOM      4  H   UNL     1      47.682   6.430  15.262  0.00  0.00    +0.000 HD
ENDROOT
BRANCH   1  12
ATOM      5  C   UNL     1      48.885   5.942  18.396  0.00  0.00    +0.000 A 
ATOM      6  C   UNL     1      48.663   5.439  19.681  0.00  0.00    +0.000 A 
ATOM      7  N   UNL     1      48.258   6.172  20.730  0.00  0.00    +0.000 NA
ATOM      8  C   UNL     1      48.030   7.482  20.542  0.00  0.00    +0.000 A 
ATOM      9  C   UNL     1      48.204   8.055  19.273  0.00  0.00    +0.000 A 
ATOM     10  S   UNL     1      47.971   9.725  18.954  0.00  0.00    +0.000 S 
ATOM     11  C   UNL     1      48.358   9.522  17.328  0.00  0.00    +0.000 A 
ATOM     12  C   UNL     1      48.616   8.213  16.944  0.00  0.00    +0.000 A 
ATOM     13  C   UNL     1      48.597   7.318  18.134  0.00  0.00    +0.000 A 
BRANCH   5  14
ATOM     14  S   UNL     1      49.444   4.734  17.246  0.00  0.00    +0.000 S 
ATOM     15  O   UNL     1      50.789   5.115  16.856  0.00  0.00    +0.000 OA
ATOM     16  O   UNL     1      48.411   4.610  16.244  0.00  0.00    +0.000 OA
BRANCH  14  18
ATOM     17  C   UNL     1      49.890   2.101  17.012  0.00  0.00    +0.000 C 
ATOM     18  C   UNL     1      49.648   3.178  18.066  0.00  0.00    +0.000 C 
ENDBRANCH  14  18
ENDBRANCH   5  14
ENDBRANCH   1  12
BRANCH   3  19
ATOM     19  C   UNL     1      48.361   6.942  13.366  0.00  0.00    +0.000 C 
BRANCH  19  20
ATOM     20  C   UNL     1      47.244   6.185  12.689  0.00  0.00    +0.000 A 
ATOM     21  C   UNL     1      46.816   6.583  11.419  0.00  0.00    +0.000 A 
ATOM     22  C   UNL     1      45.730   5.958  10.795  0.00  0.00    +0.000 A 
ATOM     23  C   UNL     1      45.051   4.892  11.395  0.00  0.00    +0.000 A 
ATOM     24  C   UNL     1      45.489   4.491  12.666  0.00  0.00    +0.000 A 
ATOM     25  C   UNL     1      46.577   5.119  13.303  0.00  0.00    +0.000 A 
BRANCH  23  26
ATOM     26  N   UNL     1      43.898   4.316  10.838  0.00  0.00    +0.000 N 
ATOM     27  H   UNL     1      43.354   3.780  11.507  0.00  0.00    +0.000 HD
BRANCH  26  28
ATOM     28  C   UNL     1      44.004   3.721   9.498  0.00  0.00    +0.000 C 
BRANCH  28  29
ATOM     29  C   UNL     1      44.846   2.438   9.505  0.00  0.00    +0.000 C 
BRANCH  29  30
ATOM     30  C   UNL     1      45.782   2.390   8.317  0.00  0.00    +0.000 A 
ATOM     31  C   UNL     1      45.934   3.512   7.489  0.00  0.00    +0.000 A 
ATOM     32  C   UNL     1      46.770   3.464   6.370  0.00  0.00    +0.000 A 
ATOM     33  C   UNL     1      47.459   2.292   6.065  0.00  0.00    +0.000 A 
ATOM     34  C   UNL     1      47.312   1.168   6.876  0.00  0.00    +0.000 A 
ATOM     35  C   UNL     1      46.475   1.214   7.995  0.00  0.00    +0.000 A 
ENDBRANCH  29  30
ENDBRANCH  28  29
ENDBRANCH  26  28
ENDBRANCH  23  26
ENDBRANCH  19  20
ENDBRANCH   3  19
TORSDOF 9
ENDMDL
MODEL 2
REMARK VINA RESULT:    -7.616      1.996      2.976
REMARK INTER + INTRA:         -13.312
REMARK INTER:                 -11.890
REMARK INTRA:                  -1.422
REMARK UNBOUND:                -1.689
REMARK  Name = 
REMARK  10 active torsions:
REMARK  status: ('A' for Active; 'I' for Inactive)
REMARK    1  A    between atoms: C_1  and  C_2
REMARK    2  A    between atoms: C_2  and  S_3
REMARK    3  A    between atoms: S_3  and  C_6
REMARK    4  A    between atoms: C_13  and  C_14
REMARK    5  A    between atoms: N_16  and  C_17
REMARK    6  A    between atoms: C_17  and  C_18
REMARK    7  A    between atoms: C_21  and  N_22
REMARK    8  A    between atoms: N_22  and  C_23
REMARK    9  A    between atoms: C_23  and  C_24
REMARK   10  A    between atoms: C_24  and  C_25
REMARK                            x       y       z     vdW  Elec       q    Type
REMARK                         _______ _______ _______ _____ _____    ______ ____
ROOT
ATOM      1  C   UNL     1      49.263   7.605  15.201  0.00  0.00    +0.000 C 
ATOM      2  O   UNL     1      48.644   8.465  15.821  0.00  0.00    +0.000 OA
ATOM      3  N   UNL     1      48.694   6.940  14.132  0.00  0.00    +0.000 N 
ATOM      4  H   UNL     1      49.348   6.590  13.452  0.00  0.00    +0.000 HD
ENDROOT
BRANCH   1  12
ATOM      5  C   UNL     1      50.450   5.069  17.435  0.00  0.00    +0.000 A 
ATOM      6  C   UNL     1      51.253   4.314  18.295  0.00  0.00    +0.000 A 
ATOM      7  N   UNL     1      52.586   4.433  18.396  0.00  0.00    +0.000 NA
ATOM      8  C   UNL     1      53.205   5.348  17.633  0.00  0.00    +0.000 A 
ATOM      9  C   UNL     1      52.462   6.163  16.765  0.00  0.00    +0.000 A 
ATOM     10  S   UNL     1      53.176   7.330  15.729  0.00  0.00    +0.000 S 
ATOM     11  C   UNL     1      51.673   7.788  15.123  0.00  0.00    +0.000 A 
ATOM     12  C   UNL     1      50.587   7.143  15.697  0.00  0.00    +0.000 A 
ATOM     13  C   UNL     1      51.056   6.098  16.649  0.00  0.00    +0.000 A 
BRANCH   5  14
ATOM     14  S   UNL     1      48.742   4.656  17.512  0.00  0.00    +0.000 S 
ATOM     15  O   UNL     1      48.613   3.576  18.472  0.00  0.00    +0.000 OA
ATOM     16  O   UNL     1      48.302   4.464  16.150  0.00  0.00    +0.000 OA
BRANCH  14  18
ATOM     17  C   UNL     1      47.980   5.920  19.750  0.00  0.00    +0.000 C 
ATOM     18  C   UNL     1      47.835   5.995  18.233  0.00  0.00    +0.000 C 
ENDBRANCH  14  18
ENDBRANCH   5  14
ENDBRANCH   1  12
BRANCH   3  19
ATOM     19  C   UNL     1      47.456   7.443  13.554  0.00  0.00    +0.000 C 
BRANCH  19  20
ATOM     20  C   UNL     1      46.603   6.323  13.009  0.00  0.00    +0.000 A 
ATOM     21  C   UNL     1      46.540   5.109  13.701  0.00  0.00    +0.000 A 
ATOM     22  C   UNL     1      45.826   4.022  13.185  0.00  0.00    +0.000 A 
ATOM     23  C   UNL     1      45.119   4.111  11.981  0.00  0.00    +0.000 A 
ATOM     24  C   UNL     1      45.178   5.333  11.294  0.00  0.00    +0.000 A 
ATOM     25  C   UNL     1      45.900   6.430  11.804  0.00  0.00    +0.000 A 
BRANCH  23  26
ATOM     26  N   UNL     1      44.480   3.008  11.392  0.00  0.00    +0.000 N 
ATOM     27  H   UNL     1      44.844   2.115  11.712  0.00  0.00    +0.000 HD
BRANCH  26  28
ATOM     28  C   UNL     1      44.167   3.077   9.958  0.00  0.00    +0.000 C 
BRANCH  28  29
ATOM     29  C   UNL     1      44.599   1.806   9.214  0.00  0.00    +0.000 C 
BRANCH  29  30
ATOM     30  C   UNL     1      45.694   2.103   8.212  0.00  0.00    +0.000 A 
ATOM     31  C   UNL     1      46.612   1.105   7.850  0.00  0.00    +0.000 A 
ATOM     32  C   UNL     1      47.647   1.382   6.952  0.00  0.00    +0.000 A 
ATOM     33  C   UNL     1      47.776   2.658   6.410  0.00  0.00    +0.000 A 
ATOM     34  C   UNL     1      46.874   3.660   6.766  0.00  0.00    +0.000 A 
ATOM     35  C   UNL     1      45.840   3.385   7.665  0.00  0.00    +0.000 A 
ENDBRANCH  29  30
ENDBRANCH  28  29
ENDBRANCH  26  28
ENDBRANCH  23  26
ENDBRANCH  19  20
ENDBRANCH   3  19
TORSDOF 9
ENDMDL
MODEL 3
REMARK VINA RESULT:    -7.451      2.144      2.721
REMARK INTER + INTRA:         -13.060
REMARK INTER:                 -11.622
REMARK INTRA:                  -1.438
REMARK UNBOUND:                -1.689
REMARK  Name = 
REMARK  10 active torsions:
REMARK  status: ('A' for Active; 'I' for Inactive)
REMARK    1  A    between atoms: C_1  and  C_2
REMARK    2  A    between atoms: C_2  and  S_3
REMARK    3  A    between atoms: S_3  and  C_6
REMARK    4  A    between atoms: C_13  and  C_14
REMARK    5  A    between atoms: N_16  and  C_17
REMARK    6  A    between atoms: C_17  and  C_18
REMARK    7  A    between atoms: C_21  and  N_22
REMARK    8  A    between atoms: N_22  and  C_23
REMARK    9  A    between atoms: C_23  and  C_24
REMARK   10  A    between atoms: C_24  and  C_25
REMARK                            x       y       z     vdW  Elec       q    Type
REMARK                         _______ _______ _______ _____ _____    ______ ____
ROOT
ATOM      1  C   UNL     1      49.818   7.797  15.292  0.00  0.00    +0.000 C 
ATOM      2  O   UNL     1      49.301   8.719  15.917  0.00  0.00    +0.000 OA
ATOM      3  N   UNL     1      49.173   7.202  14.225  0.00  0.00    +0.000 N 
ATOM      4  H   UNL     1      49.781   6.784  13.540  0.00  0.00    +0.000 HD
ENDROOT
BRANCH   1  12
ATOM      5  C   UNL     1      50.734   5.138  17.509  0.00  0.00    +0.000 A 
ATOM      6  C   UNL     1      51.455   4.296  18.361  0.00  0.00    +0.000 A 
ATOM      7  N   UNL     1      52.793   4.268  18.455  0.00  0.00    +0.000 NA
ATOM      8  C   UNL     1      53.503   5.115  17.692  0.00  0.00    +0.000 A 
ATOM      9  C   UNL     1      52.849   6.010  16.831  0.00  0.00    +0.000 A 
ATOM     10  S   UNL     1      53.680   7.097  15.797  0.00  0.00    +0.000 S 
ATOM     11  C   UNL     1      52.233   7.718  15.200  0.00  0.00    +0.000 A 
ATOM     12  C   UNL     1      51.086   7.192  15.778  0.00  0.00    +0.000 A 
ATOM     13  C   UNL     1      51.444   6.098  16.723  0.00  0.00    +0.000 A 
BRANCH   5  14
ATOM     14  S   UNL     1      48.991   4.912  17.594  0.00  0.00    +0.000 S 
ATOM     15  O   UNL     1      48.514   4.800  16.228  0.00  0.00    +0.000 OA
ATOM     16  O   UNL     1      48.482   5.958  18.450  0.00  0.00    +0.000 OA
BRANCH  14  18
ATOM     17  C   UNL     1      47.416   2.743  17.605  0.00  0.00    +0.000 C 
ATOM     18  C   UNL     1      48.627   3.339  18.318  0.00  0.00    +0.000 C 
ENDBRANCH  14  18
ENDBRANCH   5  14
ENDBRANCH   1  12
BRANCH   3  19
ATOM     19  C   UNL     1      47.994   7.839  13.656  0.00  0.00    +0.000 C 
BRANCH  19  20
ATOM     20  C   UNL     1      47.107   6.838  12.955  0.00  0.00    +0.000 A 
ATOM     21  C   UNL     1      46.711   7.078  11.636  0.00  0.00    +0.000 A 
ATOM     22  C   UNL     1      45.823   6.215  10.982  0.00  0.00    +0.000 A 
ATOM     23  C   UNL     1      45.324   5.065  11.602  0.00  0.00    +0.000 A 
ATOM     24  C   UNL     1      45.730   4.824  12.923  0.00  0.00    +0.000 A 
ATOM     25  C   UNL     1      46.618   5.691  13.590  0.00  0.00    +0.000 A 
BRANCH  23  26
ATOM     26  N   UNL     1      44.356   4.240  11.006  0.00  0.00    +0.000 N 
ATOM     27  H   UNL     1      43.425   4.375  11.387  0.00  0.00    +0.000 HD
BRANCH  26  28
ATOM     28  C   UNL     1      44.720   2.844  10.724  0.00  0.00    +0.000 C 
BRANCH  28  29
ATOM     29  C   UNL     1      44.330   2.427   9.299  0.00  0.00    +0.000 C 
BRANCH  29  30
ATOM     30  C   UNL     1      45.534   2.418   8.381  0.00  0.00    +0.000 A 
ATOM     31  C   UNL     1      45.918   3.585   7.704  0.00  0.00    +0.000 A 
ATOM     32  C   UNL     1      47.006   3.575   6.829  0.00  0.00    +0.000 A 
ATOM     33  C   UNL     1      47.721   2.398   6.618  0.00  0.00    +0.000 A 
ATOM     34  C   UNL     1      47.346   1.230   7.280  0.00  0.00    +0.000 A 
ATOM     35  C   UNL     1      46.256   1.238   8.155  0.00  0.00    +0.000 A 
ENDBRANCH  29  30
ENDBRANCH  28  29
ENDBRANCH  26  28
ENDBRANCH  23  26
ENDBRANCH  19  20
ENDBRANCH   3  19
TORSDOF 9
ENDMDL
MODEL 4
REMARK VINA RESULT:    -7.356      1.466      3.120
REMARK INTER + INTRA:         -12.916
REMARK INTER:                 -11.284
REMARK INTRA:                  -1.632
REMARK UNBOUND:                -1.689
REMARK  Name = 
REMARK  10 active torsions:
REMARK  status: ('A' for Active; 'I' for Inactive)
REMARK    1  A    between atoms: C_1  and  C_2
REMARK    2  A    between atoms: C_2  and  S_3
REMARK    3  A    between atoms: S_3  and  C_6
REMARK    4  A    between atoms: C_13  and  C_14
REMARK    5  A    between atoms: N_16  and  C_17
REMARK    6  A    between atoms: C_17  and  C_18
REMARK    7  A    between atoms: C_21  and  N_22
REMARK    8  A    between atoms: N_22  and  C_23
REMARK    9  A    between atoms: C_23  and  C_24
REMARK   10  A    between atoms: C_24  and  C_25
REMARK                            x       y       z     vdW  Elec       q    Type
REMARK                         _______ _______ _______ _____ _____    ______ ____
ROOT
ATOM      1  C   UNL     1      49.143   6.352  16.214  0.00  0.00    +0.000 C 
ATOM      2  O   UNL     1      50.283   6.139  15.810  0.00  0.00    +0.000 OA
ATOM      3  N   UNL     1      48.143   6.765  15.356  0.00  0.00    +0.000 N 
ATOM      4  H   UNL     1      47.209   6.520  15.642  0.00  0.00    +0.000 HD
ENDROOT
BRANCH   1  12
ATOM      5  C   UNL     1      48.591   8.782  18.787  0.00  0.00    +0.000 A 
ATOM      6  C   UNL     1      48.458   9.404  20.031  0.00  0.00    +0.000 A 
ATOM      7  N   UNL     1      48.315   8.757  21.198  0.00  0.00    +0.000 NA
ATOM      8  C   UNL     1      48.312   7.414  21.186  0.00  0.00    +0.000 A 
ATOM      9  C   UNL     1      48.468   6.718  19.978  0.00  0.00    +0.000 A 
ATOM     10  S   UNL     1      48.438   5.006  19.868  0.00  0.00    +0.000 S 
ATOM     11  C   UNL     1      48.686   5.055  18.204  0.00  0.00    +0.000 A 
ATOM     12  C   UNL     1      48.857   6.326  17.673  0.00  0.00    +0.000 A 
ATOM     13  C   UNL     1      48.655   7.355  18.731  0.00  0.00    +0.000 A 
BRANCH   5  14
ATOM     14  S   UNL     1      48.729   9.906  17.440  0.00  0.00    +0.000 S 
ATOM     15  O   UNL     1      48.696  11.243  18.003  0.00  0.00    +0.000 OA
ATOM     16  O   UNL     1      47.737   9.509  16.469  0.00  0.00    +0.000 OA
BRANCH  14  18
ATOM     17  C   UNL     1      51.374   9.719  17.834  0.00  0.00    +0.000 C 
ATOM     18  C   UNL     1      50.339   9.774  16.715  0.00  0.00    +0.000 C 
ENDBRANCH  14  18
ENDBRANCH   5  14
ENDBRANCH   1  12
BRANCH   3  19
ATOM     19  C   UNL     1      48.357   6.689  13.918  0.00  0.00    +0.000 C 
BRANCH  19  20
ATOM     20  C   UNL     1      47.168   6.084  13.211  0.00  0.00    +0.000 A 
ATOM     21  C   UNL     1      46.501   5.001  13.793  0.00  0.00    +0.000 A 
ATOM     22  C   UNL     1      45.448   4.363  13.129  0.00  0.00    +0.000 A 
ATOM     23  C   UNL     1      44.995   4.798  11.878  0.00  0.00    +0.000 A 
ATOM     24  C   UNL     1      45.661   5.890  11.302  0.00  0.00    +0.000 A 
ATOM     25  C   UNL     1      46.727   6.534  11.961  0.00  0.00    +0.000 A 
BRANCH  23  26
ATOM     26  N   UNL     1      44.010   4.114  11.148  0.00  0.00    +0.000 N 
ATOM     27  H   UNL     1      43.609   3.329  11.652  0.00  0.00    +0.000 HD
BRANCH  26  28
ATOM     28  C   UNL     1      44.250   3.881   9.717  0.00  0.00    +0.000 C 
BRANCH  28  29
ATOM     29  C   UNL     1      44.707   2.442   9.439  0.00  0.00    +0.000 C 
BRANCH  29  30
ATOM     30  C   UNL     1      45.697   2.393   8.294  0.00  0.00    +0.000 A 
ATOM     31  C   UNL     1      45.889   3.515   7.475  0.00  0.00    +0.000 A 
ATOM     32  C   UNL     1      46.775   3.466   6.396  0.00  0.00    +0.000 A 
ATOM     33  C   UNL     1      47.474   2.292   6.121  0.00  0.00    +0.000 A 
ATOM     34  C   UNL     1      47.287   1.168   6.924  0.00  0.00    +0.000 A 
ATOM     35  C   UNL     1      46.400   1.216   8.004  0.00  0.00    +0.000 A 
ENDBRANCH  29  30
ENDBRANCH  28  29
ENDBRANCH  26  28
ENDBRANCH  23  26
ENDBRANCH  19  20
ENDBRANCH   3  19
TORSDOF 9
ENDMDL
MODEL 5
REMARK VINA RESULT:    -7.008      1.803      3.309
REMARK INTER + INTRA:         -12.384
REMARK INTER:                 -11.176
REMARK INTRA:                  -1.208
REMARK UNBOUND:                -1.689
REMARK  Name = 
REMARK  10 active torsions:
REMARK  status: ('A' for Active; 'I' for Inactive)
REMARK    1  A    between atoms: C_1  and  C_2
REMARK    2  A    between atoms: C_2  and  S_3
REMARK    3  A    between atoms: S_3  and  C_6
REMARK    4  A    between atoms: C_13  and  C_14
REMARK    5  A    between atoms: N_16  and  C_17
REMARK    6  A    between atoms: C_17  and  C_18
REMARK    7  A    between atoms: C_21  and  N_22
REMARK    8  A    between atoms: N_22  and  C_23
REMARK    9  A    between atoms: C_23  and  C_24
REMARK   10  A    between atoms: C_24  and  C_25
REMARK                            x       y       z     vdW  Elec       q    Type
REMARK                         _______ _______ _______ _____ _____    ______ ____
ROOT
ATOM      1  C   UNL     1      48.710   6.867  14.890  0.00  0.00    +0.000 C 
ATOM      2  O   UNL     1      49.571   6.720  14.027  0.00  0.00    +0.000 OA
ATOM      3  N   UNL     1      47.559   7.589  14.641  0.00  0.00    +0.000 N 
ATOM      4  H   UNL     1      46.763   7.327  15.198  0.00  0.00    +0.000 HD
ENDROOT
BRANCH   1  12
ATOM      5  C   UNL     1      50.378   8.164  17.782  0.00  0.00    +0.000 A 
ATOM      6  C   UNL     1      51.011   8.273  19.023  0.00  0.00    +0.000 A 
ATOM      7  N   UNL     1      50.968   7.342  19.988  0.00  0.00    +0.000 NA
ATOM      8  C   UNL     1      50.282   6.212  19.752  0.00  0.00    +0.000 A 
ATOM      9  C   UNL     1      49.642   6.017  18.518  0.00  0.00    +0.000 A 
ATOM     10  S   UNL     1      48.715   4.621  18.149  0.00  0.00    +0.000 S 
ATOM     11  C   UNL     1      48.370   5.195  16.604  0.00  0.00    +0.000 A 
ATOM     12  C   UNL     1      48.967   6.405  16.280  0.00  0.00    +0.000 A 
ATOM     13  C   UNL     1      49.687   6.954  17.462  0.00  0.00    +0.000 A 
BRANCH   5  14
ATOM     14  S   UNL     1      50.597   9.569  16.745  0.00  0.00    +0.000 S 
ATOM     15  O   UNL     1      51.208   9.095  15.517  0.00  0.00    +0.000 OA
ATOM     16  O   UNL     1      51.269  10.569  17.543  0.00  0.00    +0.000 OA
BRANCH  14  18
ATOM     17  C   UNL     1      48.319  10.788  17.458  0.00  0.00    +0.000 C 
ATOM     18  C   UNL     1      49.019  10.192  16.240  0.00  0.00    +0.000 C 
ENDBRANCH  14  18
ENDBRANCH   5  14
ENDBRANCH   1  12
BRANCH   3  19
ATOM     19  C   UNL     1      47.225   7.953  13.271  0.00  0.00    +0.000 C 
BRANCH  19  20
ATOM     20  C   UNL     1      46.186   7.026  12.688  0.00  0.00    +0.000 A 
ATOM     21  C   UNL     1      46.328   5.645  12.854  0.00  0.00    +0.000 A 
ATOM     22  C   UNL     1      45.430   4.752  12.259  0.00  0.00    +0.000 A 
ATOM     23  C   UNL     1      44.339   5.198  11.505  0.00  0.00    +0.000 A 
ATOM     24  C   UNL     1      44.196   6.585  11.348  0.00  0.00    +0.000 A 
ATOM     25  C   UNL     1      45.099   7.491  11.939  0.00  0.00    +0.000 A 
BRANCH  23  26
ATOM     26  N   UNL     1      43.484   4.324  10.815  0.00  0.00    +0.000 N 
ATOM     27  H   UNL     1      42.738   3.951  11.395  0.00  0.00    +0.000 HD
BRANCH  26  28
ATOM     28  C   UNL     1      44.087   3.365   9.880  0.00  0.00    +0.000 C 
BRANCH  28  29
ATOM     29  C   UNL     1      44.791   4.067   8.711  0.00  0.00    +0.000 C 
BRANCH  29  30
ATOM     30  C   UNL     1      45.739   3.129   7.997  0.00  0.00    +0.000 A 
ATOM     31  C   UNL     1      46.429   3.555   6.852  0.00  0.00    +0.000 A 
ATOM     32  C   UNL     1      47.280   2.683   6.167  0.00  0.00    +0.000 A 
ATOM     33  C   UNL     1      47.446   1.375   6.617  0.00  0.00    +0.000 A 
ATOM     34  C   UNL     1      46.761   0.937   7.750  0.00  0.00    +0.000 A 
ATOM     35  C   UNL     1      45.909   1.808   8.435  0.00  0.00    +0.000 A 
ENDBRANCH  29  30
ENDBRANCH  28  29
ENDBRANCH  26  28
ENDBRANCH  23  26
ENDBRANCH  19  20
ENDBRANCH   3  19
TORSDOF 9
ENDMDL
MODEL 6
REMARK VINA RESULT:    -6.731      2.447      3.584
REMARK INTER + INTRA:         -11.962
REMARK INTER:                 -10.450
REMARK INTRA:                  -1.512
REMARK UNBOUND:                -1.689
REMARK  Name = 
REMARK  10 active torsions:
REMARK  status: ('A' for Active; 'I' for Inactive)
REMARK    1  A    between atoms: C_1  and  C_2
REMARK    2  A    between atoms: C_2  and  S_3
REMARK    3  A    between atoms: S_3  and  C_6
REMARK    4  A    between atoms: C_13  and  C_14
REMARK    5  A    between atoms: N_16  and  C_17
REMARK    6  A    between atoms: C_17  and  C_18
REMARK    7  A    between atoms: C_21  and  N_22
REMARK    8  A    between atoms: N_22  and  C_23
REMARK    9  A    between atoms: C_23  and  C_24
REMARK   10  A    between atoms: C_24  and  C_25
REMARK                            x       y       z     vdW  Elec       q    Type
REMARK                         _______ _______ _______ _____ _____    ______ ____
ROOT
ATOM      1  C   UNL     1      49.026   8.800  13.759  0.00  0.00    +0.000 C 
ATOM      2  O   UNL     1      48.558   9.861  14.161  0.00  0.00    +0.000 OA
ATOM      3  N   UNL     1      48.210   7.777  13.315  0.00  0.00    +0.000 N 
ATOM      4  H   UNL     1      48.633   7.155  12.646  0.00  0.00    +0.000 HD
ENDROOT
BRANCH   1  12
ATOM      5  C   UNL     1      51.111   6.871  15.941  0.00  0.00    +0.000 A 
ATOM      6  C   UNL     1      52.215   6.365  16.632  0.00  0.00    +0.000 A 
ATOM      7  N   UNL     1      53.495   6.581  16.291  0.00  0.00    +0.000 NA
ATOM      8  C   UNL     1      53.748   7.349  15.219  0.00  0.00    +0.000 A 
ATOM      9  C   UNL     1      52.692   7.915  14.490  0.00  0.00    +0.000 A 
ATOM     10  S   UNL     1      52.926   8.876  13.087  0.00  0.00    +0.000 S 
ATOM     11  C   UNL     1      51.268   9.104  12.904  0.00  0.00    +0.000 A 
ATOM     12  C   UNL     1      50.482   8.533  13.895  0.00  0.00    +0.000 A 
ATOM     13  C   UNL     1      51.332   7.743  14.830  0.00  0.00    +0.000 A 
BRANCH   5  14
ATOM     14  S   UNL     1      49.563   6.383  16.619  0.00  0.00    +0.000 S 
ATOM     15  O   UNL     1      49.851   5.576  17.789  0.00  0.00    +0.000 OA
ATOM     16  O   UNL     1      48.794   5.824  15.531  0.00  0.00    +0.000 OA
BRANCH  14  18
ATOM     17  C   UNL     1      49.440   8.269  18.519  0.00  0.00    +0.000 C 
ATOM     18  C   UNL     1      48.718   7.800  17.259  0.00  0.00    +0.000 C 
ENDBRANCH  14  18
ENDBRANCH   5  14
ENDBRANCH   1  12
BRANCH   3  19
ATOM     19  C   UNL     1      46.802   8.044  13.062  0.00  0.00    +0.000 C 
BRANCH  19  20
ATOM     20  C   UNL     1      46.085   6.814  12.559  0.00  0.00    +0.000 A 
ATOM     21  C   UNL     1      45.295   6.902  11.409  0.00  0.00    +0.000 A 
ATOM     22  C   UNL     1      44.551   5.805  10.960  0.00  0.00    +0.000 A 
ATOM     23  C   UNL     1      44.592   4.570  11.616  0.00  0.00    +0.000 A 
ATOM     24  C   UNL     1      45.393   4.484  12.765  0.00  0.00    +0.000 A 
ATOM     25  C   UNL     1      46.139   5.586  13.227  0.00  0.00    +0.000 A 
BRANCH  23  26
ATOM     26  N   UNL     1      43.780   3.486  11.246  0.00  0.00    +0.000 N 
ATOM     27  H   UNL     1      43.285   3.070  12.029  0.00  0.00    +0.000 HD
BRANCH  26  28
ATOM     28  C   UNL     1      44.310   2.531  10.263  0.00  0.00    +0.000 C 
BRANCH  28  29
ATOM     29  C   UNL     1      44.329   3.118   8.845  0.00  0.00    +0.000 C 
BRANCH  29  30
ATOM     30  C   UNL     1      45.577   2.702   8.096  0.00  0.00    +0.000 A 
ATOM     31  C   UNL     1      46.058   1.388   8.196  0.00  0.00    +0.000 A 
ATOM     32  C   UNL     1      47.229   1.005   7.536  0.00  0.00    +0.000 A 
ATOM     33  C   UNL     1      47.932   1.934   6.771  0.00  0.00    +0.000 A 
ATOM     34  C   UNL     1      47.468   3.244   6.668  0.00  0.00    +0.000 A 
ATOM     35  C   UNL     1      46.298   3.628   7.330  0.00  0.00    +0.000 A 
ENDBRANCH  29  30
ENDBRANCH  28  29
ENDBRANCH  26  28
ENDBRANCH  23  26
ENDBRANCH  19  20
ENDBRANCH   3  19
TORSDOF 9
ENDMDL
MODEL 7
REMARK VINA RESULT:    -6.728      2.715      4.350
REMARK INTER + INTRA:         -11.957
REMARK INTER:                 -10.334
REMARK INTRA:                  -1.623
REMARK UNBOUND:                -1.689
REMARK  Name = 
REMARK  10 active torsions:
REMARK  status: ('A' for Active; 'I' for Inactive)
REMARK    1  A    between atoms: C_1  and  C_2
REMARK    2  A    between atoms: C_2  and  S_3
REMARK    3  A    between atoms: S_3  and  C_6
REMARK    4  A    between atoms: C_13  and  C_14
REMARK    5  A    between atoms: N_16  and  C_17
REMARK    6  A    between atoms: C_17  and  C_18
REMARK    7  A    between atoms: C_21  and  N_22
REMARK    8  A    between atoms: N_22  and  C_23
REMARK    9  A    between atoms: C_23  and  C_24
REMARK   10  A    between atoms: C_24  and  C_25
REMARK                            x       y       z     vdW  Elec       q    Type
REMARK                         _______ _______ _______ _____ _____    ______ ____
ROOT
ATOM      1  C   UNL     1      48.870   7.922  15.110  0.00  0.00    +0.000 C 
ATOM      2  O   UNL     1      48.183   8.724  15.736  0.00  0.00    +0.000 OA
ATOM      3  N   UNL     1      48.522   7.518  13.836  0.00  0.00    +0.000 N 
ATOM      4  H   UNL     1      49.292   7.223  13.257  0.00  0.00    +0.000 HD
ENDROOT
BRANCH   1  12
ATOM      5  C   UNL     1      52.437   7.925  14.788  0.00  0.00    +0.000 A 
ATOM      6  C   UNL     1      53.788   7.576  14.880  0.00  0.00    +0.000 A 
ATOM      7  N   UNL     1      54.290   6.680  15.744  0.00  0.00    +0.000 NA
ATOM      8  C   UNL     1      53.442   6.054  16.576  0.00  0.00    +0.000 A 
ATOM      9  C   UNL     1      52.068   6.331  16.526  0.00  0.00    +0.000 A 
ATOM     10  S   UNL     1      50.922   5.605  17.577  0.00  0.00    +0.000 S 
ATOM     11  C   UNL     1      49.652   6.442  16.856  0.00  0.00    +0.000 A 
ATOM     12  C   UNL     1      50.011   7.242  15.780  0.00  0.00    +0.000 A 
ATOM     13  C   UNL     1      51.490   7.241  15.612  0.00  0.00    +0.000 A 
BRANCH   5  14
ATOM     14  S   UNL     1      52.101   9.155  13.577  0.00  0.00    +0.000 S 
ATOM     15  O   UNL     1      51.140   8.584  12.652  0.00  0.00    +0.000 OA
ATOM     16  O   UNL     1      53.381   9.616  13.092  0.00  0.00    +0.000 OA
BRANCH  14  18
ATOM     17  C   UNL     1      50.130  10.961  13.379  0.00  0.00    +0.000 C 
ATOM     18  C   UNL     1      51.240  10.510  14.324  0.00  0.00    +0.000 C 
ENDBRANCH  14  18
ENDBRANCH   5  14
ENDBRANCH   1  12
BRANCH   3  19
ATOM     19  C   UNL     1      47.487   8.243  13.113  0.00  0.00    +0.000 C 
BRANCH  19  20
ATOM     20  C   UNL     1      46.419   7.313  12.591  0.00  0.00    +0.000 A 
ATOM     21  C   UNL     1      46.626   5.931  12.645  0.00  0.00    +0.000 A 
ATOM     22  C   UNL     1      45.696   5.041  12.097  0.00  0.00    +0.000 A 
ATOM     23  C   UNL     1      44.509   5.489  11.506  0.00  0.00    +0.000 A 
ATOM     24  C   UNL     1      44.302   6.876  11.461  0.00  0.00    +0.000 A 
ATOM     25  C   UNL     1      45.237   7.778  12.005  0.00  0.00    +0.000 A 
BRANCH  23  26
ATOM     26  N   UNL     1      43.609   4.625  10.860  0.00  0.00    +0.000 N 
ATOM     27  H   UNL     1      43.232   3.908  11.472  0.00  0.00    +0.000 HD
BRANCH  26  28
ATOM     28  C   UNL     1      43.940   4.176   9.500  0.00  0.00    +0.000 C 
BRANCH  28  29
ATOM     29  C   UNL     1      44.461   2.733   9.484  0.00  0.00    +0.000 C 
BRANCH  29  30
ATOM     30  C   UNL     1      45.477   2.529   8.380  0.00  0.00    +0.000 A 
ATOM     31  C   UNL     1      46.154   1.306   8.258  0.00  0.00    +0.000 A 
ATOM     32  C   UNL     1      47.118   1.122   7.263  0.00  0.00    +0.000 A 
ATOM     33  C   UNL     1      47.417   2.159   6.382  0.00  0.00    +0.000 A 
ATOM     34  C   UNL     1      46.755   3.381   6.497  0.00  0.00    +0.000 A 
ATOM     35  C   UNL     1      45.792   3.567   7.493  0.00  0.00    +0.000 A 
ENDBRANCH  29  30
ENDBRANCH  28  29
ENDBRANCH  26  28
ENDBRANCH  23  26
ENDBRANCH  19  20
ENDBRANCH   3  19
TORSDOF 9
ENDMDL
MODEL 8
REMARK VINA RESULT:    -6.678      3.301      5.054
REMARK INTER + INTRA:         -11.880
REMARK INTER:                 -10.160
REMARK INTRA:                  -1.720
REMARK UNBOUND:                -1.689
REMARK  Name = 
REMARK  10 active torsions:
REMARK  status: ('A' for Active; 'I' for Inactive)
REMARK    1  A    between atoms: C_1  and  C_2
REMARK    2  A    between atoms: C_2  and  S_3
REMARK    3  A    between atoms: S_3  and  C_6
REMARK    4  A    between atoms: C_13  and  C_14
REMARK    5  A    between atoms: N_16  and  C_17
REMARK    6  A    between atoms: C_17  and  C_18
REMARK    7  A    between atoms: C_21  and  N_22
REMARK    8  A    between atoms: N_22  and  C_23
REMARK    9  A    between atoms: C_23  and  C_24
REMARK   10  A    between atoms: C_24  and  C_25
REMARK                            x       y       z     vdW  Elec       q    Type
REMARK                         _______ _______ _______ _____ _____    ______ ____
ROOT
ATOM      1  C   UNL     1      49.272   8.751  14.522  0.00  0.00    +0.000 C 
ATOM      2  O   UNL     1      48.625   9.682  14.993  0.00  0.00    +0.000 OA
ATOM      3  N   UNL     1      48.659   7.735  13.815  0.00  0.00    +0.000 N 
ATOM      4  H   UNL     1      49.245   7.273  13.139  0.00  0.00    +0.000 HD
ENDROOT
BRANCH   1  12
ATOM      5  C   UNL     1      52.332   8.526  12.674  0.00  0.00    +0.000 A 
ATOM      6  C   UNL     1      53.663   8.295  12.315  0.00  0.00    +0.000 A 
ATOM      7  N   UNL     1      54.668   8.111  13.185  0.00  0.00    +0.000 NA
ATOM      8  C   UNL     1      54.386   8.132  14.498  0.00  0.00    +0.000 A 
ATOM      9  C   UNL     1      53.068   8.332  14.936  0.00  0.00    +0.000 A 
ATOM     10  S   UNL     1      52.628   8.410  16.592  0.00  0.00    +0.000 S 
ATOM     11  C   UNL     1      51.006   8.642  16.205  0.00  0.00    +0.000 A 
ATOM     12  C   UNL     1      50.716   8.613  14.847  0.00  0.00    +0.000 A 
ATOM     13  C   UNL     1      51.974   8.497  14.058  0.00  0.00    +0.000 A 
BRANCH   5  14
ATOM     14  S   UNL     1      51.256   8.761  11.302  0.00  0.00    +0.000 S 
ATOM     15  O   UNL     1      50.239   7.730  11.383  0.00  0.00    +0.000 OA
ATOM     16  O   UNL     1      52.096   8.853  10.131  0.00  0.00    +0.000 OA
BRANCH  14  18
ATOM     17  C   UNL     1      51.308  11.331  12.061  0.00  0.00    +0.000 C 
ATOM     18  C   UNL     1      50.361  10.276  11.496  0.00  0.00    +0.000 C 
ENDBRANCH  14  18
ENDBRANCH   5  14
ENDBRANCH   1  12
BRANCH   3  19
ATOM     19  C   UNL     1      47.278   7.896  13.384  0.00  0.00    +0.000 C 
BRANCH  19  20
ATOM     20  C   UNL     1      46.701   6.598  12.871  0.00  0.00    +0.000 A 
ATOM     21  C   UNL     1      46.060   6.576  11.629  0.00  0.00    +0.000 A 
ATOM     22  C   UNL     1      45.442   5.411  11.158  0.00  0.00    +0.000 A 
ATOM     23  C   UNL     1      45.470   4.217  11.887  0.00  0.00    +0.000 A 
ATOM     24  C   UNL     1      46.122   4.243  13.129  0.00  0.00    +0.000 A 
ATOM     25  C   UNL     1      46.741   5.412  13.612  0.00  0.00    +0.000 A 
BRANCH  23  26
ATOM     26  N   UNL     1      44.773   3.066  11.485  0.00  0.00    +0.000 N 
ATOM     27  H   UNL     1      45.275   2.205  11.682  0.00  0.00    +0.000 HD
BRANCH  26  28
ATOM     28  C   UNL     1      44.073   3.099  10.194  0.00  0.00    +0.000 C 
BRANCH  28  29
ATOM     29  C   UNL     1      44.406   1.877   9.328  0.00  0.00    +0.000 C 
BRANCH  29  30
ATOM     30  C   UNL     1      45.548   2.171   8.380  0.00  0.00    +0.000 A 
ATOM     31  C   UNL     1      46.410   1.143   7.968  0.00  0.00    +0.000 A 
ATOM     32  C   UNL     1      47.487   1.413   7.121  0.00  0.00    +0.000 A 
ATOM     33  C   UNL     1      47.717   2.714   6.679  0.00  0.00    +0.000 A 
ATOM     34  C   UNL     1      46.872   3.745   7.085  0.00  0.00    +0.000 A 
ATOM     35  C   UNL     1      45.794   3.477   7.934  0.00  0.00    +0.000 A 
ENDBRANCH  29  30
ENDBRANCH  28  29
ENDBRANCH  26  28
ENDBRANCH  23  26
ENDBRANCH  19  20
ENDBRANCH   3  19
TORSDOF 9
ENDMDL
MODEL 9
REMARK VINA RESULT:    -6.600      3.255      9.572
REMARK INTER + INTRA:         -11.762
REMARK INTER:                 -10.053
REMARK INTRA:                  -1.709
REMARK UNBOUND:                -1.689
REMARK  Name = 
REMARK  10 active torsions:
REMARK  status: ('A' for Active; 'I' for Inactive)
REMARK    1  A    between atoms: C_1  and  C_2
REMARK    2  A    between atoms: C_2  and  S_3
REMARK    3  A    between atoms: S_3  and  C_6
REMARK    4  A    between atoms: C_13  and  C_14
REMARK    5  A    between atoms: N_16  and  C_17
REMARK    6  A    between atoms: C_17  and  C_18
REMARK    7  A    between atoms: C_21  and  N_22
REMARK    8  A    between atoms: N_22  and  C_23
REMARK    9  A    between atoms: C_23  and  C_24
REMARK   10  A    between atoms: C_24  and  C_25
REMARK                            x       y       z     vdW  Elec       q    Type
REMARK                         _______ _______ _______ _____ _____    ______ ____
ROOT
ATOM      1  C   UNL     1      47.463   6.042  13.475  0.00  0.00    +0.000 C 
ATOM      2  O   UNL     1      48.353   5.422  12.901  0.00  0.00    +0.000 OA
ATOM      3  N   UNL     1      46.640   5.429  14.399  0.00  0.00    +0.000 N 
ATOM      4  H   UNL     1      46.250   6.042  15.096  0.00  0.00    +0.000 HD
ENDROOT
BRANCH   1  12
ATOM      5  C   UNL     1      44.748   7.700  11.828  0.00  0.00    +0.000 A 
ATOM      6  C   UNL     1      43.977   8.640  11.137  0.00  0.00    +0.000 A 
ATOM      7  N   UNL     1      44.305   9.931  10.981  0.00  0.00    +0.000 NA
ATOM      8  C   UNL     1      45.463  10.363  11.507  0.00  0.00    +0.000 A 
ATOM      9  C   UNL     1      46.304   9.473  12.192  0.00  0.00    +0.000 A 
ATOM     10  S   UNL     1      47.780   9.949  12.927  0.00  0.00    +0.000 S 
ATOM     11  C   UNL     1      48.085   8.379  13.453  0.00  0.00    +0.000 A 
ATOM     12  C   UNL     1      47.146   7.435  13.061  0.00  0.00    +0.000 A 
ATOM     13  C   UNL     1      46.017   8.100  12.353  0.00  0.00    +0.000 A 
BRANCH   5  14
ATOM     14  S   UNL     1      44.031   6.095  11.885  0.00  0.00    +0.000 S 
ATOM     15  O   UNL     1      42.793   6.160  11.131  0.00  0.00    +0.000 OA
ATOM     16  O   UNL     1      44.007   5.704  13.276  0.00  0.00    +0.000 OA
BRANCH  14  18
ATOM     17  C   UNL     1      44.159   3.812  10.487  0.00  0.00    +0.000 C 
ATOM     18  C   UNL     1      45.039   4.958  10.978  0.00  0.00    +0.000 C 
ENDBRANCH  14  18
ENDBRANCH   5  14
ENDBRANCH   1  12
BRANCH   3  19
ATOM     19  C   UNL     1      46.993   4.111  14.907  0.00  0.00    +0.000 C 
BRANCH  19  20
ATOM     20  C   UNL     1      47.638   4.195  16.269  0.00  0.00    +0.000 A 
ATOM     21  C   UNL     1      48.464   5.282  16.571  0.00  0.00    +0.000 A 
ATOM     22  C   UNL     1      49.144   5.352  17.792  0.00  0.00    +0.000 A 
ATOM     23  C   UNL     1      49.001   4.364  18.772  0.00  0.00    +0.000 A 
ATOM     24  C   UNL     1      48.165   3.279  18.468  0.00  0.00    +0.000 A 
ATOM     25  C   UNL     1      47.482   3.198  17.238  0.00  0.00    +0.000 A 
BRANCH  23  26
ATOM     26  N   UNL     1      49.748   4.359  19.961  0.00  0.00    +0.000 N 
ATOM     27  H   UNL     1      49.733   3.464  20.441  0.00  0.00    +0.000 HD
BRANCH  26  28
ATOM     28  C   UNL     1      49.662   5.538  20.834  0.00  0.00    +0.000 C 
BRANCH  28  29
ATOM     29  C   UNL     1      48.261   5.703  21.439  0.00  0.00    +0.000 C 
BRANCH  29  30
ATOM     30  C   UNL     1      47.728   7.102  21.216  0.00  0.00    +0.000 A 
ATOM     31  C   UNL     1      47.771   7.682  19.939  0.00  0.00    +0.000 A 
ATOM     32  C   UNL     1      47.314   8.986  19.733  0.00  0.00    +0.000 A 
ATOM     33  C   UNL     1      46.812   9.725  20.802  0.00  0.00    +0.000 A 
ATOM     34  C   UNL     1      46.769   9.163  22.077  0.00  0.00    +0.000 A 
ATOM     35  C   UNL     1      47.228   7.859  22.285  0.00  0.00    +0.000 A 
ENDBRANCH  29  30
ENDBRANCH  28  29
ENDBRANCH  26  28
ENDBRANCH  23  26
ENDBRANCH  19  20
ENDBRANCH   3  19
TORSDOF 9
ENDMDL
