MODEL 1
REMARK VINA RESULT:    -8.368      0.000      0.000
REMARK INTER + INTRA:         -12.064
REMARK INTER:                 -11.303
REMARK INTRA:                  -0.761
REMARK UNBOUND:                -0.761
REMARK  Name = 
REMARK  8 active torsions:
REMARK  status: ('A' for Active; 'I' for Inactive)
REMARK    1  A    between atoms: C_1  and  C_2
REMARK    2  A    between atoms: C_2  and  C_3
REMARK    3  A    between atoms: C_2  and  C_14
REMARK    4  A    between atoms: C_3  and  N_4
REMARK    5  A    between atoms: C_8  and  C_9
REMARK    6  A    between atoms: C_18  and  O_19
REMARK    7  A    between atoms: O_19  and  C_20
REMARK    8  A    between atoms: N_22  and  C_23
REMARK                            x       y       z     vdW  Elec       q    Type
REMARK                         _______ _______ _______ _____ _____    ______ ____
ROOT
ATOM      1  C   UNL     1      42.377   5.952  12.387  0.00  0.00    +0.000 C 
ATOM      2  C   UNL     1      43.221   4.675  12.443  0.00  0.00    +0.000 C 
ENDROOT
BRANCH   2   3
ATOM      3  C   UNL     1      44.668   5.008  12.791  0.00  0.00    +0.000 A 
ATOM      4  C   UNL     1      45.193   6.275  12.517  0.00  0.00    +0.000 A 
ATOM      5  C   UNL     1      46.488   6.607  12.927  0.00  0.00    +0.000 A 
ATOM      6  C   UNL     1      47.280   5.676  13.608  0.00  0.00    +0.000 A 
ATOM      7  C   UNL     1      46.785   4.400  13.852  0.00  0.00    +0.000 A 
ATOM      8  C   UNL     1      45.489   4.073  13.446  0.00  0.00    +0.000 A 
BRANCH   7   9
ATOM      9  O   UNL     1      47.445   3.404  14.526  0.00  0.00    +0.000 OA
BRANCH   9  10
ATOM     10  C   UNL     1      48.041   3.692  15.812  0.00  0.00    +0.000 C 
ATOM     11  C   UNL     1      48.449   2.499  16.702  0.00  0.00    +0.000 C 
ATOM     12  N   UNL     1      47.653   3.036  17.823  0.00  0.00    +0.000 NA
ATOM     13  C   UNL     1      48.513   3.694  18.804  0.00  0.00    +0.000 C 
ATOM     14  C   UNL     1      47.030   4.031  16.931  0.00  0.00    +0.000 C 
ENDBRANCH   9  10
ENDBRANCH   7   9
ENDBRANCH   2   3
BRANCH   2  15
ATOM     15  C   UNL     1      43.187   3.876  11.121  0.00  0.00    +0.000 C 
BRANCH  15  16
ATOM     16  N   UNL     1      43.776   4.613   9.995  0.00  0.00    +0.000 N 
ATOM     17  C   UNL     1      44.656   3.809   9.238  0.00  0.00    +0.000 A 
ATOM     18  C   UNL     1      45.310   4.373   8.149  0.00  0.00    +0.000 A 
ATOM     19  C   UNL     1      46.188   3.592   7.395  0.00  0.00    +0.000 A 
ATOM     20  C   UNL     1      46.400   2.256   7.743  0.00  0.00    +0.000 A 
ATOM     21  C   UNL     1      45.700   1.775   8.834  0.00  0.00    +0.000 A 
ATOM     22  N   UNL     1      44.840   2.516   9.573  0.00  0.00    +0.000 NA
ATOM     23  H   UNL     1      44.302   5.425  10.304  0.00  0.00    +0.000 HD
BRANCH  20  24
ATOM     24  C   UNL     1      47.339   1.427   6.955  0.00  0.00    +0.000 C 
ATOM     25  N   UNL     1      48.531   1.960   6.563  0.00  0.00    +0.000 N 
ATOM     26  O   UNL     1      47.052   0.272   6.651  0.00  0.00    +0.000 OA
ATOM     27  H   UNL     1      48.867   2.888   6.759  0.00  0.00    +0.000 HD
ATOM     28  H   UNL     1      49.140   1.351   6.025  0.00  0.00    +0.000 HD
ENDBRANCH  20  24
ENDBRANCH  15  16
ENDBRANCH   2  15
TORSDOF 6
ENDMDL
MODEL 2
REMARK VINA RESULT:    -8.054      1.062      1.449
REMARK INTER + INTRA:         -11.640
REMARK INTER:                 -11.023
REMARK INTRA:                  -0.616
REMARK UNBOUND:                -0.761
REMARK  Name = 
REMARK  8 active torsions:
REMARK  status: ('A' for Active; 'I' for Inactive)
REMARK    1  A    between atoms: C_1  and  C_2
REMARK    2  A    between atoms: C_2  and  C_3
REMARK    3  A    between atoms: C_2  and  C_14
REMARK    4  A    between atoms: C_3  and  N_4
REMARK    5  A    between atoms: C_8  and  C_9
REMARK    6  A    between atoms: C_18  and  O_19
REMARK    7  A    between atoms: O_19  and  C_20
REMARK    8  A    between atoms: N_22  and  C_23
REMARK                            x       y       z     vdW  Elec       q    Type
REMARK                         _______ _______ _______ _____ _____    ______ ____
ROOT
ATOM      1  C   UNL     1      42.726   6.329  12.065  0.00  0.00    +0.000 C 
ATOM      2  C   UNL     1      43.550   5.051  11.878  0.00  0.00    +0.000 C 
ENDROOT
BRANCH   2   3
ATOM      3  C   UNL     1      44.987   5.270  12.342  0.00  0.00    +0.000 A 
ATOM      4  C   UNL     1      45.705   6.396  11.926  0.00  0.00    +0.000 A 
ATOM      5  C   UNL     1      46.985   6.643  12.431  0.00  0.00    +0.000 A 
ATOM      6  C   UNL     1      47.569   5.766  13.352  0.00  0.00    +0.000 A 
ATOM      7  C   UNL     1      46.882   4.623  13.744  0.00  0.00    +0.000 A 
ATOM      8  C   UNL     1      45.602   4.381  13.241  0.00  0.00    +0.000 A 
BRANCH   7   9
ATOM      9  O   UNL     1      47.327   3.696  14.652  0.00  0.00    +0.000 OA
BRANCH   9  10
ATOM     10  C   UNL     1      47.357   4.037  16.056  0.00  0.00    +0.000 C 
ATOM     11  C   UNL     1      48.428   5.041  16.534  0.00  0.00    +0.000 C 
ATOM     12  N   UNL     1      48.900   4.084  17.554  0.00  0.00    +0.000 NA
ATOM     13  C   UNL     1      48.389   4.439  18.876  0.00  0.00    +0.000 C 
ATOM     14  C   UNL     1      48.086   3.012  16.955  0.00  0.00    +0.000 C 
ENDBRANCH   9  10
ENDBRANCH   7   9
ENDBRANCH   2   3
BRANCH   2  15
ATOM     15  C   UNL     1      43.559   4.553  10.416  0.00  0.00    +0.000 C 
BRANCH  15  16
ATOM     16  N   UNL     1      43.970   3.147  10.295  0.00  0.00    +0.000 N 
ATOM     17  C   UNL     1      44.895   2.955   9.247  0.00  0.00    +0.000 A 
ATOM     18  C   UNL     1      45.363   1.670   8.992  0.00  0.00    +0.000 A 
ATOM     19  C   UNL     1      46.274   1.463   7.954  0.00  0.00    +0.000 A 
ATOM     20  C   UNL     1      46.704   2.547   7.184  0.00  0.00    +0.000 A 
ATOM     21  C   UNL     1      46.196   3.790   7.514  0.00  0.00    +0.000 A 
ATOM     22  N   UNL     1      45.317   4.010   8.521  0.00  0.00    +0.000 NA
ATOM     23  H   UNL     1      43.181   2.533  10.115  0.00  0.00    +0.000 HD
BRANCH  20  24
ATOM     24  C   UNL     1      47.660   2.332   6.075  0.00  0.00    +0.000 C 
ATOM     25  N   UNL     1      47.661   3.195   5.020  0.00  0.00    +0.000 N 
ATOM     26  O   UNL     1      48.445   1.387   6.098  0.00  0.00    +0.000 OA
ATOM     27  H   UNL     1      47.068   4.000   4.901  0.00  0.00    +0.000 HD
ATOM     28  H   UNL     1      48.336   3.005   4.285  0.00  0.00    +0.000 HD
ENDBRANCH  20  24
ENDBRANCH  15  16
ENDBRANCH   2  15
TORSDOF 6
ENDMDL
MODEL 3
REMARK VINA RESULT:    -7.614      2.043      2.391
REMARK INTER + INTRA:         -11.046
REMARK INTER:                 -10.515
REMARK INTRA:                  -0.530
REMARK UNBOUND:                -0.761
REMARK  Name = 
REMARK  8 active torsions:
REMARK  status: ('A' for Active; 'I' for Inactive)
REMARK    1  A    between atoms: C_1  and  C_2
REMARK    2  A    between atoms: C_2  and  C_3
REMARK    3  A    between atoms: C_2  and  C_14
REMARK    4  A    between atoms: C_3  and  N_4
REMARK    5  A    between atoms: C_8  and  C_9
REMARK    6  A    between atoms: C_18  and  O_19
REMARK    7  A    between atoms: O_19  and  C_20
REMARK    8  A    between atoms: N_22  and  C_23
REMARK                            x       y       z     vdW  Elec       q    Type
REMARK                         _______ _______ _______ _____ _____    ______ ____
ROOT
ATOM      1  C   UNL     1      42.820   5.580  12.885  0.00  0.00    +0.000 C 
ATOM      2  C   UNL     1      43.867   4.634  12.288  0.00  0.00    +0.000 C 
ENDROOT
BRANCH   2   3
ATOM      3  C   UNL     1      45.257   5.257  12.374  0.00  0.00    +0.000 A 
ATOM      4  C   UNL     1      45.697   6.153  11.395  0.00  0.00    +0.000 A 
ATOM      5  C   UNL     1      46.932   6.795  11.529  0.00  0.00    +0.000 A 
ATOM      6  C   UNL     1      47.748   6.546  12.639  0.00  0.00    +0.000 A 
ATOM      7  C   UNL     1      47.339   5.628  13.600  0.00  0.00    +0.000 A 
ATOM      8  C   UNL     1      46.103   4.992  13.465  0.00  0.00    +0.000 A 
BRANCH   7   9
ATOM      9  O   UNL     1      48.028   5.310  14.742  0.00  0.00    +0.000 OA
BRANCH   9  10
ATOM     10  C   UNL     1      48.560   6.370  15.568  0.00  0.00    +0.000 C 
ATOM     11  C   UNL     1      49.886   7.031  15.131  0.00  0.00    +0.000 C 
ATOM     12  N   UNL     1      50.482   6.758  16.453  0.00  0.00    +0.000 NA
ATOM     13  C   UNL     1      50.487   7.963  17.280  0.00  0.00    +0.000 C 
ATOM     14  C   UNL     1      49.346   5.889  16.809  0.00  0.00    +0.000 C 
ENDBRANCH   9  10
ENDBRANCH   7   9
ENDBRANCH   2   3
BRANCH   2  15
ATOM     15  C   UNL     1      43.568   4.258  10.820  0.00  0.00    +0.000 C 
BRANCH  15  16
ATOM     16  N   UNL     1      43.965   2.883  10.492  0.00  0.00    +0.000 N 
ATOM     17  C   UNL     1      44.849   2.835   9.392  0.00  0.00    +0.000 A 
ATOM     18  C   UNL     1      45.299   1.597   8.946  0.00  0.00    +0.000 A 
ATOM     19  C   UNL     1      46.169   1.535   7.855  0.00  0.00    +0.000 A 
ATOM     20  C   UNL     1      46.576   2.714   7.226  0.00  0.00    +0.000 A 
ATOM     21  C   UNL     1      46.089   3.900   7.743  0.00  0.00    +0.000 A 
ATOM     22  N   UNL     1      45.249   3.980   8.803  0.00  0.00    +0.000 NA
ATOM     23  H   UNL     1      43.166   2.300  10.260  0.00  0.00    +0.000 HD
BRANCH  20  24
ATOM     24  C   UNL     1      47.489   2.653   6.062  0.00  0.00    +0.000 C 
ATOM     25  N   UNL     1      48.811   2.390   6.266  0.00  0.00    +0.000 N 
ATOM     26  O   UNL     1      47.067   2.839   4.924  0.00  0.00    +0.000 OA
ATOM     27  H   UNL     1      49.260   2.219   7.151  0.00  0.00    +0.000 HD
ATOM     28  H   UNL     1      49.396   2.359   5.437  0.00  0.00    +0.000 HD
ENDBRANCH  20  24
ENDBRANCH  15  16
ENDBRANCH   2  15
TORSDOF 6
ENDMDL
MODEL 4
REMARK VINA RESULT:    -7.408      3.409      5.539
REMARK INTER + INTRA:         -10.769
REMARK INTER:                 -10.013
REMARK INTRA:                  -0.755
REMARK UNBOUND:                -0.761
REMARK  Name = 
REMARK  8 active torsions:
REMARK  status: ('A' for Active; 'I' for Inactive)
REMARK    1  A    between atoms: C_1  and  C_2
REMARK    2  A    between atoms: C_2  and  C_3
REMARK    3  A    between atoms: C_2  and  C_14
REMARK    4  A    between atoms: C_3  and  N_4
REMARK    5  A    between atoms: C_8  and  C_9
REMARK    6  A    between atoms: C_18  and  O_19
REMARK    7  A    between atoms: O_19  and  C_20
REMARK    8  A    between atoms: N_22  and  C_23
REMARK                            x       y       z     vdW  Elec       q    Type
REMARK                         _______ _______ _______ _____ _____    ______ ____
ROOT
ATOM      1  C   UNL     1      42.847   5.283  13.015  0.00  0.00    +0.000 C 
ATOM      2  C   UNL     1      44.091   4.885  12.213  0.00  0.00    +0.000 C 
ENDROOT
BRANCH   2   3
ATOM      3  C   UNL     1      45.121   6.011  12.237  0.00  0.00    +0.000 A 
ATOM      4  C   UNL     1      46.477   5.739  12.026  0.00  0.00    +0.000 A 
ATOM      5  C   UNL     1      47.402   6.784  11.952  0.00  0.00    +0.000 A 
ATOM      6  C   UNL     1      46.989   8.114  12.093  0.00  0.00    +0.000 A 
ATOM      7  C   UNL     1      45.650   8.394  12.341  0.00  0.00    +0.000 A 
ATOM      8  C   UNL     1      44.728   7.349  12.411  0.00  0.00    +0.000 A 
BRANCH   7   9
ATOM      9  O   UNL     1      45.111   9.648  12.477  0.00  0.00    +0.000 OA
BRANCH   9  10
ATOM     10  C   UNL     1      44.760  10.402  11.294  0.00  0.00    +0.000 C 
ATOM     11  C   UNL     1      44.724  11.942  11.402  0.00  0.00    +0.000 C 
ATOM     12  N   UNL     1      43.344  11.966  10.881  0.00  0.00    +0.000 NA
ATOM     13  C   UNL     1      43.327  12.351   9.471  0.00  0.00    +0.000 C 
ATOM     14  C   UNL     1      43.243  10.503  11.019  0.00  0.00    +0.000 C 
ENDBRANCH   9  10
ENDBRANCH   7   9
ENDBRANCH   2   3
BRANCH   2  15
ATOM     15  C   UNL     1      43.768   4.522  10.747  0.00  0.00    +0.000 C 
BRANCH  15  16
ATOM     16  N   UNL     1      43.996   3.102  10.449  0.00  0.00    +0.000 N 
ATOM     17  C   UNL     1      44.897   2.924   9.377  0.00  0.00    +0.000 A 
ATOM     18  C   UNL     1      45.198   1.632   8.960  0.00  0.00    +0.000 A 
ATOM     19  C   UNL     1      46.083   1.441   7.897  0.00  0.00    +0.000 A 
ATOM     20  C   UNL     1      46.654   2.548   7.264  0.00  0.00    +0.000 A 
ATOM     21  C   UNL     1      46.308   3.795   7.751  0.00  0.00    +0.000 A 
ATOM     22  N   UNL     1      45.456   3.999   8.785  0.00  0.00    +0.000 NA
ATOM     23  H   UNL     1      43.137   2.621  10.201  0.00  0.00    +0.000 HD
BRANCH  20  24
ATOM     24  C   UNL     1      47.584   2.352   6.129  0.00  0.00    +0.000 C 
ATOM     25  N   UNL     1      47.483   3.164   5.039  0.00  0.00    +0.000 N 
ATOM     26  O   UNL     1      48.435   1.468   6.161  0.00  0.00    +0.000 OA
ATOM     27  H   UNL     1      46.829   3.918   4.909  0.00  0.00    +0.000 HD
ATOM     28  H   UNL     1      48.144   2.990   4.287  0.00  0.00    +0.000 HD
ENDBRANCH  20  24
ENDBRANCH  15  16
ENDBRANCH   2  15
TORSDOF 6
ENDMDL
MODEL 5
REMARK VINA RESULT:    -7.252      2.357      7.749
REMARK INTER + INTRA:         -10.557
REMARK INTER:                  -9.818
REMARK INTRA:                  -0.739
REMARK UNBOUND:                -0.761
REMARK  Name = 
REMARK  8 active torsions:
REMARK  status: ('A' for Active; 'I' for Inactive)
REMARK    1  A    between atoms: C_1  and  C_2
REMARK    2  A    between atoms: C_2  and  C_3
REMARK    3  A    between atoms: C_2  and  C_14
REMARK    4  A    between atoms: C_3  and  N_4
REMARK    5  A    between atoms: C_8  and  C_9
REMARK    6  A    between atoms: C_18  and  O_19
REMARK    7  A    between atoms: O_19  and  C_20
REMARK    8  A    between atoms: N_22  and  C_23
REMARK                            x       y       z     vdW  Elec       q    Type
REMARK                         _______ _______ _______ _____ _____    ______ ____
ROOT
ATOM      1  C   UNL     1      45.773   8.167  12.900  0.00  0.00    +0.000 C 
ATOM      2  C   UNL     1      46.183   7.173  11.809  0.00  0.00    +0.000 C 
ENDROOT
BRANCH   2   3
ATOM      3  C   UNL     1      45.158   6.048  11.701  0.00  0.00    +0.000 A 
ATOM      4  C   UNL     1      44.149   5.910  12.659  0.00  0.00    +0.000 A 
ATOM      5  C   UNL     1      43.156   4.939  12.503  0.00  0.00    +0.000 A 
ATOM      6  C   UNL     1      43.160   4.087  11.393  0.00  0.00    +0.000 A 
ATOM      7  C   UNL     1      44.180   4.188  10.453  0.00  0.00    +0.000 A 
ATOM      8  C   UNL     1      45.168   5.161  10.610  0.00  0.00    +0.000 A 
BRANCH   7   9
ATOM      9  O   UNL     1      44.291   3.434   9.313  0.00  0.00    +0.000 OA
BRANCH   9  10
ATOM     10  C   UNL     1      45.601   3.166   8.763  0.00  0.00    +0.000 C 
ATOM     11  C   UNL     1      45.824   3.442   7.260  0.00  0.00    +0.000 C 
ATOM     12  N   UNL     1      46.314   2.065   7.060  0.00  0.00    +0.000 NA
ATOM     13  C   UNL     1      47.773   2.038   6.978  0.00  0.00    +0.000 C 
ATOM     14  C   UNL     1      45.864   1.685   8.410  0.00  0.00    +0.000 C 
ENDBRANCH   9  10
ENDBRANCH   7   9
ENDBRANCH   2   3
BRANCH   2  15
ATOM     15  C   UNL     1      47.583   6.564  12.049  0.00  0.00    +0.000 C 
BRANCH  15  16
ATOM     16  N   UNL     1      48.254   7.127  13.229  0.00  0.00    +0.000 N 
ATOM     17  C   UNL     1      48.123   6.293  14.360  0.00  0.00    +0.000 A 
ATOM     18  C   UNL     1      48.688   6.702  15.564  0.00  0.00    +0.000 A 
ATOM     19  C   UNL     1      48.560   5.890  16.693  0.00  0.00    +0.000 A 
ATOM     20  C   UNL     1      47.868   4.680  16.602  0.00  0.00    +0.000 A 
ATOM     21  C   UNL     1      47.348   4.348  15.364  0.00  0.00    +0.000 A 
ATOM     22  N   UNL     1      47.467   5.119  14.257  0.00  0.00    +0.000 NA
ATOM     23  H   UNL     1      47.881   8.037  13.482  0.00  0.00    +0.000 HD
BRANCH  20  24
ATOM     24  C   UNL     1      47.720   3.821  17.798  0.00  0.00    +0.000 C 
ATOM     25  N   UNL     1      46.987   2.675  17.709  0.00  0.00    +0.000 N 
ATOM     26  O   UNL     1      48.246   4.133  18.863  0.00  0.00    +0.000 OA
ATOM     27  H   UNL     1      46.519   2.324  16.890  0.00  0.00    +0.000 HD
ATOM     28  H   UNL     1      46.915   2.121  18.557  0.00  0.00    +0.000 HD
ENDBRANCH  20  24
ENDBRANCH  15  16
ENDBRANCH   2  15
TORSDOF 6
ENDMDL
MODEL 6
REMARK VINA RESULT:    -7.041      2.237      8.107
REMARK INTER + INTRA:         -10.273
REMARK INTER:                  -9.803
REMARK INTRA:                  -0.470
REMARK UNBOUND:                -0.761
REMARK  Name = 
REMARK  8 active torsions:
REMARK  status: ('A' for Active; 'I' for Inactive)
REMARK    1  A    between atoms: C_1  and  C_2
REMARK    2  A    between atoms: C_2  and  C_3
REMARK    3  A    between atoms: C_2  and  C_14
REMARK    4  A    between atoms: C_3  and  N_4
REMARK    5  A    between atoms: C_8  and  C_9
REMARK    6  A    between atoms: C_18  and  O_19
REMARK    7  A    between atoms: O_19  and  C_20
REMARK    8  A    between atoms: N_22  and  C_23
REMARK                            x       y       z     vdW  Elec       q    Type
REMARK                         _______ _______ _______ _____ _____    ______ ____
ROOT
ATOM      1  C   UNL     1      45.888   8.050  12.948  0.00  0.00    +0.000 C 
ATOM      2  C   UNL     1      46.396   6.785  12.248  0.00  0.00    +0.000 C 
ENDROOT
BRANCH   2   3
ATOM      3  C   UNL     1      45.247   5.809  12.014  0.00  0.00    +0.000 A 
ATOM      4  C   UNL     1      44.160   5.765  12.893  0.00  0.00    +0.000 A 
ATOM      5  C   UNL     1      43.066   4.938  12.620  0.00  0.00    +0.000 A 
ATOM      6  C   UNL     1      43.044   4.139  11.472  0.00  0.00    +0.000 A 
ATOM      7  C   UNL     1      44.135   4.145  10.610  0.00  0.00    +0.000 A 
ATOM      8  C   UNL     1      45.224   4.974  10.882  0.00  0.00    +0.000 A 
BRANCH   7   9
ATOM      9  O   UNL     1      44.233   3.430   9.444  0.00  0.00    +0.000 OA
BRANCH   9  10
ATOM     10  C   UNL     1      45.536   3.186   8.868  0.00  0.00    +0.000 C 
ATOM     11  C   UNL     1      45.727   3.471   7.363  0.00  0.00    +0.000 C 
ATOM     12  N   UNL     1      46.234   2.102   7.147  0.00  0.00    +0.000 NA
ATOM     13  C   UNL     1      47.692   2.098   7.038  0.00  0.00    +0.000 C 
ATOM     14  C   UNL     1      45.816   1.710   8.504  0.00  0.00    +0.000 C 
ENDBRANCH   9  10
ENDBRANCH   7   9
ENDBRANCH   2   3
BRANCH   2  15
ATOM     15  C   UNL     1      47.516   6.072  13.037  0.00  0.00    +0.000 C 
BRANCH  15  16
ATOM     16  N   UNL     1      47.056   4.841  13.693  0.00  0.00    +0.000 N 
ATOM     17  C   UNL     1      47.591   4.702  14.992  0.00  0.00    +0.000 A 
ATOM     18  C   UNL     1      47.264   3.572  15.734  0.00  0.00    +0.000 A 
ATOM     19  C   UNL     1      47.791   3.418  17.018  0.00  0.00    +0.000 A 
ATOM     20  C   UNL     1      48.639   4.397  17.541  0.00  0.00    +0.000 A 
ATOM     21  C   UNL     1      48.901   5.492  16.738  0.00  0.00    +0.000 A 
ATOM     22  N   UNL     1      48.394   5.661  15.493  0.00  0.00    +0.000 NA
ATOM     23  H   UNL     1      47.316   4.010  13.171  0.00  0.00    +0.000 HD
BRANCH  20  24
ATOM     24  C   UNL     1      49.210   4.233  18.897  0.00  0.00    +0.000 C 
ATOM     25  N   UNL     1      48.390   3.872  19.925  0.00  0.00    +0.000 N 
ATOM     26  O   UNL     1      50.406   4.422  19.101  0.00  0.00    +0.000 OA
ATOM     27  H   UNL     1      47.402   3.688  19.870  0.00  0.00    +0.000 HD
ATOM     28  H   UNL     1      48.829   3.772  20.835  0.00  0.00    +0.000 HD
ENDBRANCH  20  24
ENDBRANCH  15  16
ENDBRANCH   2  15
TORSDOF 6
ENDMDL
MODEL 7
REMARK VINA RESULT:    -6.878      3.002      4.554
REMARK INTER + INTRA:         -10.052
REMARK INTER:                  -9.461
REMARK INTRA:                  -0.591
REMARK UNBOUND:                -0.761
REMARK  Name = 
REMARK  8 active torsions:
REMARK  status: ('A' for Active; 'I' for Inactive)
REMARK    1  A    between atoms: C_1  and  C_2
REMARK    2  A    between atoms: C_2  and  C_3
REMARK    3  A    between atoms: C_2  and  C_14
REMARK    4  A    between atoms: C_3  and  N_4
REMARK    5  A    between atoms: C_8  and  C_9
REMARK    6  A    between atoms: C_18  and  O_19
REMARK    7  A    between atoms: O_19  and  C_20
REMARK    8  A    between atoms: N_22  and  C_23
REMARK                            x       y       z     vdW  Elec       q    Type
REMARK                         _______ _______ _______ _____ _____    ______ ____
ROOT
ATOM      1  C   UNL     1      42.708   5.367  13.108  0.00  0.00    +0.000 C 
ATOM      2  C   UNL     1      43.903   4.640  12.482  0.00  0.00    +0.000 C 
ENDROOT
BRANCH   2   3
ATOM      3  C   UNL     1      45.187   5.432  12.710  0.00  0.00    +0.000 A 
ATOM      4  C   UNL     1      46.343   4.796  13.171  0.00  0.00    +0.000 A 
ATOM      5  C   UNL     1      47.542   5.506  13.286  0.00  0.00    +0.000 A 
ATOM      6  C   UNL     1      47.601   6.864  12.950  0.00  0.00    +0.000 A 
ATOM      7  C   UNL     1      46.449   7.517  12.527  0.00  0.00    +0.000 A 
ATOM      8  C   UNL     1      45.255   6.804  12.409  0.00  0.00    +0.000 A 
BRANCH   7   9
ATOM      9  O   UNL     1      46.373   8.833  12.147  0.00  0.00    +0.000 OA
BRANCH   9  10
ATOM     10  C   UNL     1      47.589   9.602  12.005  0.00  0.00    +0.000 C 
ATOM     11  C   UNL     1      48.191  10.244  13.274  0.00  0.00    +0.000 C 
ATOM     12  N   UNL     1      48.198  11.569  12.624  0.00  0.00    +0.000 NA
ATOM     13  C   UNL     1      49.541  11.914  12.161  0.00  0.00    +0.000 C 
ATOM     14  C   UNL     1      47.383  11.052  11.511  0.00  0.00    +0.000 C 
ENDBRANCH   9  10
ENDBRANCH   7   9
ENDBRANCH   2   3
BRANCH   2  15
ATOM     15  C   UNL     1      43.725   4.387  10.968  0.00  0.00    +0.000 C 
BRANCH  15  16
ATOM     16  N   UNL     1      44.026   3.002  10.583  0.00  0.00    +0.000 N 
ATOM     17  C   UNL     1      44.897   2.938   9.474  0.00  0.00    +0.000 A 
ATOM     18  C   UNL     1      45.258   1.691   8.975  0.00  0.00    +0.000 A 
ATOM     19  C   UNL     1      46.115   1.614   7.875  0.00  0.00    +0.000 A 
ATOM     20  C   UNL     1      46.597   2.786   7.288  0.00  0.00    +0.000 A 
ATOM     21  C   UNL     1      46.195   3.981   7.855  0.00  0.00    +0.000 A 
ATOM     22  N   UNL     1      45.370   4.076   8.926  0.00  0.00    +0.000 NA
ATOM     23  H   UNL     1      43.188   2.484  10.336  0.00  0.00    +0.000 HD
BRANCH  20  24
ATOM     24  C   UNL     1      47.495   2.709   6.114  0.00  0.00    +0.000 C 
ATOM     25  N   UNL     1      48.809   2.393   6.301  0.00  0.00    +0.000 N 
ATOM     26  O   UNL     1      47.070   2.929   4.984  0.00  0.00    +0.000 OA
ATOM     27  H   UNL     1      49.259   2.191   7.178  0.00  0.00    +0.000 HD
ATOM     28  H   UNL     1      49.384   2.353   5.465  0.00  0.00    +0.000 HD
ENDBRANCH  20  24
ENDBRANCH  15  16
ENDBRANCH   2  15
TORSDOF 6
ENDMDL
MODEL 8
REMARK VINA RESULT:    -6.861      3.644      6.342
REMARK INTER + INTRA:         -10.029
REMARK INTER:                  -9.660
REMARK INTRA:                  -0.369
REMARK UNBOUND:                -0.761
REMARK  Name = 
REMARK  8 active torsions:
REMARK  status: ('A' for Active; 'I' for Inactive)
REMARK    1  A    between atoms: C_1  and  C_2
REMARK    2  A    between atoms: C_2  and  C_3
REMARK    3  A    between atoms: C_2  and  C_14
REMARK    4  A    between atoms: C_3  and  N_4
REMARK    5  A    between atoms: C_8  and  C_9
REMARK    6  A    between atoms: C_18  and  O_19
REMARK    7  A    between atoms: O_19  and  C_20
REMARK    8  A    between atoms: N_22  and  C_23
REMARK                            x       y       z     vdW  Elec       q    Type
REMARK                         _______ _______ _______ _____ _____    ______ ____
ROOT
ATOM      1  C   UNL     1      45.403   4.914  13.085  0.00  0.00    +0.000 C 
ATOM      2  C   UNL     1      45.175   5.591  11.729  0.00  0.00    +0.000 C 
ENDROOT
BRANCH   2   3
ATOM      3  C   UNL     1      45.069   7.103  11.901  0.00  0.00    +0.000 A 
ATOM      4  C   UNL     1      45.797   7.759  12.898  0.00  0.00    +0.000 A 
ATOM      5  C   UNL     1      45.772   9.154  12.989  0.00  0.00    +0.000 A 
ATOM      6  C   UNL     1      45.013   9.913  12.091  0.00  0.00    +0.000 A 
ATOM      7  C   UNL     1      44.253   9.271  11.119  0.00  0.00    +0.000 A 
ATOM      8  C   UNL     1      44.285   7.878  11.028  0.00  0.00    +0.000 A 
BRANCH   7   9
ATOM      9  O   UNL     1      43.487   9.893  10.167  0.00  0.00    +0.000 OA
BRANCH   9  10
ATOM     10  C   UNL     1      42.536  10.904  10.570  0.00  0.00    +0.000 C 
ATOM     11  C   UNL     1      41.290  10.450  11.361  0.00  0.00    +0.000 C 
ATOM     12  N   UNL     1      40.404  11.113  10.386  0.00  0.00    +0.000 NA
ATOM     13  C   UNL     1      39.916  12.388  10.908  0.00  0.00    +0.000 C 
ATOM     14  C   UNL     1      41.537  11.328   9.470  0.00  0.00    +0.000 C 
ENDBRANCH   9  10
ENDBRANCH   7   9
ENDBRANCH   2   3
BRANCH   2  15
ATOM     15  C   UNL     1      43.914   5.072  11.004  0.00  0.00    +0.000 C 
BRANCH  15  16
ATOM     16  N   UNL     1      43.987   3.639  10.689  0.00  0.00    +0.000 N 
ATOM     17  C   UNL     1      44.829   3.382   9.585  0.00  0.00    +0.000 A 
ATOM     18  C   UNL     1      44.984   2.071   9.150  0.00  0.00    +0.000 A 
ATOM     19  C   UNL     1      45.809   1.803   8.055  0.00  0.00    +0.000 A 
ATOM     20  C   UNL     1      46.467   2.853   7.410  0.00  0.00    +0.000 A 
ATOM     21  C   UNL     1      46.264   4.124   7.917  0.00  0.00    +0.000 A 
ATOM     22  N   UNL     1      45.473   4.401   8.981  0.00  0.00    +0.000 NA
ATOM     23  H   UNL     1      43.076   3.250  10.468  0.00  0.00    +0.000 HD
BRANCH  20  24
ATOM     24  C   UNL     1      47.333   2.576   6.243  0.00  0.00    +0.000 C 
ATOM     25  N   UNL     1      48.566   2.029   6.443  0.00  0.00    +0.000 N 
ATOM     26  O   UNL     1      46.953   2.837   5.105  0.00  0.00    +0.000 OA
ATOM     27  H   UNL     1      48.973   1.774   7.327  0.00  0.00    +0.000 HD
ATOM     28  H   UNL     1      49.122   1.858   5.610  0.00  0.00    +0.000 HD
ENDBRANCH  20  24
ENDBRANCH  15  16
ENDBRANCH   2  15
TORSDOF 6
ENDMDL
MODEL 9
REMARK VINA RESULT:    -6.296      2.729      8.795
REMARK INTER + INTRA:          -9.266
REMARK INTER:                  -8.611
REMARK INTRA:                  -0.656
REMARK UNBOUND:                -0.761
REMARK  Name = 
REMARK  8 active torsions:
REMARK  status: ('A' for Active; 'I' for Inactive)
REMARK    1  A    between atoms: C_1  and  C_2
REMARK    2  A    between atoms: C_2  and  C_3
REMARK    3  A    between atoms: C_2  and  C_14
REMARK    4  A    between atoms: C_3  and  N_4
REMARK    5  A    between atoms: C_8  and  C_9
REMARK    6  A    between atoms: C_18  and  O_19
REMARK    7  A    between atoms: O_19  and  C_20
REMARK    8  A    between atoms: N_22  and  C_23
REMARK                            x       y       z     vdW  Elec       q    Type
REMARK                         _______ _______ _______ _____ _____    ______ ____
ROOT
ATOM      1  C   UNL     1      49.480   7.836  12.669  0.00  0.00    +0.000 C 
ATOM      2  C   UNL     1      48.409   6.866  13.179  0.00  0.00    +0.000 C 
ENDROOT
BRANCH   2   3
ATOM      3  C   UNL     1      47.039   7.247  12.626  0.00  0.00    +0.000 A 
ATOM      4  C   UNL     1      46.624   8.583  12.612  0.00  0.00    +0.000 A 
ATOM      5  C   UNL     1      45.410   8.937  12.015  0.00  0.00    +0.000 A 
ATOM      6  C   UNL     1      44.590   7.964  11.433  0.00  0.00    +0.000 A 
ATOM      7  C   UNL     1      44.974   6.628  11.475  0.00  0.00    +0.000 A 
ATOM      8  C   UNL     1      46.188   6.277  12.067  0.00  0.00    +0.000 A 
BRANCH   7   9
ATOM      9  O   UNL     1      44.278   5.582  10.925  0.00  0.00    +0.000 OA
BRANCH   9  10
ATOM     10  C   UNL     1      45.001   4.522  10.259  0.00  0.00    +0.000 C 
ATOM     11  C   UNL     1      44.609   4.183   8.804  0.00  0.00    +0.000 C 
ATOM     12  N   UNL     1      44.412   2.766   9.165  0.00  0.00    +0.000 NA
ATOM     13  C   UNL     1      45.555   1.958   8.742  0.00  0.00    +0.000 C 
ATOM     14  C   UNL     1      44.513   3.095  10.598  0.00  0.00    +0.000 C 
ENDBRANCH   9  10
ENDBRANCH   7   9
ENDBRANCH   2   3
BRANCH   2  15
ATOM     15  C   UNL     1      48.337   6.811  14.721  0.00  0.00    +0.000 C 
BRANCH  15  16
ATOM     16  N   UNL     1      47.810   5.534  15.221  0.00  0.00    +0.000 N 
ATOM     17  C   UNL     1      48.164   5.306  16.569  0.00  0.00    +0.000 A 
ATOM     18  C   UNL     1      47.756   4.125  17.179  0.00  0.00    +0.000 A 
ATOM     19  C   UNL     1      48.104   3.884  18.510  0.00  0.00    +0.000 A 
ATOM     20  C   UNL     1      48.858   4.828  19.211  0.00  0.00    +0.000 A 
ATOM     21  C   UNL     1      49.211   5.978  18.529  0.00  0.00    +0.000 A 
ATOM     22  N   UNL     1      48.877   6.232  17.241  0.00  0.00    +0.000 NA
ATOM     23  H   UNL     1      48.152   4.743  14.684  0.00  0.00    +0.000 HD
BRANCH  20  24
ATOM     24  C   UNL     1      49.239   4.572  20.618  0.00  0.00    +0.000 C 
ATOM     25  N   UNL     1      50.556   4.617  20.969  0.00  0.00    +0.000 N 
ATOM     26  O   UNL     1      48.386   4.319  21.463  0.00  0.00    +0.000 OA
ATOM     27  H   UNL     1      51.334   4.818  20.362  0.00  0.00    +0.000 HD
ATOM     28  H   UNL     1      50.767   4.434  21.945  0.00  0.00    +0.000 HD
ENDBRANCH  20  24
ENDBRANCH  15  16
ENDBRANCH   2  15
TORSDOF 6
ENDMDL
