MODEL 1
REMARK VINA RESULT:    -7.721      0.000      0.000
REMARK INTER + INTRA:         -11.764
REMARK INTER:                 -11.332
REMARK INTRA:                  -0.432
REMARK UNBOUND:                -0.432
REMARK  Name = 
REMARK  9 active torsions:
REMARK  status: ('A' for Active; 'I' for Inactive)
REMARK    1  A    between atoms: C_1  and  O_2
REMARK    2  A    between atoms: O_2  and  C_3
REMARK    3  A    between atoms: C_5  and  C_6
REMARK    4  A    between atoms: C_12  and  C_13
REMARK    5  A    between atoms: C_17  and  C_18
REMARK    6  A    between atoms: C_18  and  C_19
REMARK    7  A    between atoms: C_19  and  O_20
REMARK    8  A    between atoms: O_20  and  C_21
REMARK    9  A    between atoms: C_25  and  C_26
REMARK                            x       y       z     vdW  Elec       q    Type
REMARK                         _______ _______ _______ _____ _____    ______ ____
ROOT
ATOM      1  C   UNL     1      46.857   5.451  13.607  0.00  0.00    +0.000 A 
ATOM      2  C   UNL     1      47.482   6.349  12.732  0.00  0.00    +0.000 A 
ATOM      3  C   UNL     1      46.841   6.795  11.571  0.00  0.00    +0.000 A 
ATOM      4  C   UNL     1      45.565   6.330  11.245  0.00  0.00    +0.000 A 
ATOM      5  C   UNL     1      44.926   5.392  12.059  0.00  0.00    +0.000 A 
ATOM      6  C   UNL     1      45.593   4.971  13.226  0.00  0.00    +0.000 A 
ENDROOT
BRANCH   1  12
ATOM      7  C   UNL     1      48.382   5.847  15.624  0.00  0.00    +0.000 A 
ATOM      8  N   UNL     1      48.998   5.412  16.751  0.00  0.00    +0.000 NA
ATOM      9  C   UNL     1      48.734   4.130  17.131  0.00  0.00    +0.000 A 
ATOM     10  C   UNL     1      47.865   3.336  16.398  0.00  0.00    +0.000 A 
ATOM     11  N   UNL     1      47.244   3.764  15.274  0.00  0.00    +0.000 NA
ATOM     12  C   UNL     1      47.502   5.044  14.876  0.00  0.00    +0.000 A 
BRANCH   9  13
ATOM     13  C   UNL     1      49.396   3.537  18.352  0.00  0.00    +0.000 C 
ATOM     14  F   UNL     1      49.934   4.458  19.199  0.00  0.00    +0.000 F 
ATOM     15  F   UNL     1      48.534   2.795  19.105  0.00  0.00    +0.000 F 
ATOM     16  F   UNL     1      50.418   2.691  18.028  0.00  0.00    +0.000 F 
ENDBRANCH   9  13
BRANCH   7  18
ATOM     17  C   UNL     1      49.775   7.715  15.844  0.00  0.00    +0.000 C 
ATOM     18  O   UNL     1      48.625   7.145  15.227  0.00  0.00    +0.000 OA
ENDBRANCH   7  18
ENDBRANCH   1  12
BRANCH   5  19
ATOM     19  C   UNL     1      43.562   4.849  11.662  0.00  0.00    +0.000 C 
BRANCH  19  20
ATOM     20  C   UNL     1      43.633   3.748  10.600  0.00  0.00    +0.000 C 
BRANCH  20  21
ATOM     21  O   UNL     1      43.873   4.251   9.287  0.00  0.00    +0.000 OA
BRANCH  21  22
ATOM     22  C   UNL     1      44.945   3.671   8.650  0.00  0.00    +0.000 A 
ATOM     23  C   UNL     1      45.830   4.523   8.010  0.00  0.00    +0.000 A 
ATOM     24  N   UNL     1      46.928   4.110   7.324  0.00  0.00    +0.000 NA
ATOM     25  C   UNL     1      47.153   2.775   7.274  0.00  0.00    +0.000 A 
ATOM     26  C   UNL     1      46.334   1.840   7.882  0.00  0.00    +0.000 A 
ATOM     27  C   UNL     1      45.211   2.301   8.583  0.00  0.00    +0.000 A 
BRANCH  26  28
ATOM     28  C   UNL     1      46.622   0.441   7.788  0.00  0.00    +0.000 C 
ATOM     29  N   UNL     1      46.861  -0.689   7.700  0.00  0.00    +0.000 NA
ENDBRANCH  26  28
ENDBRANCH  21  22
ENDBRANCH  20  21
ENDBRANCH  19  20
ENDBRANCH   5  19
TORSDOF 8
ENDMDL
MODEL 2
REMARK VINA RESULT:    -7.455      1.502      2.144
REMARK INTER + INTRA:         -11.373
REMARK INTER:                 -11.143
REMARK INTRA:                  -0.230
REMARK UNBOUND:                -0.432
REMARK  Name = 
REMARK  9 active torsions:
REMARK  status: ('A' for Active; 'I' for Inactive)
REMARK    1  A    between atoms: C_1  and  O_2
REMARK    2  A    between atoms: O_2  and  C_3
REMARK    3  A    between atoms: C_5  and  C_6
REMARK    4  A    between atoms: C_12  and  C_13
REMARK    5  A    between atoms: C_17  and  C_18
REMARK    6  A    between atoms: C_18  and  C_19
REMARK    7  A    between atoms: C_19  and  O_20
REMARK    8  A    between atoms: O_20  and  C_21
REMARK    9  A    between atoms: C_25  and  C_26
REMARK                            x       y       z     vdW  Elec       q    Type
REMARK                         _______ _______ _______ _____ _____    ______ ____
ROOT
ATOM      1  C   UNL     1      47.326   5.709  14.008  0.00  0.00    +0.000 A 
ATOM      2  C   UNL     1      47.634   6.521  12.908  0.00  0.00    +0.000 A 
ATOM      3  C   UNL     1      46.747   6.653  11.835  0.00  0.00    +0.000 A 
ATOM      4  C   UNL     1      45.538   5.954  11.825  0.00  0.00    +0.000 A 
ATOM      5  C   UNL     1      45.214   5.090  12.875  0.00  0.00    +0.000 A 
ATOM      6  C   UNL     1      46.123   4.987  13.946  0.00  0.00    +0.000 A 
ENDROOT
BRANCH   1  12
ATOM      7  C   UNL     1      48.041   4.780  16.284  0.00  0.00    +0.000 A 
ATOM      8  N   UNL     1      48.858   4.787  17.365  0.00  0.00    +0.000 NA
ATOM      9  C   UNL     1      49.883   5.685  17.347  0.00  0.00    +0.000 A 
ATOM     10  C   UNL     1      50.072   6.526  16.261  0.00  0.00    +0.000 A 
ATOM     11  N   UNL     1      49.262   6.523  15.175  0.00  0.00    +0.000 NA
ATOM     12  C   UNL     1      48.227   5.634  15.180  0.00  0.00    +0.000 A 
BRANCH   9  13
ATOM     13  C   UNL     1      50.830   5.797  18.518  0.00  0.00    +0.000 C 
ATOM     14  F   UNL     1      50.336   6.505  19.572  0.00  0.00    +0.000 F 
ATOM     15  F   UNL     1      51.188   4.580  19.019  0.00  0.00    +0.000 F 
ATOM     16  F   UNL     1      52.002   6.410  18.179  0.00  0.00    +0.000 F 
ENDBRANCH   9  13
BRANCH   7  18
ATOM     17  C   UNL     1      47.027   2.983  17.388  0.00  0.00    +0.000 C 
ATOM     18  O   UNL     1      47.004   3.871  16.276  0.00  0.00    +0.000 OA
ENDBRANCH   7  18
ENDBRANCH   1  12
BRANCH   5  19
ATOM     19  C   UNL     1      43.922   4.290  12.825  0.00  0.00    +0.000 C 
BRANCH  19  20
ATOM     20  C   UNL     1      43.960   3.139  11.813  0.00  0.00    +0.000 C 
BRANCH  20  21
ATOM     21  O   UNL     1      43.558   3.534  10.502  0.00  0.00    +0.000 OA
BRANCH  21  22
ATOM     22  C   UNL     1      44.486   3.263   9.524  0.00  0.00    +0.000 A 
ATOM     23  C   UNL     1      44.911   4.330   8.750  0.00  0.00    +0.000 A 
ATOM     24  N   UNL     1      45.809   4.228   7.735  0.00  0.00    +0.000 NA
ATOM     25  C   UNL     1      46.309   2.995   7.480  0.00  0.00    +0.000 A 
ATOM     26  C   UNL     1      45.955   1.866   8.196  0.00  0.00    +0.000 A 
ATOM     27  C   UNL     1      45.027   2.006   9.237  0.00  0.00    +0.000 A 
BRANCH  26  28
ATOM     28  C   UNL     1      46.514   0.588   7.874  0.00  0.00    +0.000 C 
ATOM     29  N   UNL     1      46.954  -0.450   7.608  0.00  0.00    +0.000 NA
ENDBRANCH  26  28
ENDBRANCH  21  22
ENDBRANCH  20  21
ENDBRANCH  19  20
ENDBRANCH   5  19
TORSDOF 8
ENDMDL
MODEL 3
REMARK VINA RESULT:    -7.419      2.161      3.026
REMARK INTER + INTRA:         -11.321
REMARK INTER:                 -10.988
REMARK INTRA:                  -0.333
REMARK UNBOUND:                -0.432
REMARK  Name = 
REMARK  9 active torsions:
REMARK  status: ('A' for Active; 'I' for Inactive)
REMARK    1  A    between atoms: C_1  and  O_2
REMARK    2  A    between atoms: O_2  and  C_3
REMARK    3  A    between atoms: C_5  and  C_6
REMARK    4  A    between atoms: C_12  and  C_13
REMARK    5  A    between atoms: C_17  and  C_18
REMARK    6  A    between atoms: C_18  and  C_19
REMARK    7  A    between atoms: C_19  and  O_20
REMARK    8  A    between atoms: O_20  and  C_21
REMARK    9  A    between atoms: C_25  and  C_26
REMARK                            x       y       z     vdW  Elec       q    Type
REMARK                         _______ _______ _______ _____ _____    ______ ____
ROOT
ATOM      1  C   UNL     1      46.488   6.741  13.027  0.00  0.00    +0.000 A 
ATOM      2  C   UNL     1      46.093   7.694  12.079  0.00  0.00    +0.000 A 
ATOM      3  C   UNL     1      44.849   7.612  11.444  0.00  0.00    +0.000 A 
ATOM      4  C   UNL     1      43.980   6.556  11.724  0.00  0.00    +0.000 A 
ATOM      5  C   UNL     1      44.354   5.553  12.622  0.00  0.00    +0.000 A 
ATOM      6  C   UNL     1      45.608   5.670  13.253  0.00  0.00    +0.000 A 
ENDROOT
BRANCH   1  12
ATOM      7  C   UNL     1      48.212   5.996  14.765  0.00  0.00    +0.000 A 
ATOM      8  N   UNL     1      49.365   6.189  15.453  0.00  0.00    +0.000 NA
ATOM      9  C   UNL     1      50.084   7.302  15.134  0.00  0.00    +0.000 A 
ATOM     10  C   UNL     1      49.650   8.168  14.142  0.00  0.00    +0.000 A 
ATOM     11  N   UNL     1      48.503   7.980  13.447  0.00  0.00    +0.000 NA
ATOM     12  C   UNL     1      47.767   6.874  13.759  0.00  0.00    +0.000 A 
BRANCH   9  13
ATOM     13  C   UNL     1      51.364   7.627  15.865  0.00  0.00    +0.000 C 
ATOM     14  F   UNL     1      52.495   7.221  15.223  0.00  0.00    +0.000 F 
ATOM     15  F   UNL     1      51.517   8.966  16.080  0.00  0.00    +0.000 F 
ATOM     16  F   UNL     1      51.414   7.052  17.102  0.00  0.00    +0.000 F 
ENDBRANCH   9  13
BRANCH   7  18
ATOM     17  C   UNL     1      47.705   4.380  16.380  0.00  0.00    +0.000 C 
ATOM     18  O   UNL     1      47.475   4.870  15.064  0.00  0.00    +0.000 OA
ENDBRANCH   7  18
ENDBRANCH   1  12
BRANCH   5  19
ATOM     19  C   UNL     1      43.423   4.378  12.875  0.00  0.00    +0.000 C 
BRANCH  19  20
ATOM     20  C   UNL     1      43.714   3.169  11.978  0.00  0.00    +0.000 C 
BRANCH  20  21
ATOM     21  O   UNL     1      43.260   3.345  10.638  0.00  0.00    +0.000 OA
BRANCH  21  22
ATOM     22  C   UNL     1      44.246   3.208   9.688  0.00  0.00    +0.000 A 
ATOM     23  C   UNL     1      44.655   4.361   9.038  0.00  0.00    +0.000 A 
ATOM     24  N   UNL     1      45.604   4.394   8.066  0.00  0.00    +0.000 NA
ATOM     25  C   UNL     1      46.175   3.213   7.726  0.00  0.00    +0.000 A 
ATOM     26  C   UNL     1      45.842   2.007   8.316  0.00  0.00    +0.000 A 
ATOM     27  C   UNL     1      44.860   2.009   9.316  0.00  0.00    +0.000 A 
BRANCH  26  28
ATOM     28  C   UNL     1      46.476   0.791   7.908  0.00  0.00    +0.000 C 
ATOM     29  N   UNL     1      47.002  -0.187   7.578  0.00  0.00    +0.000 NA
ENDBRANCH  26  28
ENDBRANCH  21  22
ENDBRANCH  20  21
ENDBRANCH  19  20
ENDBRANCH   5  19
TORSDOF 8
ENDMDL
MODEL 4
REMARK VINA RESULT:    -7.393      4.428      5.539
REMARK INTER + INTRA:         -11.283
REMARK INTER:                 -10.442
REMARK INTRA:                  -0.841
REMARK UNBOUND:                -0.432
REMARK  Name = 
REMARK  9 active torsions:
REMARK  status: ('A' for Active; 'I' for Inactive)
REMARK    1  A    between atoms: C_1  and  O_2
REMARK    2  A    between atoms: O_2  and  C_3
REMARK    3  A    between atoms: C_5  and  C_6
REMARK    4  A    between atoms: C_12  and  C_13
REMARK    5  A    between atoms: C_17  and  C_18
REMARK    6  A    between atoms: C_18  and  C_19
REMARK    7  A    between atoms: C_19  and  O_20
REMARK    8  A    between atoms: O_20  and  C_21
REMARK    9  A    between atoms: C_25  and  C_26
REMARK                            x       y       z     vdW  Elec       q    Type
REMARK                         _______ _______ _______ _____ _____    ______ ____
ROOT
ATOM      1  C   UNL     1      46.784   6.583  12.860  0.00  0.00    +0.000 A 
ATOM      2  C   UNL     1      47.460   5.776  13.783  0.00  0.00    +0.000 A 
ATOM      3  C   UNL     1      46.945   4.536  14.176  0.00  0.00    +0.000 A 
ATOM      4  C   UNL     1      45.724   4.085  13.670  0.00  0.00    +0.000 A 
ATOM      5  C   UNL     1      44.988   4.880  12.788  0.00  0.00    +0.000 A 
ATOM      6  C   UNL     1      45.538   6.119  12.405  0.00  0.00    +0.000 A 
ENDROOT
BRANCH   1  12
ATOM      7  C   UNL     1      46.681   9.082  12.317  0.00  0.00    +0.000 A 
ATOM      8  N   UNL     1      47.239  10.212  11.816  0.00  0.00    +0.000 NA
ATOM      9  C   UNL     1      48.516  10.107  11.354  0.00  0.00    +0.000 A 
ATOM     10  C   UNL     1      49.198   8.901  11.419  0.00  0.00    +0.000 A 
ATOM     11  N   UNL     1      48.650   7.769  11.921  0.00  0.00    +0.000 NA
ATOM     12  C   UNL     1      47.369   7.857  12.383  0.00  0.00    +0.000 A 
BRANCH   9  13
ATOM     13  C   UNL     1      49.215  11.298  10.744  0.00  0.00    +0.000 C 
ATOM     14  F   UNL     1      50.399  11.003  10.137  0.00  0.00    +0.000 F 
ATOM     15  F   UNL     1      48.456  11.923   9.799  0.00  0.00    +0.000 F 
ATOM     16  F   UNL     1      49.506  12.258  11.671  0.00  0.00    +0.000 F 
ENDBRANCH   9  13
BRANCH   7  18
ATOM     17  C   UNL     1      44.531   9.936  11.968  0.00  0.00    +0.000 C 
ATOM     18  O   UNL     1      45.393   9.169  12.801  0.00  0.00    +0.000 OA
ENDBRANCH   7  18
ENDBRANCH   1  12
BRANCH   5  19
ATOM     19  C   UNL     1      43.633   4.404  12.291  0.00  0.00    +0.000 C 
BRANCH  19  20
ATOM     20  C   UNL     1      43.725   3.449  11.096  0.00  0.00    +0.000 C 
BRANCH  20  21
ATOM     21  O   UNL     1      43.860   4.126   9.848  0.00  0.00    +0.000 OA
BRANCH  21  22
ATOM     22  C   UNL     1      44.864   3.634   9.047  0.00  0.00    +0.000 A 
ATOM     23  C   UNL     1      45.601   4.558   8.325  0.00  0.00    +0.000 A 
ATOM     24  N   UNL     1      46.613   4.235   7.478  0.00  0.00    +0.000 NA
ATOM     25  C   UNL     1      46.905   2.919   7.345  0.00  0.00    +0.000 A 
ATOM     26  C   UNL     1      46.234   1.916   8.024  0.00  0.00    +0.000 A 
ATOM     27  C   UNL     1      45.196   2.285   8.890  0.00  0.00    +0.000 A 
BRANCH  26  28
ATOM     28  C   UNL     1      46.585   0.542   7.836  0.00  0.00    +0.000 C 
ATOM     29  N   UNL     1      46.858  -0.575   7.691  0.00  0.00    +0.000 NA
ENDBRANCH  26  28
ENDBRANCH  21  22
ENDBRANCH  20  21
ENDBRANCH  19  20
ENDBRANCH   5  19
TORSDOF 8
ENDMDL
MODEL 5
REMARK VINA RESULT:    -7.242      4.074      8.072
REMARK INTER + INTRA:         -11.062
REMARK INTER:                  -9.806
REMARK INTRA:                  -1.256
REMARK UNBOUND:                -0.432
REMARK  Name = 
REMARK  9 active torsions:
REMARK  status: ('A' for Active; 'I' for Inactive)
REMARK    1  A    between atoms: C_1  and  O_2
REMARK    2  A    between atoms: O_2  and  C_3
REMARK    3  A    between atoms: C_5  and  C_6
REMARK    4  A    between atoms: C_12  and  C_13
REMARK    5  A    between atoms: C_17  and  C_18
REMARK    6  A    between atoms: C_18  and  C_19
REMARK    7  A    between atoms: C_19  and  O_20
REMARK    8  A    between atoms: O_20  and  C_21
REMARK    9  A    between atoms: C_25  and  C_26
REMARK                            x       y       z     vdW  Elec       q    Type
REMARK                         _______ _______ _______ _____ _____    ______ ____
ROOT
ATOM      1  C   UNL     1      46.283   6.844  11.896  0.00  0.00    +0.000 A 
ATOM      2  C   UNL     1      45.363   7.784  12.381  0.00  0.00    +0.000 A 
ATOM      3  C   UNL     1      45.791   8.982  12.963  0.00  0.00    +0.000 A 
ATOM      4  C   UNL     1      47.153   9.257  13.097  0.00  0.00    +0.000 A 
ATOM      5  C   UNL     1      48.106   8.325  12.677  0.00  0.00    +0.000 A 
ATOM      6  C   UNL     1      47.644   7.133  12.086  0.00  0.00    +0.000 A 
ENDROOT
BRANCH   1  12
ATOM      7  C   UNL     1      45.515   4.403  11.846  0.00  0.00    +0.000 A 
ATOM      8  N   UNL     1      45.161   3.283  11.168  0.00  0.00    +0.000 NA
ATOM      9  C   UNL     1      45.138   3.377   9.809  0.00  0.00    +0.000 A 
ATOM     10  C   UNL     1      45.446   4.571   9.174  0.00  0.00    +0.000 A 
ATOM     11  N   UNL     1      45.795   5.695   9.843  0.00  0.00    +0.000 NA
ATOM     12  C   UNL     1      45.830   5.616  11.205  0.00  0.00    +0.000 A 
BRANCH   9  13
ATOM     13  C   UNL     1      44.791   2.178   8.960  0.00  0.00    +0.000 C 
ATOM     14  F   UNL     1      43.949   1.291   9.560  0.00  0.00    +0.000 F 
ATOM     15  F   UNL     1      44.192   2.525   7.784  0.00  0.00    +0.000 F 
ATOM     16  F   UNL     1      45.896   1.457   8.607  0.00  0.00    +0.000 F 
ENDBRANCH   9  13
BRANCH   7  18
ATOM     17  C   UNL     1      46.728   3.757  13.740  0.00  0.00    +0.000 C 
ATOM     18  O   UNL     1      45.534   4.334  13.223  0.00  0.00    +0.000 OA
ENDBRANCH   7  18
ENDBRANCH   1  12
BRANCH   5  19
ATOM     19  C   UNL     1      49.585   8.610  12.883  0.00  0.00    +0.000 C 
BRANCH  19  20
ATOM     20  C   UNL     1      50.224   7.748  13.977  0.00  0.00    +0.000 C 
BRANCH  20  21
ATOM     21  O   UNL     1      49.575   7.877  15.240  0.00  0.00    +0.000 OA
BRANCH  21  22
ATOM     22  C   UNL     1      49.588   6.729  15.999  0.00  0.00    +0.000 A 
ATOM     23  C   UNL     1      50.793   6.381  16.588  0.00  0.00    +0.000 A 
ATOM     24  N   UNL     1      50.977   5.272  17.352  0.00  0.00    +0.000 NA
ATOM     25  C   UNL     1      49.901   4.470  17.537  0.00  0.00    +0.000 A 
ATOM     26  C   UNL     1      48.654   4.729  16.997  0.00  0.00    +0.000 A 
ATOM     27  C   UNL     1      48.498   5.881  16.215  0.00  0.00    +0.000 A 
BRANCH  26  28
ATOM     28  C   UNL     1      47.557   3.838  17.224  0.00  0.00    +0.000 C 
ATOM     29  N   UNL     1      46.670   3.120  17.420  0.00  0.00    +0.000 NA
ENDBRANCH  26  28
ENDBRANCH  21  22
ENDBRANCH  20  21
ENDBRANCH  19  20
ENDBRANCH   5  19
TORSDOF 8
ENDMDL
MODEL 6
REMARK VINA RESULT:    -7.164      4.289      7.756
REMARK INTER + INTRA:         -10.947
REMARK INTER:                  -9.676
REMARK INTRA:                  -1.271
REMARK UNBOUND:                -0.432
REMARK  Name = 
REMARK  9 active torsions:
REMARK  status: ('A' for Active; 'I' for Inactive)
REMARK    1  A    between atoms: C_1  and  O_2
REMARK    2  A    between atoms: O_2  and  C_3
REMARK    3  A    between atoms: C_5  and  C_6
REMARK    4  A    between atoms: C_12  and  C_13
REMARK    5  A    between atoms: C_17  and  C_18
REMARK    6  A    between atoms: C_18  and  C_19
REMARK    7  A    between atoms: C_19  and  O_20
REMARK    8  A    between atoms: O_20  and  C_21
REMARK    9  A    between atoms: C_25  and  C_26
REMARK                            x       y       z     vdW  Elec       q    Type
REMARK                         _______ _______ _______ _____ _____    ______ ____
ROOT
ATOM      1  C   UNL     1      48.225   6.733  13.486  0.00  0.00    +0.000 A 
ATOM      2  C   UNL     1      49.189   7.253  12.612  0.00  0.00    +0.000 A 
ATOM      3  C   UNL     1      50.355   7.858  13.096  0.00  0.00    +0.000 A 
ATOM      4  C   UNL     1      50.571   7.978  14.470  0.00  0.00    +0.000 A 
ATOM      5  C   UNL     1      49.613   7.523  15.379  0.00  0.00    +0.000 A 
ATOM      6  C   UNL     1      48.455   6.910  14.861  0.00  0.00    +0.000 A 
ENDROOT
BRANCH   1  12
ATOM      7  C   UNL     1      46.002   6.615  12.224  0.00  0.00    +0.000 A 
ATOM      8  N   UNL     1      44.897   5.937  11.826  0.00  0.00    +0.000 NA
ATOM      9  C   UNL     1      44.816   4.631  12.205  0.00  0.00    +0.000 A 
ATOM     10  C   UNL     1      45.831   4.040  12.944  0.00  0.00    +0.000 A 
ATOM     11  N   UNL     1      46.939   4.709  13.341  0.00  0.00    +0.000 NA
ATOM     12  C   UNL     1      47.033   6.020  12.975  0.00  0.00    +0.000 A 
BRANCH   9  13
ATOM     13  C   UNL     1      43.610   3.797  11.844  0.00  0.00    +0.000 C 
ATOM     14  F   UNL     1      43.514   2.623  12.529  0.00  0.00    +0.000 F 
ATOM     15  F   UNL     1      42.435   4.455  12.063  0.00  0.00    +0.000 F 
ATOM     16  F   UNL     1      43.594   3.456  10.522  0.00  0.00    +0.000 F 
ENDBRANCH   9  13
BRANCH   7  18
ATOM     17  C   UNL     1      45.435   8.831  12.717  0.00  0.00    +0.000 C 
ATOM     18  O   UNL     1      46.110   7.935  11.841  0.00  0.00    +0.000 OA
ENDBRANCH   7  18
ENDBRANCH   1  12
BRANCH   5  19
ATOM     19  C   UNL     1      49.833   7.713  16.871  0.00  0.00    +0.000 C 
BRANCH  19  20
ATOM     20  C   UNL     1      48.563   7.508  17.703  0.00  0.00    +0.000 C 
BRANCH  20  21
ATOM     21  O   UNL     1      48.683   6.453  18.656  0.00  0.00    +0.000 OA
BRANCH  21  22
ATOM     22  C   UNL     1      48.539   5.194  18.121  0.00  0.00    +0.000 A 
ATOM     23  C   UNL     1      47.256   4.805  17.769  0.00  0.00    +0.000 A 
ATOM     24  N   UNL     1      46.944   3.592  17.244  0.00  0.00    +0.000 NA
ATOM     25  C   UNL     1      47.965   2.720  17.062  0.00  0.00    +0.000 A 
ATOM     26  C   UNL     1      49.281   3.011  17.376  0.00  0.00    +0.000 A 
ATOM     27  C   UNL     1      49.569   4.273  17.914  0.00  0.00    +0.000 A 
BRANCH  26  28
ATOM     28  C   UNL     1      50.316   2.045  17.167  0.00  0.00    +0.000 C 
ATOM     29  N   UNL     1      51.144   1.255  16.992  0.00  0.00    +0.000 NA
ENDBRANCH  26  28
ENDBRANCH  21  22
ENDBRANCH  20  21
ENDBRANCH  19  20
ENDBRANCH   5  19
TORSDOF 8
ENDMDL
MODEL 7
REMARK VINA RESULT:    -6.952      4.243      8.034
REMARK INTER + INTRA:         -10.635
REMARK INTER:                  -9.309
REMARK INTRA:                  -1.327
REMARK UNBOUND:                -0.432
REMARK  Name = 
REMARK  9 active torsions:
REMARK  status: ('A' for Active; 'I' for Inactive)
REMARK    1  A    between atoms: C_1  and  O_2
REMARK    2  A    between atoms: O_2  and  C_3
REMARK    3  A    between atoms: C_5  and  C_6
REMARK    4  A    between atoms: C_12  and  C_13
REMARK    5  A    between atoms: C_17  and  C_18
REMARK    6  A    between atoms: C_18  and  C_19
REMARK    7  A    between atoms: C_19  and  O_20
REMARK    8  A    between atoms: O_20  and  C_21
REMARK    9  A    between atoms: C_25  and  C_26
REMARK                            x       y       z     vdW  Elec       q    Type
REMARK                         _______ _______ _______ _____ _____    ______ ____
ROOT
ATOM      1  C   UNL     1      47.942   6.793  13.125  0.00  0.00    +0.000 A 
ATOM      2  C   UNL     1      49.008   6.973  12.233  0.00  0.00    +0.000 A 
ATOM      3  C   UNL     1      50.082   7.812  12.547  0.00  0.00    +0.000 A 
ATOM      4  C   UNL     1      50.102   8.514  13.754  0.00  0.00    +0.000 A 
ATOM      5  C   UNL     1      49.036   8.408  14.650  0.00  0.00    +0.000 A 
ATOM      6  C   UNL     1      47.974   7.546  14.310  0.00  0.00    +0.000 A 
ENDROOT
BRANCH   1  12
ATOM      7  C   UNL     1      46.722   4.560  13.396  0.00  0.00    +0.000 A 
ATOM      8  N   UNL     1      45.735   3.696  13.051  0.00  0.00    +0.000 NA
ATOM      9  C   UNL     1      44.858   4.124  12.100  0.00  0.00    +0.000 A 
ATOM     10  C   UNL     1      44.978   5.387  11.540  0.00  0.00    +0.000 A 
ATOM     11  N   UNL     1      45.958   6.257  11.882  0.00  0.00    +0.000 NA
ATOM     12  C   UNL     1      46.848   5.841  12.829  0.00  0.00    +0.000 A 
BRANCH   9  13
ATOM     13  C   UNL     1      43.744   3.226  11.620  0.00  0.00    +0.000 C 
ATOM     14  F   UNL     1      43.414   2.229  12.488  0.00  0.00    +0.000 F 
ATOM     15  F   UNL     1      42.588   3.909  11.379  0.00  0.00    +0.000 F 
ATOM     16  F   UNL     1      44.051   2.604  10.443  0.00  0.00    +0.000 F 
ENDBRANCH   9  13
BRANCH   7  18
ATOM     17  C   UNL     1      47.069   4.188  15.680  0.00  0.00    +0.000 C 
ATOM     18  O   UNL     1      47.613   4.152  14.366  0.00  0.00    +0.000 OA
ENDBRANCH   7  18
ENDBRANCH   1  12
BRANCH   5  19
ATOM     19  C   UNL     1      49.042   9.222  15.934  0.00  0.00    +0.000 C 
BRANCH  19  20
ATOM     20  C   UNL     1      48.975   8.361  17.200  0.00  0.00    +0.000 C 
BRANCH  20  21
ATOM     21  O   UNL     1      50.079   7.466  17.327  0.00  0.00    +0.000 OA
BRANCH  21  22
ATOM     22  C   UNL     1      49.737   6.211  17.773  0.00  0.00    +0.000 A 
ATOM     23  C   UNL     1      48.805   6.142  18.797  0.00  0.00    +0.000 A 
ATOM     24  N   UNL     1      48.374   4.983  19.360  0.00  0.00    +0.000 NA
ATOM     25  C   UNL     1      48.899   3.832  18.875  0.00  0.00    +0.000 A 
ATOM     26  C   UNL     1      49.831   3.791  17.853  0.00  0.00    +0.000 A 
ATOM     27  C   UNL     1      50.254   5.004  17.294  0.00  0.00    +0.000 A 
BRANCH  26  28
ATOM     28  C   UNL     1      50.356   2.543  17.389  0.00  0.00    +0.000 C 
ATOM     29  N   UNL     1      50.786   1.539  17.002  0.00  0.00    +0.000 NA
ENDBRANCH  26  28
ENDBRANCH  21  22
ENDBRANCH  20  21
ENDBRANCH  19  20
ENDBRANCH   5  19
TORSDOF 8
ENDMDL
MODEL 8
REMARK VINA RESULT:    -6.460      4.393      8.010
REMARK INTER + INTRA:          -9.914
REMARK INTER:                  -8.507
REMARK INTRA:                  -1.407
REMARK UNBOUND:                -0.432
REMARK  Name = 
REMARK  9 active torsions:
REMARK  status: ('A' for Active; 'I' for Inactive)
REMARK    1  A    between atoms: C_1  and  O_2
REMARK    2  A    between atoms: O_2  and  C_3
REMARK    3  A    between atoms: C_5  and  C_6
REMARK    4  A    between atoms: C_12  and  C_13
REMARK    5  A    between atoms: C_17  and  C_18
REMARK    6  A    between atoms: C_18  and  C_19
REMARK    7  A    between atoms: C_19  and  O_20
REMARK    8  A    between atoms: O_20  and  C_21
REMARK    9  A    between atoms: C_25  and  C_26
REMARK                            x       y       z     vdW  Elec       q    Type
REMARK                         _______ _______ _______ _____ _____    ______ ____
ROOT
ATOM      1  C   UNL     1      47.778   7.891  12.758  0.00  0.00    +0.000 A 
ATOM      2  C   UNL     1      48.774   8.198  11.821  0.00  0.00    +0.000 A 
ATOM      3  C   UNL     1      49.947   8.859  12.201  0.00  0.00    +0.000 A 
ATOM      4  C   UNL     1      50.140   9.251  13.527  0.00  0.00    +0.000 A 
ATOM      5  C   UNL     1      49.151   9.014  14.485  0.00  0.00    +0.000 A 
ATOM      6  C   UNL     1      47.986   8.338  14.073  0.00  0.00    +0.000 A 
ENDROOT
BRANCH   1  12
ATOM      7  C   UNL     1      45.317   7.682  12.087  0.00  0.00    +0.000 A 
ATOM      8  N   UNL     1      44.226   6.932  11.796  0.00  0.00    +0.000 NA
ATOM      9  C   UNL     1      44.397   5.580  11.804  0.00  0.00    +0.000 A 
ATOM     10  C   UNL     1      45.636   5.022  12.082  0.00  0.00    +0.000 A 
ATOM     11  N   UNL     1      46.731   5.764  12.370  0.00  0.00    +0.000 NA
ATOM     12  C   UNL     1      46.575   7.119  12.371  0.00  0.00    +0.000 A 
BRANCH   9  13
ATOM     13  C   UNL     1      43.236   4.655  11.527  0.00  0.00    +0.000 C 
ATOM     14  F   UNL     1      43.248   4.098  10.284  0.00  0.00    +0.000 F 
ATOM     15  F   UNL     1      43.179   3.611  12.404  0.00  0.00    +0.000 F 
ATOM     16  F   UNL     1      42.031   5.289  11.636  0.00  0.00    +0.000 F 
ENDBRANCH   9  13
BRANCH   7  18
ATOM     17  C   UNL     1      44.273   9.510  11.067  0.00  0.00    +0.000 C 
ATOM     18  O   UNL     1      45.169   9.052  12.073  0.00  0.00    +0.000 OA
ENDBRANCH   7  18
ENDBRANCH   1  12
BRANCH   5  19
ATOM     19  C   UNL     1      49.348   9.498  15.913  0.00  0.00    +0.000 C 
BRANCH  19  20
ATOM     20  C   UNL     1      48.472   8.760  16.930  0.00  0.00    +0.000 C 
BRANCH  20  21
ATOM     21  O   UNL     1      49.215   7.893  17.785  0.00  0.00    +0.000 OA
BRANCH  21  22
ATOM     22  C   UNL     1      48.792   6.585  17.765  0.00  0.00    +0.000 A 
ATOM     23  C   UNL     1      48.716   5.932  18.985  0.00  0.00    +0.000 A 
ATOM     24  N   UNL     1      48.333   4.637  19.135  0.00  0.00    +0.000 NA
ATOM     25  C   UNL     1      48.007   3.959  18.009  0.00  0.00    +0.000 A 
ATOM     26  C   UNL     1      48.044   4.518  16.744  0.00  0.00    +0.000 A 
ATOM     27  C   UNL     1      48.443   5.857  16.624  0.00  0.00    +0.000 A 
BRANCH  26  28
ATOM     28  C   UNL     1      47.694   3.748  15.590  0.00  0.00    +0.000 C 
ATOM     29  N   UNL     1      47.419   3.114  14.661  0.00  0.00    +0.000 NA
ENDBRANCH  26  28
ENDBRANCH  21  22
ENDBRANCH  20  21
ENDBRANCH  19  20
ENDBRANCH   5  19
TORSDOF 8
ENDMDL
MODEL 9
REMARK VINA RESULT:    -6.387      4.201      7.998
REMARK INTER + INTRA:          -9.806
REMARK INTER:                  -8.399
REMARK INTRA:                  -1.406
REMARK UNBOUND:                -0.432
REMARK  Name = 
REMARK  9 active torsions:
REMARK  status: ('A' for Active; 'I' for Inactive)
REMARK    1  A    between atoms: C_1  and  O_2
REMARK    2  A    between atoms: O_2  and  C_3
REMARK    3  A    between atoms: C_5  and  C_6
REMARK    4  A    between atoms: C_12  and  C_13
REMARK    5  A    between atoms: C_17  and  C_18
REMARK    6  A    between atoms: C_18  and  C_19
REMARK    7  A    between atoms: C_19  and  O_20
REMARK    8  A    between atoms: O_20  and  C_21
REMARK    9  A    between atoms: C_25  and  C_26
REMARK                            x       y       z     vdW  Elec       q    Type
REMARK                         _______ _______ _______ _____ _____    ______ ____
ROOT
ATOM      1  C   UNL     1      48.566   7.533  14.593  0.00  0.00    +0.000 A 
ATOM      2  C   UNL     1      48.106   8.722  15.173  0.00  0.00    +0.000 A 
ATOM      3  C   UNL     1      48.983   9.599  15.820  0.00  0.00    +0.000 A 
ATOM      4  C   UNL     1      50.341   9.293  15.924  0.00  0.00    +0.000 A 
ATOM      5  C   UNL     1      50.836   8.092  15.408  0.00  0.00    +0.000 A 
ATOM      6  C   UNL     1      49.930   7.235  14.753  0.00  0.00    +0.000 A 
ENDROOT
BRANCH   1  12
ATOM      7  C   UNL     1      46.915   7.032  12.703  0.00  0.00    +0.000 A 
ATOM      8  N   UNL     1      46.043   6.203  12.076  0.00  0.00    +0.000 NA
ATOM      9  C   UNL     1      45.897   4.958  12.610  0.00  0.00    +0.000 A 
ATOM     10  C   UNL     1      46.625   4.573  13.726  0.00  0.00    +0.000 A 
ATOM     11  N   UNL     1      47.500   5.393  14.355  0.00  0.00    +0.000 NA
ATOM     12  C   UNL     1      47.653   6.646  13.837  0.00  0.00    +0.000 A 
BRANCH   9  13
ATOM     13  C   UNL     1      44.925   3.971  12.008  0.00  0.00    +0.000 C 
ATOM     14  F   UNL     1      45.490   2.791  11.627  0.00  0.00    +0.000 F 
ATOM     15  F   UNL     1      43.916   3.644  12.865  0.00  0.00    +0.000 F 
ATOM     16  F   UNL     1      44.311   4.464  10.893  0.00  0.00    +0.000 F 
ENDBRANCH   9  13
BRANCH   7  18
ATOM     17  C   UNL     1      45.897   9.073  12.182  0.00  0.00    +0.000 C 
ATOM     18  O   UNL     1      47.087   8.293  12.173  0.00  0.00    +0.000 OA
ENDBRANCH   7  18
ENDBRANCH   1  12
BRANCH   5  19
ATOM     19  C   UNL     1      52.306   7.743  15.579  0.00  0.00    +0.000 C 
BRANCH  19  20
ATOM     20  C   UNL     1      52.533   6.421  16.320  0.00  0.00    +0.000 C 
BRANCH  20  21
ATOM     21  O   UNL     1      51.664   6.250  17.438  0.00  0.00    +0.000 OA
BRANCH  21  22
ATOM     22  C   UNL     1      51.014   5.037  17.464  0.00  0.00    +0.000 A 
ATOM     23  C   UNL     1      51.806   3.904  17.554  0.00  0.00    +0.000 A 
ATOM     24  N   UNL     1      51.322   2.634  17.574  0.00  0.00    +0.000 NA
ATOM     25  C   UNL     1      49.977   2.489  17.501  0.00  0.00    +0.000 A 
ATOM     26  C   UNL     1      49.099   3.554  17.412  0.00  0.00    +0.000 A 
ATOM     27  C   UNL     1      49.631   4.851  17.395  0.00  0.00    +0.000 A 
BRANCH  26  28
ATOM     28  C   UNL     1      47.687   3.336  17.331  0.00  0.00    +0.000 C 
ATOM     29  N   UNL     1      46.546   3.147  17.270  0.00  0.00    +0.000 NA
ENDBRANCH  26  28
ENDBRANCH  21  22
ENDBRANCH  20  21
ENDBRANCH  19  20
ENDBRANCH   5  19
TORSDOF 8
ENDMDL
