MODEL 1
REMARK VINA RESULT:    -7.554      0.000      0.000
REMARK INTER + INTRA:          -9.790
REMARK INTER:                  -9.321
REMARK INTRA:                  -0.469
REMARK UNBOUND:                -0.469
REMARK  Name = 
REMARK  4 active torsions:
REMARK  status: ('A' for Active; 'I' for Inactive)
REMARK    1  A    between atoms: C_6  and  N_7
REMARK    2  A    between atoms: N_7  and  C_8
REMARK    3  A    between atoms: C_8  and  C_9
REMARK    4  A    between atoms: C_9  and  C_12
REMARK                            x       y       z     vdW  Elec       q    Type
REMARK                         _______ _______ _______ _____ _____    ______ ____
ROOT
ATOM      1  N   UNL     1      44.558   4.617  11.358  0.00  0.00    +0.000 N 
ATOM      2  H   UNL     1      43.710   4.511  11.914  0.00  0.00    +0.000 HD
ENDROOT
BRANCH   1   8
ATOM      3  N   UNL     1      47.019   3.579  15.160  0.00  0.00    +0.000 N 
ATOM      4  C   UNL     1      46.770   4.488  14.132  0.00  0.00    +0.000 A 
ATOM      5  C   UNL     1      47.490   5.671  14.067  0.00  0.00    +0.000 A 
ATOM      6  C   UNL     1      47.211   6.557  13.038  0.00  0.00    +0.000 A 
ATOM      7  C   UNL     1      46.228   6.227  12.114  0.00  0.00    +0.000 A 
ATOM      8  C   UNL     1      45.571   5.007  12.219  0.00  0.00    +0.000 A 
ATOM      9  N   UNL     1      45.839   4.145  13.222  0.00  0.00    +0.000 NA
ATOM     10  H   UNL     1      46.948   4.022  16.068  0.00  0.00    +0.000 HD
ATOM     11  H   UNL     1      46.346   2.824  15.055  0.00  0.00    +0.000 HD
ENDBRANCH   1   8
BRANCH   1  12
ATOM     12  C   UNL     1      44.814   3.559  10.371  0.00  0.00    +0.000 C 
BRANCH  12  13
ATOM     13  C   UNL     1      45.096   4.063   8.933  0.00  0.00    +0.000 C 
ATOM     14  F   UNL     1      43.878   4.314   8.354  0.00  0.00    +0.000 F 
ATOM     15  F   UNL     1      45.694   5.291   9.027  0.00  0.00    +0.000 F 
BRANCH  13  16
ATOM     16  C   UNL     1      45.913   3.092   8.101  0.00  0.00    +0.000 A 
ATOM     17  C   UNL     1      46.629   3.528   6.976  0.00  0.00    +0.000 A 
ATOM     18  C   UNL     1      47.371   2.620   6.215  0.00  0.00    +0.000 A 
ATOM     19  C   UNL     1      47.403   1.273   6.570  0.00  0.00    +0.000 A 
ATOM     20  C   UNL     1      46.698   0.828   7.686  0.00  0.00    +0.000 A 
ATOM     21  C   UNL     1      45.958   1.733   8.449  0.00  0.00    +0.000 A 
ENDBRANCH  13  16
ENDBRANCH  12  13
ENDBRANCH   1  12
TORSDOF 4
ENDMDL
MODEL 2
REMARK VINA RESULT:    -7.485      2.453      5.997
REMARK INTER + INTRA:          -9.705
REMARK INTER:                  -9.138
REMARK INTRA:                  -0.567
REMARK UNBOUND:                -0.469
REMARK  Name = 
REMARK  4 active torsions:
REMARK  status: ('A' for Active; 'I' for Inactive)
REMARK    1  A    between atoms: C_6  and  N_7
REMARK    2  A    between atoms: N_7  and  C_8
REMARK    3  A    between atoms: C_8  and  C_9
REMARK    4  A    between atoms: C_9  and  C_12
REMARK                            x       y       z     vdW  Elec       q    Type
REMARK                         _______ _______ _______ _____ _____    ______ ____
ROOT
ATOM      1  N   UNL     1      43.899   4.775   9.663  0.00  0.00    +0.000 N 
ATOM      2  H   UNL     1      44.379   5.674   9.615  0.00  0.00    +0.000 HD
ENDROOT
BRANCH   1   8
ATOM      3  N   UNL     1      47.012   3.931   6.319  0.00  0.00    +0.000 N 
ATOM      4  C   UNL     1      46.250   3.425   7.371  0.00  0.00    +0.000 A 
ATOM      5  C   UNL     1      46.336   2.081   7.701  0.00  0.00    +0.000 A 
ATOM      6  C   UNL     1      45.557   1.607   8.746  0.00  0.00    +0.000 A 
ATOM      7  C   UNL     1      44.727   2.494   9.422  0.00  0.00    +0.000 A 
ATOM      8  C   UNL     1      44.719   3.835   9.061  0.00  0.00    +0.000 A 
ATOM      9  N   UNL     1      45.473   4.297   8.042  0.00  0.00    +0.000 NA
ATOM     10  H   UNL     1      46.859   3.405   5.467  0.00  0.00    +0.000 HD
ATOM     11  H   UNL     1      46.750   4.908   6.209  0.00  0.00    +0.000 HD
ENDBRANCH   1   8
BRANCH   1  12
ATOM     12  C   UNL     1      43.256   4.460  10.946  0.00  0.00    +0.000 C 
BRANCH  12  13
ATOM     13  C   UNL     1      43.361   5.572  12.020  0.00  0.00    +0.000 C 
ATOM     14  F   UNL     1      42.921   6.733  11.435  0.00  0.00    +0.000 F 
ATOM     15  F   UNL     1      42.437   5.304  12.995  0.00  0.00    +0.000 F 
BRANCH  13  16
ATOM     16  C   UNL     1      44.759   5.735  12.587  0.00  0.00    +0.000 A 
ATOM     17  C   UNL     1      45.435   6.961  12.501  0.00  0.00    +0.000 A 
ATOM     18  C   UNL     1      46.726   7.094  13.022  0.00  0.00    +0.000 A 
ATOM     19  C   UNL     1      47.350   6.006  13.630  0.00  0.00    +0.000 A 
ATOM     20  C   UNL     1      46.687   4.784  13.723  0.00  0.00    +0.000 A 
ATOM     21  C   UNL     1      45.397   4.649  13.206  0.00  0.00    +0.000 A 
ENDBRANCH  13  16
ENDBRANCH  12  13
ENDBRANCH   1  12
TORSDOF 4
ENDMDL
MODEL 3
REMARK VINA RESULT:    -7.458      2.458      6.093
REMARK INTER + INTRA:          -9.672
REMARK INTER:                  -9.110
REMARK INTRA:                  -0.562
REMARK UNBOUND:                -0.469
REMARK  Name = 
REMARK  4 active torsions:
REMARK  status: ('A' for Active; 'I' for Inactive)
REMARK    1  A    between atoms: C_6  and  N_7
REMARK    2  A    between atoms: N_7  and  C_8
REMARK    3  A    between atoms: C_8  and  C_9
REMARK    4  A    between atoms: C_9  and  C_12
REMARK                            x       y       z     vdW  Elec       q    Type
REMARK                         _______ _______ _______ _____ _____    ______ ____
ROOT
ATOM      1  N   UNL     1      43.900   4.809   9.652  0.00  0.00    +0.000 N 
ATOM      2  H   UNL     1      44.397   5.698   9.603  0.00  0.00    +0.000 HD
ENDROOT
BRANCH   1   8
ATOM      3  N   UNL     1      47.061   3.896   6.372  0.00  0.00    +0.000 N 
ATOM      4  C   UNL     1      46.264   3.405   7.406  0.00  0.00    +0.000 A 
ATOM      5  C   UNL     1      46.308   2.059   7.733  0.00  0.00    +0.000 A 
ATOM      6  C   UNL     1      45.495   1.602   8.759  0.00  0.00    +0.000 A 
ATOM      7  C   UNL     1      44.674   2.507   9.421  0.00  0.00    +0.000 A 
ATOM      8  C   UNL     1      44.709   3.850   9.064  0.00  0.00    +0.000 A 
ATOM      9  N   UNL     1      45.496   4.295   8.063  0.00  0.00    +0.000 NA
ATOM     10  H   UNL     1      46.913   3.376   5.515  0.00  0.00    +0.000 HD
ATOM     11  H   UNL     1      46.827   4.879   6.260  0.00  0.00    +0.000 HD
ENDBRANCH   1   8
BRANCH   1  12
ATOM     12  C   UNL     1      43.238   4.514  10.930  0.00  0.00    +0.000 C 
BRANCH  12  13
ATOM     13  C   UNL     1      43.363   5.626  12.002  0.00  0.00    +0.000 C 
ATOM     14  F   UNL     1      42.955   6.796  11.411  0.00  0.00    +0.000 F 
ATOM     15  F   UNL     1      42.426   5.383  12.971  0.00  0.00    +0.000 F 
BRANCH  13  16
ATOM     16  C   UNL     1      44.761   5.757  12.578  0.00  0.00    +0.000 A 
ATOM     17  C   UNL     1      45.379   4.679  13.229  0.00  0.00    +0.000 A 
ATOM     18  C   UNL     1      46.664   4.817  13.760  0.00  0.00    +0.000 A 
ATOM     19  C   UNL     1      47.341   6.030  13.647  0.00  0.00    +0.000 A 
ATOM     20  C   UNL     1      46.738   7.108  13.000  0.00  0.00    +0.000 A 
ATOM     21  C   UNL     1      45.456   6.972  12.467  0.00  0.00    +0.000 A 
ENDBRANCH  13  16
ENDBRANCH  12  13
ENDBRANCH   1  12
TORSDOF 4
ENDMDL
MODEL 4
REMARK VINA RESULT:    -7.443      2.568      5.859
REMARK INTER + INTRA:          -9.653
REMARK INTER:                  -8.977
REMARK INTRA:                  -0.676
REMARK UNBOUND:                -0.469
REMARK  Name = 
REMARK  4 active torsions:
REMARK  status: ('A' for Active; 'I' for Inactive)
REMARK    1  A    between atoms: C_6  and  N_7
REMARK    2  A    between atoms: N_7  and  C_8
REMARK    3  A    between atoms: C_8  and  C_9
REMARK    4  A    between atoms: C_9  and  C_12
REMARK                            x       y       z     vdW  Elec       q    Type
REMARK                         _______ _______ _______ _____ _____    ______ ____
ROOT
ATOM      1  N   UNL     1      44.096   2.650  10.225  0.00  0.00    +0.000 N 
ATOM      2  H   UNL     1      43.396   1.939  10.015  0.00  0.00    +0.000 HD
ENDROOT
BRANCH   1   8
ATOM      3  N   UNL     1      46.987   0.215   7.523  0.00  0.00    +0.000 N 
ATOM      4  C   UNL     1      46.442   1.459   7.842  0.00  0.00    +0.000 A 
ATOM      5  C   UNL     1      46.832   2.585   7.133  0.00  0.00    +0.000 A 
ATOM      6  C   UNL     1      46.279   3.808   7.482  0.00  0.00    +0.000 A 
ATOM      7  C   UNL     1      45.356   3.857   8.520  0.00  0.00    +0.000 A 
ATOM      8  C   UNL     1      44.984   2.682   9.162  0.00  0.00    +0.000 A 
ATOM      9  N   UNL     1      45.525   1.492   8.826  0.00  0.00    +0.000 NA
ATOM     10  H   UNL     1      48.000   0.242   7.540  0.00  0.00    +0.000 HD
ATOM     11  H   UNL     1      46.618  -0.450   8.198  0.00  0.00    +0.000 HD
ENDBRANCH   1   8
BRANCH   1  12
ATOM     12  C   UNL     1      43.584   3.910  10.779  0.00  0.00    +0.000 C 
BRANCH  12  13
ATOM     13  C   UNL     1      43.907   4.143  12.277  0.00  0.00    +0.000 C 
ATOM     14  F   UNL     1      42.843   4.825  12.812  0.00  0.00    +0.000 F 
ATOM     15  F   UNL     1      43.889   2.926  12.906  0.00  0.00    +0.000 F 
BRANCH  13  16
ATOM     16  C   UNL     1      45.210   4.886  12.507  0.00  0.00    +0.000 A 
ATOM     17  C   UNL     1      45.985   4.649  13.653  0.00  0.00    +0.000 A 
ATOM     18  C   UNL     1      47.180   5.347  13.853  0.00  0.00    +0.000 A 
ATOM     19  C   UNL     1      47.608   6.285  12.916  0.00  0.00    +0.000 A 
ATOM     20  C   UNL     1      46.848   6.527  11.774  0.00  0.00    +0.000 A 
ATOM     21  C   UNL     1      45.656   5.830  11.569  0.00  0.00    +0.000 A 
ENDBRANCH  13  16
ENDBRANCH  12  13
ENDBRANCH   1  12
TORSDOF 4
ENDMDL
MODEL 5
REMARK VINA RESULT:    -7.208      1.432      2.357
REMARK INTER + INTRA:          -9.363
REMARK INTER:                  -8.934
REMARK INTRA:                  -0.429
REMARK UNBOUND:                -0.469
REMARK  Name = 
REMARK  4 active torsions:
REMARK  status: ('A' for Active; 'I' for Inactive)
REMARK    1  A    between atoms: C_6  and  N_7
REMARK    2  A    between atoms: N_7  and  C_8
REMARK    3  A    between atoms: C_8  and  C_9
REMARK    4  A    between atoms: C_9  and  C_12
REMARK                            x       y       z     vdW  Elec       q    Type
REMARK                         _______ _______ _______ _____ _____    ______ ____
ROOT
ATOM      1  N   UNL     1      44.216   4.582  11.319  0.00  0.00    +0.000 N 
ATOM      2  H   UNL     1      43.557   4.210  12.003  0.00  0.00    +0.000 HD
ENDROOT
BRANCH   1   8
ATOM      3  N   UNL     1      44.763   9.068  12.399  0.00  0.00    +0.000 N 
ATOM      4  C   UNL     1      45.268   7.769  12.474  0.00  0.00    +0.000 A 
ATOM      5  C   UNL     1      46.468   7.533  13.126  0.00  0.00    +0.000 A 
ATOM      6  C   UNL     1      46.948   6.233  13.172  0.00  0.00    +0.000 A 
ATOM      7  C   UNL     1      46.209   5.221  12.571  0.00  0.00    +0.000 A 
ATOM      8  C   UNL     1      44.996   5.526  11.967  0.00  0.00    +0.000 A 
ATOM      9  N   UNL     1      44.530   6.791  11.917  0.00  0.00    +0.000 NA
ATOM     10  H   UNL     1      45.445   9.706  12.009  0.00  0.00    +0.000 HD
ATOM     11  H   UNL     1      43.920   9.023  11.831  0.00  0.00    +0.000 HD
ENDBRANCH   1   8
BRANCH   1  12
ATOM     12  C   UNL     1      44.856   3.592  10.442  0.00  0.00    +0.000 C 
BRANCH  12  13
ATOM     13  C   UNL     1      45.134   4.083   8.998  0.00  0.00    +0.000 C 
ATOM     14  F   UNL     1      43.918   4.377   8.436  0.00  0.00    +0.000 F 
ATOM     15  F   UNL     1      45.777   5.289   9.081  0.00  0.00    +0.000 F 
BRANCH  13  16
ATOM     16  C   UNL     1      45.903   3.082   8.157  0.00  0.00    +0.000 A 
ATOM     17  C   UNL     1      45.914   1.718   8.486  0.00  0.00    +0.000 A 
ATOM     18  C   UNL     1      46.633   0.808   7.705  0.00  0.00    +0.000 A 
ATOM     19  C   UNL     1      47.346   1.253   6.593  0.00  0.00    +0.000 A 
ATOM     20  C   UNL     1      47.341   2.604   6.255  0.00  0.00    +0.000 A 
ATOM     21  C   UNL     1      46.622   3.514   7.031  0.00  0.00    +0.000 A 
ENDBRANCH  13  16
ENDBRANCH  12  13
ENDBRANCH   1  12
TORSDOF 4
ENDMDL
MODEL 6
REMARK VINA RESULT:    -7.055      1.888      2.803
REMARK INTER + INTRA:          -9.174
REMARK INTER:                  -8.541
REMARK INTRA:                  -0.633
REMARK UNBOUND:                -0.469
REMARK  Name = 
REMARK  4 active torsions:
REMARK  status: ('A' for Active; 'I' for Inactive)
REMARK    1  A    between atoms: C_6  and  N_7
REMARK    2  A    between atoms: N_7  and  C_8
REMARK    3  A    between atoms: C_8  and  C_9
REMARK    4  A    between atoms: C_9  and  C_12
REMARK                            x       y       z     vdW  Elec       q    Type
REMARK                         _______ _______ _______ _____ _____    ______ ____
ROOT
ATOM      1  N   UNL     1      44.684   4.264  13.279  0.00  0.00    +0.000 N 
ATOM      2  H   UNL     1      44.632   4.017  14.267  0.00  0.00    +0.000 HD
ENDROOT
BRANCH   1   8
ATOM      3  N   UNL     1      44.725   8.827  12.404  0.00  0.00    +0.000 N 
ATOM      4  C   UNL     1      45.459   7.682  12.714  0.00  0.00    +0.000 A 
ATOM      5  C   UNL     1      46.836   7.763  12.859  0.00  0.00    +0.000 A 
ATOM      6  C   UNL     1      47.536   6.604  13.157  0.00  0.00    +0.000 A 
ATOM      7  C   UNL     1      46.836   5.412  13.303  0.00  0.00    +0.000 A 
ATOM      8  C   UNL     1      45.452   5.413  13.180  0.00  0.00    +0.000 A 
ATOM      9  N   UNL     1      44.769   6.539  12.886  0.00  0.00    +0.000 NA
ATOM     10  H   UNL     1      45.086   9.282  11.574  0.00  0.00    +0.000 HD
ATOM     11  H   UNL     1      43.759   8.533  12.283  0.00  0.00    +0.000 HD
ENDBRANCH   1   8
BRANCH   1  12
ATOM     12  C   UNL     1      44.924   3.150  12.352  0.00  0.00    +0.000 C 
BRANCH  12  13
ATOM     13  C   UNL     1      44.057   3.172  11.067  0.00  0.00    +0.000 C 
ATOM     14  F   UNL     1      43.280   2.041  11.092  0.00  0.00    +0.000 F 
ATOM     15  F   UNL     1      43.166   4.206  11.178  0.00  0.00    +0.000 F 
BRANCH  13  16
ATOM     16  C   UNL     1      44.872   3.253   9.790  0.00  0.00    +0.000 A 
ATOM     17  C   UNL     1      45.243   4.493   9.247  0.00  0.00    +0.000 A 
ATOM     18  C   UNL     1      45.988   4.552   8.065  0.00  0.00    +0.000 A 
ATOM     19  C   UNL     1      46.365   3.377   7.418  0.00  0.00    +0.000 A 
ATOM     20  C   UNL     1      46.004   2.140   7.948  0.00  0.00    +0.000 A 
ATOM     21  C   UNL     1      45.263   2.078   9.129  0.00  0.00    +0.000 A 
ENDBRANCH  13  16
ENDBRANCH  12  13
ENDBRANCH   1  12
TORSDOF 4
ENDMDL
MODEL 7
REMARK VINA RESULT:    -6.889      2.576      6.306
REMARK INTER + INTRA:          -8.970
REMARK INTER:                  -8.363
REMARK INTRA:                  -0.607
REMARK UNBOUND:                -0.469
REMARK  Name = 
REMARK  4 active torsions:
REMARK  status: ('A' for Active; 'I' for Inactive)
REMARK    1  A    between atoms: C_6  and  N_7
REMARK    2  A    between atoms: N_7  and  C_8
REMARK    3  A    between atoms: C_8  and  C_9
REMARK    4  A    between atoms: C_9  and  C_12
REMARK                            x       y       z     vdW  Elec       q    Type
REMARK                         _______ _______ _______ _____ _____    ______ ____
ROOT
ATOM      1  N   UNL     1      44.975   5.438   9.708  0.00  0.00    +0.000 N 
ATOM      2  H   UNL     1      45.768   6.080   9.713  0.00  0.00    +0.000 HD
ENDROOT
BRANCH   1   8
ATOM      3  N   UNL     1      47.145   3.625   6.021  0.00  0.00    +0.000 N 
ATOM      4  C   UNL     1      46.444   3.394   7.204  0.00  0.00    +0.000 A 
ATOM      5  C   UNL     1      46.188   2.094   7.612  0.00  0.00    +0.000 A 
ATOM      6  C   UNL     1      45.479   1.899   8.787  0.00  0.00    +0.000 A 
ATOM      7  C   UNL     1      45.058   3.008   9.511  0.00  0.00    +0.000 A 
ATOM      8  C   UNL     1      45.383   4.282   9.062  0.00  0.00    +0.000 A 
ATOM      9  N   UNL     1      46.069   4.474   7.916  0.00  0.00    +0.000 NA
ATOM     10  H   UNL     1      46.715   3.147   5.239  0.00  0.00    +0.000 HD
ATOM     11  H   UNL     1      47.164   4.633   5.882  0.00  0.00    +0.000 HD
ENDBRANCH   1   8
BRANCH   1  12
ATOM     12  C   UNL     1      44.223   5.338  10.965  0.00  0.00    +0.000 C 
BRANCH  12  13
ATOM     13  C   UNL     1      45.064   5.552  12.249  0.00  0.00    +0.000 C 
ATOM     14  F   UNL     1      44.186   5.566  13.303  0.00  0.00    +0.000 F 
ATOM     15  F   UNL     1      45.823   4.429  12.446  0.00  0.00    +0.000 F 
BRANCH  13  16
ATOM     16  C   UNL     1      45.907   6.813  12.216  0.00  0.00    +0.000 A 
ATOM     17  C   UNL     1      45.319   8.080  12.353  0.00  0.00    +0.000 A 
ATOM     18  C   UNL     1      46.108   9.233  12.314  0.00  0.00    +0.000 A 
ATOM     19  C   UNL     1      47.487   9.131  12.138  0.00  0.00    +0.000 A 
ATOM     20  C   UNL     1      48.083   7.879  12.002  0.00  0.00    +0.000 A 
ATOM     21  C   UNL     1      47.297   6.725  12.044  0.00  0.00    +0.000 A 
ENDBRANCH  13  16
ENDBRANCH  12  13
ENDBRANCH   1  12
TORSDOF 4
ENDMDL
MODEL 8
REMARK VINA RESULT:    -6.469      2.693      4.343
REMARK INTER + INTRA:          -8.452
REMARK INTER:                  -7.998
REMARK INTRA:                  -0.453
REMARK UNBOUND:                -0.469
REMARK  Name = 
REMARK  4 active torsions:
REMARK  status: ('A' for Active; 'I' for Inactive)
REMARK    1  A    between atoms: C_6  and  N_7
REMARK    2  A    between atoms: N_7  and  C_8
REMARK    3  A    between atoms: C_8  and  C_9
REMARK    4  A    between atoms: C_9  and  C_12
REMARK                            x       y       z     vdW  Elec       q    Type
REMARK                         _______ _______ _______ _____ _____    ______ ____
ROOT
ATOM      1  N   UNL     1      46.863   3.554  14.165  0.00  0.00    +0.000 N 
ATOM      2  H   UNL     1      47.390   2.934  13.550  0.00  0.00    +0.000 HD
ENDROOT
BRANCH   1   8
ATOM      3  N   UNL     1      50.078   1.524  16.835  0.00  0.00    +0.000 N 
ATOM      4  C   UNL     1      49.043   2.455  16.742  0.00  0.00    +0.000 A 
ATOM      5  C   UNL     1      48.675   3.192  17.857  0.00  0.00    +0.000 A 
ATOM      6  C   UNL     1      47.636   4.101  17.732  0.00  0.00    +0.000 A 
ATOM      7  C   UNL     1      47.008   4.242  16.500  0.00  0.00    +0.000 A 
ATOM      8  C   UNL     1      47.454   3.496  15.416  0.00  0.00    +0.000 A 
ATOM      9  N   UNL     1      48.463   2.607  15.536  0.00  0.00    +0.000 NA
ATOM     10  H   UNL     1      49.914   0.866  17.587  0.00  0.00    +0.000 HD
ATOM     11  H   UNL     1      50.137   1.058  15.933  0.00  0.00    +0.000 HD
ENDBRANCH   1   8
BRANCH   1  12
ATOM     12  C   UNL     1      46.495   4.858  13.597  0.00  0.00    +0.000 C 
BRANCH  12  13
ATOM     13  C   UNL     1      45.101   4.906  12.922  0.00  0.00    +0.000 C 
ATOM     14  F   UNL     1      44.290   4.050  13.624  0.00  0.00    +0.000 F 
ATOM     15  F   UNL     1      44.568   6.148  13.146  0.00  0.00    +0.000 F 
BRANCH  13  16
ATOM     16  C   UNL     1      45.130   4.554  11.447  0.00  0.00    +0.000 A 
ATOM     17  C   UNL     1      44.651   3.317  10.989  0.00  0.00    +0.000 A 
ATOM     18  C   UNL     1      44.691   3.004   9.627  0.00  0.00    +0.000 A 
ATOM     19  C   UNL     1      45.209   3.921   8.714  0.00  0.00    +0.000 A 
ATOM     20  C   UNL     1      45.686   5.153   9.156  0.00  0.00    +0.000 A 
ATOM     21  C   UNL     1      45.645   5.469  10.516  0.00  0.00    +0.000 A 
ENDBRANCH  13  16
ENDBRANCH  12  13
ENDBRANCH   1  12
TORSDOF 4
ENDMDL
MODEL 9
REMARK VINA RESULT:    -6.394      2.352      3.275
REMARK INTER + INTRA:          -8.358
REMARK INTER:                  -7.688
REMARK INTRA:                  -0.670
REMARK UNBOUND:                -0.469
REMARK  Name = 
REMARK  4 active torsions:
REMARK  status: ('A' for Active; 'I' for Inactive)
REMARK    1  A    between atoms: C_6  and  N_7
REMARK    2  A    between atoms: N_7  and  C_8
REMARK    3  A    between atoms: C_8  and  C_9
REMARK    4  A    between atoms: C_9  and  C_12
REMARK                            x       y       z     vdW  Elec       q    Type
REMARK                         _______ _______ _______ _____ _____    ______ ____
ROOT
ATOM      1  N   UNL     1      46.192   5.844  13.633  0.00  0.00    +0.000 N 
ATOM      2  H   UNL     1      46.226   5.841  14.652  0.00  0.00    +0.000 HD
ENDROOT
BRANCH   1   8
ATOM      3  N   UNL     1      50.495   7.250  14.676  0.00  0.00    +0.000 N 
ATOM      4  C   UNL     1      49.475   7.190  13.727  0.00  0.00    +0.000 A 
ATOM      5  C   UNL     1      49.660   7.762  12.478  0.00  0.00    +0.000 A 
ATOM      6  C   UNL     1      48.622   7.694  11.561  0.00  0.00    +0.000 A 
ATOM      7  C   UNL     1      47.444   7.055  11.925  0.00  0.00    +0.000 A 
ATOM      8  C   UNL     1      47.342   6.471  13.182  0.00  0.00    +0.000 A 
ATOM      9  N   UNL     1      48.349   6.540  14.077  0.00  0.00    +0.000 NA
ATOM     10  H   UNL     1      50.802   8.204  14.827  0.00  0.00    +0.000 HD
ATOM     11  H   UNL     1      50.129   6.833  15.529  0.00  0.00    +0.000 HD
ENDBRANCH   1   8
BRANCH   1  12
ATOM     12  C   UNL     1      45.755   4.591  13.002  0.00  0.00    +0.000 C 
BRANCH  12  13
ATOM     13  C   UNL     1      44.559   4.734  12.026  0.00  0.00    +0.000 C 
ATOM     14  F   UNL     1      43.500   4.075  12.597  0.00  0.00    +0.000 F 
ATOM     15  F   UNL     1      44.182   6.050  12.013  0.00  0.00    +0.000 F 
BRANCH  13  16
ATOM     16  C   UNL     1      44.849   4.208  10.633  0.00  0.00    +0.000 A 
ATOM     17  C   UNL     1      45.478   5.015   9.672  0.00  0.00    +0.000 A 
ATOM     18  C   UNL     1      45.733   4.519   8.391  0.00  0.00    +0.000 A 
ATOM     19  C   UNL     1      45.361   3.218   8.058  0.00  0.00    +0.000 A 
ATOM     20  C   UNL     1      44.738   2.406   9.004  0.00  0.00    +0.000 A 
ATOM     21  C   UNL     1      44.485   2.898  10.286  0.00  0.00    +0.000 A 
ENDBRANCH  13  16
ENDBRANCH  12  13
ENDBRANCH   1  12
TORSDOF 4
ENDMDL
