MODEL 1
REMARK VINA RESULT:    -7.228      0.000      0.000
REMARK INTER + INTRA:         -11.601
REMARK INTER:                 -10.186
REMARK INTRA:                  -1.415
REMARK UNBOUND:                -1.415
REMARK  Name = 
REMARK  8 active torsions:
REMARK  status: ('A' for Active; 'I' for Inactive)
REMARK    1  A    between atoms: C_1  and  O_2
REMARK    2  A    between atoms: O_2  and  C_3
REMARK    3  A    between atoms: C_8  and  C_9
REMARK    4  A    between atoms: N_11  and  C_12
REMARK    5  A    between atoms: C_12  and  C_13
REMARK    6  A    between atoms: C_16  and  C_17
REMARK    7  A    between atoms: C_17  and  N_18
REMARK    8  A    between atoms: C_19  and  C_21
REMARK                            x       y       z     vdW  Elec       q    Type
REMARK                         _______ _______ _______ _____ _____    ______ ____
ROOT
ATOM      1  C   UNL     1      44.695   9.290  11.779  0.00  0.00    +0.000 A 
ATOM      2  C   UNL     1      45.656   9.147  12.790  0.00  0.00    +0.000 A 
ATOM      3  C   UNL     1      46.132   7.885  13.159  0.00  0.00    +0.000 A 
ATOM      4  C   UNL     1      45.635   6.734  12.533  0.00  0.00    +0.000 A 
ATOM      5  C   UNL     1      44.671   6.881  11.537  0.00  0.00    +0.000 A 
ATOM      6  F   UNL     1      44.170   5.795  10.931  0.00  0.00    +0.000 F 
ATOM      7  C   UNL     1      44.194   8.137  11.160  0.00  0.00    +0.000 A 
ENDROOT
BRANCH   1   8
ATOM      8  C   UNL     1      44.184  10.657  11.414  0.00  0.00    +0.000 C 
BRANCH   8  11
ATOM      9  C   UNL     1      41.810  10.915  10.816  0.00  0.00    +0.000 C 
ATOM     10  O   UNL     1      42.065  10.938   9.615  0.00  0.00    +0.000 OA
ATOM     11  N   UNL     1      42.794  10.795  11.765  0.00  0.00    +0.000 N 
ATOM     12  H   UNL     1      42.527  10.801  12.744  0.00  0.00    +0.000 HD
BRANCH   9  18
ATOM     13  C   UNL     1      39.967  11.560  12.511  0.00  0.00    +0.000 A 
ATOM     14  C   UNL     1      38.625  11.429  12.904  0.00  0.00    +0.000 A 
ATOM     15  C   UNL     1      37.700  10.773  12.088  0.00  0.00    +0.000 A 
ATOM     16  C   UNL     1      38.096  10.256  10.863  0.00  0.00    +0.000 A 
ATOM     17  C   UNL     1      39.430  10.354  10.471  0.00  0.00    +0.000 A 
ATOM     18  C   UNL     1      40.387  10.976  11.297  0.00  0.00    +0.000 A 
BRANCH  13  20
ATOM     19  C   UNL     1      40.451  12.902  14.436  0.00  0.00    +0.000 C 
ATOM     20  O   UNL     1      40.898  12.242  13.256  0.00  0.00    +0.000 OA
ENDBRANCH  13  20
ENDBRANCH   9  18
ENDBRANCH   8  11
ENDBRANCH   1   8
BRANCH   4  21
ATOM     21  C   UNL     1      46.146   5.372  12.908  0.00  0.00    +0.000 C 
BRANCH  21  22
ATOM     22  N   UNL     1      46.633   5.334  14.265  0.00  0.00    +0.000 N 
ATOM     23  C   UNL     1      47.200   4.219  14.824  0.00  0.00    +0.000 C 
ATOM     24  O   UNL     1      47.316   3.162  14.213  0.00  0.00    +0.000 OA
ATOM     25  H   UNL     1      46.348   6.101  14.865  0.00  0.00    +0.000 HD
BRANCH  23  26
ATOM     26  C   UNL     1      47.735   4.382  16.183  0.00  0.00    +0.000 A 
ATOM     27  C   UNL     1      47.360   3.498  17.185  0.00  0.00    +0.000 A 
ATOM     28  S   UNL     1      48.100   3.815  18.688  0.00  0.00    +0.000 S 
ATOM     29  C   UNL     1      48.917   5.172  18.063  0.00  0.00    +0.000 A 
ATOM     30  N   UNL     1      49.718   5.933  18.853  0.00  0.00    +0.000 NA
ATOM     31  C   UNL     1      50.253   6.947  18.253  0.00  0.00    +0.000 A 
ATOM     32  N   UNL     1      50.069   7.257  16.933  0.00  0.00    +0.000 N 
ATOM     33  C   UNL     1      49.314   6.485  16.084  0.00  0.00    +0.000 A 
ATOM     34  O   UNL     1      49.252   6.734  14.884  0.00  0.00    +0.000 OA
ATOM     35  C   UNL     1      48.655   5.358  16.717  0.00  0.00    +0.000 A 
ATOM     36  H   UNL     1      50.538   8.048  16.515  0.00  0.00    +0.000 HD
ENDBRANCH  23  26
ENDBRANCH  21  22
ENDBRANCH   4  21
TORSDOF 7
ENDMDL
MODEL 2
REMARK VINA RESULT:    -7.192      5.032     10.639
REMARK INTER + INTRA:         -11.550
REMARK INTER:                 -10.257
REMARK INTRA:                  -1.293
REMARK UNBOUND:                -1.415
REMARK  Name = 
REMARK  8 active torsions:
REMARK  status: ('A' for Active; 'I' for Inactive)
REMARK    1  A    between atoms: C_1  and  O_2
REMARK    2  A    between atoms: O_2  and  C_3
REMARK    3  A    between atoms: C_8  and  C_9
REMARK    4  A    between atoms: N_11  and  C_12
REMARK    5  A    between atoms: C_12  and  C_13
REMARK    6  A    between atoms: C_16  and  C_17
REMARK    7  A    between atoms: C_17  and  N_18
REMARK    8  A    between atoms: C_19  and  C_21
REMARK                            x       y       z     vdW  Elec       q    Type
REMARK                         _______ _______ _______ _____ _____    ______ ____
ROOT
ATOM      1  C   UNL     1      50.472   7.400  15.246  0.00  0.00    +0.000 A 
ATOM      2  C   UNL     1      49.139   6.997  15.407  0.00  0.00    +0.000 A 
ATOM      3  C   UNL     1      48.226   7.089  14.353  0.00  0.00    +0.000 A 
ATOM      4  C   UNL     1      48.627   7.610  13.116  0.00  0.00    +0.000 A 
ATOM      5  C   UNL     1      49.951   8.020  12.965  0.00  0.00    +0.000 A 
ATOM      6  F   UNL     1      50.359   8.534  11.794  0.00  0.00    +0.000 F 
ATOM      7  C   UNL     1      50.869   7.928  14.011  0.00  0.00    +0.000 A 
ENDROOT
BRANCH   1   8
ATOM      8  C   UNL     1      51.432   7.311  16.402  0.00  0.00    +0.000 C 
BRANCH   8  11
ATOM      9  C   UNL     1      51.345   5.158  17.592  0.00  0.00    +0.000 C 
ATOM     10  O   UNL     1      50.497   5.572  18.378  0.00  0.00    +0.000 OA
ATOM     11  N   UNL     1      51.867   5.952  16.603  0.00  0.00    +0.000 N 
ATOM     12  H   UNL     1      52.579   5.564  15.994  0.00  0.00    +0.000 HD
BRANCH   9  18
ATOM     13  C   UNL     1      51.061   2.608  17.273  0.00  0.00    +0.000 A 
ATOM     14  C   UNL     1      51.573   1.323  17.515  0.00  0.00    +0.000 A 
ATOM     15  C   UNL     1      52.837   1.150  18.084  0.00  0.00    +0.000 A 
ATOM     16  C   UNL     1      53.614   2.255  18.403  0.00  0.00    +0.000 A 
ATOM     17  C   UNL     1      53.108   3.538  18.195  0.00  0.00    +0.000 A 
ATOM     18  C   UNL     1      51.820   3.733  17.660  0.00  0.00    +0.000 A 
BRANCH  13  20
ATOM     19  C   UNL     1      48.673   2.685  17.463  0.00  0.00    +0.000 C 
ATOM     20  O   UNL     1      49.847   2.824  16.668  0.00  0.00    +0.000 OA
ENDBRANCH  13  20
ENDBRANCH   9  18
ENDBRANCH   8  11
ENDBRANCH   1   8
BRANCH   4  21
ATOM     21  C   UNL     1      47.662   7.702  11.969  0.00  0.00    +0.000 C 
BRANCH  21  22
ATOM     22  N   UNL     1      46.894   6.492  11.813  0.00  0.00    +0.000 N 
ATOM     23  C   UNL     1      45.524   6.469  11.825  0.00  0.00    +0.000 C 
ATOM     24  O   UNL     1      44.850   7.482  11.989  0.00  0.00    +0.000 OA
ATOM     25  H   UNL     1      47.406   5.621  11.908  0.00  0.00    +0.000 HD
BRANCH  23  26
ATOM     26  C   UNL     1      44.899   5.168  11.551  0.00  0.00    +0.000 A 
ATOM     27  C   UNL     1      44.132   4.550  12.529  0.00  0.00    +0.000 A 
ATOM     28  S   UNL     1      43.458   3.065  12.031  0.00  0.00    +0.000 S 
ATOM     29  C   UNL     1      44.202   3.175  10.503  0.00  0.00    +0.000 A 
ATOM     30  N   UNL     1      44.053   2.191   9.579  0.00  0.00    +0.000 NA
ATOM     31  C   UNL     1      44.696   2.395   8.475  0.00  0.00    +0.000 A 
ATOM     32  N   UNL     1      45.458   3.499   8.208  0.00  0.00    +0.000 N 
ATOM     33  C   UNL     1      45.591   4.544   9.091  0.00  0.00    +0.000 A 
ATOM     34  O   UNL     1      46.199   5.564   8.782  0.00  0.00    +0.000 OA
ATOM     35  C   UNL     1      44.925   4.347  10.364  0.00  0.00    +0.000 A 
ATOM     36  H   UNL     1      45.914   3.613   7.314  0.00  0.00    +0.000 HD
ENDBRANCH  23  26
ENDBRANCH  21  22
ENDBRANCH   4  21
TORSDOF 7
ENDMDL
MODEL 3
REMARK VINA RESULT:    -7.134      5.210      7.151
REMARK INTER + INTRA:         -11.468
REMARK INTER:                 -10.354
REMARK INTRA:                  -1.115
REMARK UNBOUND:                -1.415
REMARK  Name = 
REMARK  8 active torsions:
REMARK  status: ('A' for Active; 'I' for Inactive)
REMARK    1  A    between atoms: C_1  and  O_2
REMARK    2  A    between atoms: O_2  and  C_3
REMARK    3  A    between atoms: C_8  and  C_9
REMARK    4  A    between atoms: N_11  and  C_12
REMARK    5  A    between atoms: C_12  and  C_13
REMARK    6  A    between atoms: C_16  and  C_17
REMARK    7  A    between atoms: C_17  and  N_18
REMARK    8  A    between atoms: C_19  and  C_21
REMARK                            x       y       z     vdW  Elec       q    Type
REMARK                         _______ _______ _______ _____ _____    ______ ____
ROOT
ATOM      1  C   UNL     1      47.372   6.185  14.010  0.00  0.00    +0.000 A 
ATOM      2  C   UNL     1      46.907   4.903  14.335  0.00  0.00    +0.000 A 
ATOM      3  C   UNL     1      47.332   4.256  15.498  0.00  0.00    +0.000 A 
ATOM      4  C   UNL     1      48.254   4.874  16.353  0.00  0.00    +0.000 A 
ATOM      5  C   UNL     1      48.722   6.144  16.019  0.00  0.00    +0.000 A 
ATOM      6  F   UNL     1      49.614   6.754  16.814  0.00  0.00    +0.000 F 
ATOM      7  C   UNL     1      48.299   6.799  14.862  0.00  0.00    +0.000 A 
ENDROOT
BRANCH   1   8
ATOM      8  C   UNL     1      46.915   6.854  12.742  0.00  0.00    +0.000 C 
BRANCH   8  11
ATOM      9  C   UNL     1      45.437   5.973  10.982  0.00  0.00    +0.000 C 
ATOM     10  O   UNL     1      44.631   6.887  11.135  0.00  0.00    +0.000 OA
ATOM     11  N   UNL     1      46.576   5.876  11.740  0.00  0.00    +0.000 N 
ATOM     12  H   UNL     1      47.197   5.089  11.584  0.00  0.00    +0.000 HD
BRANCH   9  18
ATOM     13  C   UNL     1      44.295   3.877   9.989  0.00  0.00    +0.000 A 
ATOM     14  C   UNL     1      44.293   2.898   8.982  0.00  0.00    +0.000 A 
ATOM     15  C   UNL     1      45.160   2.990   7.891  0.00  0.00    +0.000 A 
ATOM     16  C   UNL     1      46.029   4.067   7.781  0.00  0.00    +0.000 A 
ATOM     17  C   UNL     1      46.063   5.032   8.786  0.00  0.00    +0.000 A 
ATOM     18  C   UNL     1      45.224   4.936   9.914  0.00  0.00    +0.000 A 
BRANCH  13  20
ATOM     19  C   UNL     1      43.641   2.883  12.070  0.00  0.00    +0.000 C 
ATOM     20  O   UNL     1      43.424   3.855  11.051  0.00  0.00    +0.000 OA
ENDBRANCH  13  20
ENDBRANCH   9  18
ENDBRANCH   8  11
ENDBRANCH   1   8
BRANCH   4  21
ATOM     21  C   UNL     1      48.709   4.198  17.614  0.00  0.00    +0.000 C 
BRANCH  21  22
ATOM     22  N   UNL     1      50.110   3.858  17.567  0.00  0.00    +0.000 N 
ATOM     23  C   UNL     1      50.996   4.203  18.553  0.00  0.00    +0.000 C 
ATOM     24  O   UNL     1      50.662   4.847  19.544  0.00  0.00    +0.000 OA
ATOM     25  H   UNL     1      50.463   3.537  16.672  0.00  0.00    +0.000 HD
BRANCH  23  26
ATOM     26  C   UNL     1      52.364   3.691  18.398  0.00  0.00    +0.000 A 
ATOM     27  C   UNL     1      53.447   4.506  18.700  0.00  0.00    +0.000 A 
ATOM     28  S   UNL     1      54.957   3.740  18.493  0.00  0.00    +0.000 S 
ATOM     29  C   UNL     1      54.218   2.304  17.952  0.00  0.00    +0.000 A 
ATOM     30  N   UNL     1      54.962   1.233  17.574  0.00  0.00    +0.000 NA
ATOM     31  C   UNL     1      54.270   0.222  17.159  0.00  0.00    +0.000 A 
ATOM     32  N   UNL     1      52.904   0.182  17.104  0.00  0.00    +0.000 N 
ATOM     33  C   UNL     1      52.110   1.221  17.529  0.00  0.00    +0.000 A 
ATOM     34  O   UNL     1      50.887   1.115  17.561  0.00  0.00    +0.000 OA
ATOM     35  C   UNL     1      52.837   2.398  17.963  0.00  0.00    +0.000 A 
ATOM     36  H   UNL     1      52.419  -0.649  16.795  0.00  0.00    +0.000 HD
ENDBRANCH  23  26
ENDBRANCH  21  22
ENDBRANCH   4  21
TORSDOF 7
ENDMDL
MODEL 4
REMARK VINA RESULT:    -6.989      0.808      1.653
REMARK INTER + INTRA:         -11.265
REMARK INTER:                 -10.252
REMARK INTRA:                  -1.013
REMARK UNBOUND:                -1.415
REMARK  Name = 
REMARK  8 active torsions:
REMARK  status: ('A' for Active; 'I' for Inactive)
REMARK    1  A    between atoms: C_1  and  O_2
REMARK    2  A    between atoms: O_2  and  C_3
REMARK    3  A    between atoms: C_8  and  C_9
REMARK    4  A    between atoms: N_11  and  C_12
REMARK    5  A    between atoms: C_12  and  C_13
REMARK    6  A    between atoms: C_16  and  C_17
REMARK    7  A    between atoms: C_17  and  N_18
REMARK    8  A    between atoms: C_19  and  C_21
REMARK                            x       y       z     vdW  Elec       q    Type
REMARK                         _______ _______ _______ _____ _____    ______ ____
ROOT
ATOM      1  C   UNL     1      44.537   9.000  11.652  0.00  0.00    +0.000 A 
ATOM      2  C   UNL     1      45.551   8.936  12.618  0.00  0.00    +0.000 A 
ATOM      3  C   UNL     1      46.033   7.707  13.076  0.00  0.00    +0.000 A 
ATOM      4  C   UNL     1      45.489   6.510  12.590  0.00  0.00    +0.000 A 
ATOM      5  C   UNL     1      44.472   6.581  11.639  0.00  0.00    +0.000 A 
ATOM      6  F   UNL     1      43.925   5.450  11.166  0.00  0.00    +0.000 F 
ATOM      7  C   UNL     1      43.989   7.803  11.173  0.00  0.00    +0.000 A 
ENDROOT
BRANCH   1   8
ATOM      8  C   UNL     1      44.021  10.336  11.188  0.00  0.00    +0.000 C 
BRANCH   8  11
ATOM      9  C   UNL     1      41.662  11.034  11.254  0.00  0.00    +0.000 C 
ATOM     10  O   UNL     1      41.589  11.070  10.029  0.00  0.00    +0.000 OA
ATOM     11  N   UNL     1      42.824  10.699  11.902  0.00  0.00    +0.000 N 
ATOM     12  H   UNL     1      42.833  10.704  12.917  0.00  0.00    +0.000 HD
BRANCH   9  18
ATOM     13  C   UNL     1      39.142  10.889  11.813  0.00  0.00    +0.000 A 
ATOM     14  C   UNL     1      38.082  11.341  12.616  0.00  0.00    +0.000 A 
ATOM     15  C   UNL     1      38.318  12.167  13.717  0.00  0.00    +0.000 A 
ATOM     16  C   UNL     1      39.615  12.539  14.043  0.00  0.00    +0.000 A 
ATOM     17  C   UNL     1      40.676  12.121  13.240  0.00  0.00    +0.000 A 
ATOM     18  C   UNL     1      40.454  11.321  12.102  0.00  0.00    +0.000 A 
BRANCH  13  20
ATOM     19  C   UNL     1      37.660   9.952  10.179  0.00  0.00    +0.000 C 
ATOM     20  O   UNL     1      38.962  10.034  10.753  0.00  0.00    +0.000 OA
ENDBRANCH  13  20
ENDBRANCH   9  18
ENDBRANCH   8  11
ENDBRANCH   1   8
BRANCH   4  21
ATOM     21  C   UNL     1      46.004   5.181  13.062  0.00  0.00    +0.000 C 
BRANCH  21  22
ATOM     22  N   UNL     1      46.567   5.262  14.387  0.00  0.00    +0.000 N 
ATOM     23  C   UNL     1      47.235   4.223  14.980  0.00  0.00    +0.000 C 
ATOM     24  O   UNL     1      47.386   3.136  14.429  0.00  0.00    +0.000 OA
ATOM     25  H   UNL     1      46.267   6.047  14.955  0.00  0.00    +0.000 HD
BRANCH  23  26
ATOM     26  C   UNL     1      47.833   4.506  16.292  0.00  0.00    +0.000 A 
ATOM     27  C   UNL     1      47.502   3.722  17.388  0.00  0.00    +0.000 A 
ATOM     28  S   UNL     1      48.312   4.171  18.819  0.00  0.00    +0.000 S 
ATOM     29  C   UNL     1      49.104   5.458  18.034  0.00  0.00    +0.000 A 
ATOM     30  N   UNL     1      49.944   6.282  18.713  0.00  0.00    +0.000 NA
ATOM     31  C   UNL     1      50.453   7.231  17.997  0.00  0.00    +0.000 A 
ATOM     32  N   UNL     1      50.210   7.419  16.665  0.00  0.00    +0.000 N 
ATOM     33  C   UNL     1      49.413   6.578  15.926  0.00  0.00    +0.000 A 
ATOM     34  O   UNL     1      49.297   6.715  14.712  0.00  0.00    +0.000 OA
ATOM     35  C   UNL     1      48.781   5.520  16.690  0.00  0.00    +0.000 A 
ATOM     36  H   UNL     1      50.662   8.165  16.154  0.00  0.00    +0.000 HD
ENDBRANCH  23  26
ENDBRANCH  21  22
ENDBRANCH   4  21
TORSDOF 7
ENDMDL
MODEL 5
REMARK VINA RESULT:    -6.603      4.813      6.559
REMARK INTER + INTRA:         -10.721
REMARK INTER:                  -9.682
REMARK INTRA:                  -1.039
REMARK UNBOUND:                -1.415
REMARK  Name = 
REMARK  8 active torsions:
REMARK  status: ('A' for Active; 'I' for Inactive)
REMARK    1  A    between atoms: C_1  and  O_2
REMARK    2  A    between atoms: O_2  and  C_3
REMARK    3  A    between atoms: C_8  and  C_9
REMARK    4  A    between atoms: N_11  and  C_12
REMARK    5  A    between atoms: C_12  and  C_13
REMARK    6  A    between atoms: C_16  and  C_17
REMARK    7  A    between atoms: C_17  and  N_18
REMARK    8  A    between atoms: C_19  and  C_21
REMARK                            x       y       z     vdW  Elec       q    Type
REMARK                         _______ _______ _______ _____ _____    ______ ____
ROOT
ATOM      1  C   UNL     1      47.237   7.835  12.510  0.00  0.00    +0.000 A 
ATOM      2  C   UNL     1      47.445   8.380  13.785  0.00  0.00    +0.000 A 
ATOM      3  C   UNL     1      48.732   8.679  14.239  0.00  0.00    +0.000 A 
ATOM      4  C   UNL     1      49.845   8.416  13.430  0.00  0.00    +0.000 A 
ATOM      5  C   UNL     1      49.633   7.863  12.168  0.00  0.00    +0.000 A 
ATOM      6  F   UNL     1      50.682   7.589  11.377  0.00  0.00    +0.000 F 
ATOM      7  C   UNL     1      48.351   7.565  11.705  0.00  0.00    +0.000 A 
ENDROOT
BRANCH   1   8
ATOM      8  C   UNL     1      45.843   7.503  12.051  0.00  0.00    +0.000 C 
BRANCH   8  11
ATOM      9  C   UNL     1      44.680   5.734  10.794  0.00  0.00    +0.000 C 
ATOM     10  O   UNL     1      43.575   6.176  11.101  0.00  0.00    +0.000 OA
ATOM     11  N   UNL     1      45.841   6.318  11.232  0.00  0.00    +0.000 N 
ATOM     12  H   UNL     1      46.726   5.899  10.964  0.00  0.00    +0.000 HD
BRANCH   9  18
ATOM     13  C   UNL     1      44.142   3.312  10.068  0.00  0.00    +0.000 A 
ATOM     14  C   UNL     1      44.449   2.239   9.216  0.00  0.00    +0.000 A 
ATOM     15  C   UNL     1      45.357   2.393   8.166  0.00  0.00    +0.000 A 
ATOM     16  C   UNL     1      45.957   3.624   7.940  0.00  0.00    +0.000 A 
ATOM     17  C   UNL     1      45.684   4.692   8.794  0.00  0.00    +0.000 A 
ATOM     18  C   UNL     1      44.801   4.545   9.882  0.00  0.00    +0.000 A 
BRANCH  13  20
ATOM     19  C   UNL     1      43.643   2.670  12.322  0.00  0.00    +0.000 C 
ATOM     20  O   UNL     1      43.216   3.220  11.079  0.00  0.00    +0.000 OA
ENDBRANCH  13  20
ENDBRANCH   9  18
ENDBRANCH   8  11
ENDBRANCH   1   8
BRANCH   4  21
ATOM     21  C   UNL     1      51.234   8.744  13.897  0.00  0.00    +0.000 C 
BRANCH  21  22
ATOM     22  N   UNL     1      51.804   7.678  14.683  0.00  0.00    +0.000 N 
ATOM     23  C   UNL     1      51.865   7.708  16.052  0.00  0.00    +0.000 C 
ATOM     24  O   UNL     1      51.452   8.659  16.709  0.00  0.00    +0.000 OA
ATOM     25  H   UNL     1      52.356   6.994  14.177  0.00  0.00    +0.000 HD
BRANCH  23  26
ATOM     26  C   UNL     1      52.384   6.496  16.700  0.00  0.00    +0.000 A 
ATOM     27  C   UNL     1      53.733   6.404  17.014  0.00  0.00    +0.000 A 
ATOM     28  S   UNL     1      54.155   4.945  17.790  0.00  0.00    +0.000 S 
ATOM     29  C   UNL     1      52.556   4.367  17.696  0.00  0.00    +0.000 A 
ATOM     30  N   UNL     1      52.229   3.135  18.163  0.00  0.00    +0.000 NA
ATOM     31  C   UNL     1      50.986   2.816  18.001  0.00  0.00    +0.000 A 
ATOM     32  N   UNL     1      50.042   3.623  17.429  0.00  0.00    +0.000 N 
ATOM     33  C   UNL     1      50.316   4.898  16.994  0.00  0.00    +0.000 A 
ATOM     34  O   UNL     1      49.425   5.633  16.578  0.00  0.00    +0.000 OA
ATOM     35  C   UNL     1      51.707   5.290  17.112  0.00  0.00    +0.000 A 
ATOM     36  H   UNL     1      49.078   3.327  17.356  0.00  0.00    +0.000 HD
ENDBRANCH  23  26
ENDBRANCH  21  22
ENDBRANCH   4  21
TORSDOF 7
ENDMDL
MODEL 6
REMARK VINA RESULT:    -6.558      6.908      9.076
REMARK INTER + INTRA:         -10.656
REMARK INTER:                  -9.530
REMARK INTRA:                  -1.126
REMARK UNBOUND:                -1.415
REMARK  Name = 
REMARK  8 active torsions:
REMARK  status: ('A' for Active; 'I' for Inactive)
REMARK    1  A    between atoms: C_1  and  O_2
REMARK    2  A    between atoms: O_2  and  C_3
REMARK    3  A    between atoms: C_8  and  C_9
REMARK    4  A    between atoms: N_11  and  C_12
REMARK    5  A    between atoms: C_12  and  C_13
REMARK    6  A    between atoms: C_16  and  C_17
REMARK    7  A    between atoms: C_17  and  N_18
REMARK    8  A    between atoms: C_19  and  C_21
REMARK                            x       y       z     vdW  Elec       q    Type
REMARK                         _______ _______ _______ _____ _____    ______ ____
ROOT
ATOM      1  C   UNL     1      48.153   8.092  12.393  0.00  0.00    +0.000 A 
ATOM      2  C   UNL     1      49.279   7.257  12.376  0.00  0.00    +0.000 A 
ATOM      3  C   UNL     1      50.511   7.716  11.902  0.00  0.00    +0.000 A 
ATOM      4  C   UNL     1      50.634   9.023  11.410  0.00  0.00    +0.000 A 
ATOM      5  C   UNL     1      49.509   9.845  11.418  0.00  0.00    +0.000 A 
ATOM      6  F   UNL     1      49.597  11.097  10.943  0.00  0.00    +0.000 F 
ATOM      7  C   UNL     1      48.277   9.396  11.894  0.00  0.00    +0.000 A 
ENDROOT
BRANCH   1   8
ATOM      8  C   UNL     1      46.833   7.568  12.889  0.00  0.00    +0.000 C 
BRANCH   8  11
ATOM      9  C   UNL     1      45.425   6.399  11.243  0.00  0.00    +0.000 C 
ATOM     10  O   UNL     1      44.772   7.413  11.010  0.00  0.00    +0.000 OA
ATOM     11  N   UNL     1      46.443   6.388  12.162  0.00  0.00    +0.000 N 
ATOM     12  H   UNL     1      46.937   5.517  12.329  0.00  0.00    +0.000 HD
BRANCH   9  18
ATOM     13  C   UNL     1      44.587   3.962  11.045  0.00  0.00    +0.000 A 
ATOM     14  C   UNL     1      44.516   2.797  10.264  0.00  0.00    +0.000 A 
ATOM     15  C   UNL     1      44.956   2.794   8.938  0.00  0.00    +0.000 A 
ATOM     16  C   UNL     1      45.456   3.957   8.368  0.00  0.00    +0.000 A 
ATOM     17  C   UNL     1      45.558   5.115   9.138  0.00  0.00    +0.000 A 
ATOM     18  C   UNL     1      45.157   5.127  10.489  0.00  0.00    +0.000 A 
BRANCH  13  20
ATOM     19  C   UNL     1      42.867   4.668  12.556  0.00  0.00    +0.000 C 
ATOM     20  O   UNL     1      44.118   4.024  12.334  0.00  0.00    +0.000 OA
ENDBRANCH  13  20
ENDBRANCH   9  18
ENDBRANCH   8  11
ENDBRANCH   1   8
BRANCH   4  21
ATOM     21  C   UNL     1      51.954   9.537  10.910  0.00  0.00    +0.000 C 
BRANCH  21  22
ATOM     22  N   UNL     1      52.289   8.993   9.618  0.00  0.00    +0.000 N 
ATOM     23  C   UNL     1      53.570   8.676   9.249  0.00  0.00    +0.000 C 
ATOM     24  O   UNL     1      54.532   8.852   9.991  0.00  0.00    +0.000 OA
ATOM     25  H   UNL     1      51.567   9.050   8.907  0.00  0.00    +0.000 HD
BRANCH  23  26
ATOM     26  C   UNL     1      53.722   8.038   7.935  0.00  0.00    +0.000 A 
ATOM     27  C   UNL     1      53.816   8.820   6.792  0.00  0.00    +0.000 A 
ATOM     28  S   UNL     1      54.021   7.916   5.360  0.00  0.00    +0.000 S 
ATOM     29  C   UNL     1      53.951   6.444   6.213  0.00  0.00    +0.000 A 
ATOM     30  N   UNL     1      54.036   5.254   5.564  0.00  0.00    +0.000 NA
ATOM     31  C   UNL     1      53.941   4.218   6.333  0.00  0.00    +0.000 A 
ATOM     32  N   UNL     1      53.783   4.268   7.691  0.00  0.00    +0.000 N 
ATOM     33  C   UNL     1      53.749   5.447   8.395  0.00  0.00    +0.000 A 
ATOM     34  O   UNL     1      53.709   5.455   9.622  0.00  0.00    +0.000 OA
ATOM     35  C   UNL     1      53.809   6.642   7.575  0.00  0.00    +0.000 A 
ATOM     36  H   UNL     1      53.743   3.421   8.241  0.00  0.00    +0.000 HD
ENDBRANCH  23  26
ENDBRANCH  21  22
ENDBRANCH   4  21
TORSDOF 7
ENDMDL
MODEL 7
REMARK VINA RESULT:    -6.545      4.676      6.426
REMARK INTER + INTRA:         -10.639
REMARK INTER:                  -9.768
REMARK INTRA:                  -0.871
REMARK UNBOUND:                -1.415
REMARK  Name = 
REMARK  8 active torsions:
REMARK  status: ('A' for Active; 'I' for Inactive)
REMARK    1  A    between atoms: C_1  and  O_2
REMARK    2  A    between atoms: O_2  and  C_3
REMARK    3  A    between atoms: C_8  and  C_9
REMARK    4  A    between atoms: N_11  and  C_12
REMARK    5  A    between atoms: C_12  and  C_13
REMARK    6  A    between atoms: C_16  and  C_17
REMARK    7  A    between atoms: C_17  and  N_18
REMARK    8  A    between atoms: C_19  and  C_21
REMARK                            x       y       z     vdW  Elec       q    Type
REMARK                         _______ _______ _______ _____ _____    ______ ____
ROOT
ATOM      1  C   UNL     1      46.791   7.691  12.731  0.00  0.00    +0.000 A 
ATOM      2  C   UNL     1      47.771   6.690  12.771  0.00  0.00    +0.000 A 
ATOM      3  C   UNL     1      48.960   6.873  13.483  0.00  0.00    +0.000 A 
ATOM      4  C   UNL     1      49.202   8.080  14.153  0.00  0.00    +0.000 A 
ATOM      5  C   UNL     1      48.229   9.077  14.100  0.00  0.00    +0.000 A 
ATOM      6  F   UNL     1      48.440  10.246  14.723  0.00  0.00    +0.000 F 
ATOM      7  C   UNL     1      47.038   8.900  13.395  0.00  0.00    +0.000 A 
ENDROOT
BRANCH   1   8
ATOM      8  C   UNL     1      45.528   7.478  11.941  0.00  0.00    +0.000 C 
BRANCH   8  11
ATOM      9  C   UNL     1      44.502   5.620  10.694  0.00  0.00    +0.000 C 
ATOM     10  O   UNL     1      43.367   6.000  10.967  0.00  0.00    +0.000 OA
ATOM     11  N   UNL     1      45.617   6.281  11.145  0.00  0.00    +0.000 N 
ATOM     12  H   UNL     1      46.531   5.911  10.905  0.00  0.00    +0.000 HD
BRANCH   9  18
ATOM     13  C   UNL     1      44.156   3.147  10.022  0.00  0.00    +0.000 A 
ATOM     14  C   UNL     1      44.546   2.083   9.194  0.00  0.00    +0.000 A 
ATOM     15  C   UNL     1      45.438   2.285   8.138  0.00  0.00    +0.000 A 
ATOM     16  C   UNL     1      45.939   3.554   7.883  0.00  0.00    +0.000 A 
ATOM     17  C   UNL     1      45.583   4.616   8.714  0.00  0.00    +0.000 A 
ATOM     18  C   UNL     1      44.717   4.424   9.808  0.00  0.00    +0.000 A 
BRANCH  13  20
ATOM     19  C   UNL     1      43.739   2.768  12.351  0.00  0.00    +0.000 C 
ATOM     20  O   UNL     1      43.242   3.006  11.038  0.00  0.00    +0.000 OA
ENDBRANCH  13  20
ENDBRANCH   9  18
ENDBRANCH   8  11
ENDBRANCH   1   8
BRANCH   4  21
ATOM     21  C   UNL     1      50.467   8.288  14.934  0.00  0.00    +0.000 C 
BRANCH  21  22
ATOM     22  N   UNL     1      50.249   8.170  16.355  0.00  0.00    +0.000 N 
ATOM     23  C   UNL     1      50.351   6.983  17.031  0.00  0.00    +0.000 C 
ATOM     24  O   UNL     1      50.618   5.925  16.469  0.00  0.00    +0.000 OA
ATOM     25  H   UNL     1      49.806   8.963  16.807  0.00  0.00    +0.000 HD
BRANCH  23  26
ATOM     26  C   UNL     1      50.197   7.058  18.490  0.00  0.00    +0.000 A 
ATOM     27  C   UNL     1      51.144   7.727  19.252  0.00  0.00    +0.000 A 
ATOM     28  S   UNL     1      50.791   7.743  20.921  0.00  0.00    +0.000 S 
ATOM     29  C   UNL     1      49.380   6.819  20.689  0.00  0.00    +0.000 A 
ATOM     30  N   UNL     1      48.606   6.447  21.740  0.00  0.00    +0.000 NA
ATOM     31  C   UNL     1      47.581   5.726  21.420  0.00  0.00    +0.000 A 
ATOM     32  N   UNL     1      47.256   5.357  20.143  0.00  0.00    +0.000 N 
ATOM     33  C   UNL     1      47.978   5.758  19.045  0.00  0.00    +0.000 A 
ATOM     34  O   UNL     1      47.602   5.495  17.906  0.00  0.00    +0.000 OA
ATOM     35  C   UNL     1      49.164   6.534  19.352  0.00  0.00    +0.000 A 
ATOM     36  H   UNL     1      46.424   4.815  19.954  0.00  0.00    +0.000 HD
ENDBRANCH  23  26
ENDBRANCH  21  22
ENDBRANCH   4  21
TORSDOF 7
ENDMDL
MODEL 8
REMARK VINA RESULT:    -6.462      5.043      7.591
REMARK INTER + INTRA:         -10.522
REMARK INTER:                  -9.885
REMARK INTRA:                  -0.637
REMARK UNBOUND:                -1.415
REMARK  Name = 
REMARK  8 active torsions:
REMARK  status: ('A' for Active; 'I' for Inactive)
REMARK    1  A    between atoms: C_1  and  O_2
REMARK    2  A    between atoms: O_2  and  C_3
REMARK    3  A    between atoms: C_8  and  C_9
REMARK    4  A    between atoms: N_11  and  C_12
REMARK    5  A    between atoms: C_12  and  C_13
REMARK    6  A    between atoms: C_16  and  C_17
REMARK    7  A    between atoms: C_17  and  N_18
REMARK    8  A    between atoms: C_19  and  C_21
REMARK                            x       y       z     vdW  Elec       q    Type
REMARK                         _______ _______ _______ _____ _____    ______ ____
ROOT
ATOM      1  C   UNL     1      45.417   5.393  11.599  0.00  0.00    +0.000 A 
ATOM      2  C   UNL     1      46.165   4.692  12.555  0.00  0.00    +0.000 A 
ATOM      3  C   UNL     1      46.995   5.366  13.457  0.00  0.00    +0.000 A 
ATOM      4  C   UNL     1      47.109   6.762  13.402  0.00  0.00    +0.000 A 
ATOM      5  C   UNL     1      46.371   7.452  12.442  0.00  0.00    +0.000 A 
ATOM      6  F   UNL     1      46.470   8.787  12.360  0.00  0.00    +0.000 F 
ATOM      7  C   UNL     1      45.538   6.788  11.542  0.00  0.00    +0.000 A 
ENDROOT
BRANCH   1   8
ATOM      8  C   UNL     1      44.547   4.643  10.627  0.00  0.00    +0.000 C 
BRANCH   8  11
ATOM      9  C   UNL     1      45.311   2.959   9.003  0.00  0.00    +0.000 C 
ATOM     10  O   UNL     1      44.701   2.060   9.577  0.00  0.00    +0.000 OA
ATOM     11  N   UNL     1      45.298   4.251   9.463  0.00  0.00    +0.000 N 
ATOM     12  H   UNL     1      45.836   4.951   8.960  0.00  0.00    +0.000 HD
BRANCH   9  18
ATOM     13  C   UNL     1      46.651   1.441   7.395  0.00  0.00    +0.000 A 
ATOM     14  C   UNL     1      47.448   1.355   6.243  0.00  0.00    +0.000 A 
ATOM     15  C   UNL     1      47.629   2.462   5.410  0.00  0.00    +0.000 A 
ATOM     16  C   UNL     1      47.003   3.665   5.706  0.00  0.00    +0.000 A 
ATOM     17  C   UNL     1      46.231   3.775   6.862  0.00  0.00    +0.000 A 
ATOM     18  C   UNL     1      46.069   2.681   7.735  0.00  0.00    +0.000 A 
BRANCH  13  20
ATOM     19  C   UNL     1      46.744  -0.930   7.728  0.00  0.00    +0.000 C 
ATOM     20  O   UNL     1      46.403   0.365   8.212  0.00  0.00    +0.000 OA
ENDBRANCH  13  20
ENDBRANCH   9  18
ENDBRANCH   8  11
ENDBRANCH   1   8
BRANCH   4  21
ATOM     21  C   UNL     1      47.984   7.502  14.372  0.00  0.00    +0.000 C 
BRANCH  21  22
ATOM     22  N   UNL     1      48.071   6.826  15.643  0.00  0.00    +0.000 N 
ATOM     23  C   UNL     1      49.257   6.413  16.190  0.00  0.00    +0.000 C 
ATOM     24  O   UNL     1      50.335   6.573  15.625  0.00  0.00    +0.000 OA
ATOM     25  H   UNL     1      47.199   6.473  16.024  0.00  0.00    +0.000 HD
BRANCH  23  26
ATOM     26  C   UNL     1      49.177   5.832  17.537  0.00  0.00    +0.000 A 
ATOM     27  C   UNL     1      48.759   4.518  17.700  0.00  0.00    +0.000 A 
ATOM     28  S   UNL     1      48.757   3.998  19.324  0.00  0.00    +0.000 S 
ATOM     29  C   UNL     1      49.276   5.525  19.872  0.00  0.00    +0.000 A 
ATOM     30  N   UNL     1      49.449   5.772  21.197  0.00  0.00    +0.000 NA
ATOM     31  C   UNL     1      49.818   6.981  21.470  0.00  0.00    +0.000 A 
ATOM     32  N   UNL     1      50.043   7.957  20.538  0.00  0.00    +0.000 N 
ATOM     33  C   UNL     1      49.936   7.736  19.186  0.00  0.00    +0.000 A 
ATOM     34  O   UNL     1      50.243   8.603  18.373  0.00  0.00    +0.000 OA
ATOM     35  C   UNL     1      49.481   6.407  18.826  0.00  0.00    +0.000 A 
ATOM     36  H   UNL     1      50.358   8.877  20.814  0.00  0.00    +0.000 HD
ENDBRANCH  23  26
ENDBRANCH  21  22
ENDBRANCH   4  21
TORSDOF 7
ENDMDL
MODEL 9
REMARK VINA RESULT:    -6.311      4.988      6.423
REMARK INTER + INTRA:         -10.309
REMARK INTER:                  -9.140
REMARK INTRA:                  -1.169
REMARK UNBOUND:                -1.415
REMARK  Name = 
REMARK  8 active torsions:
REMARK  status: ('A' for Active; 'I' for Inactive)
REMARK    1  A    between atoms: C_1  and  O_2
REMARK    2  A    between atoms: O_2  and  C_3
REMARK    3  A    between atoms: C_8  and  C_9
REMARK    4  A    between atoms: N_11  and  C_12
REMARK    5  A    between atoms: C_12  and  C_13
REMARK    6  A    between atoms: C_16  and  C_17
REMARK    7  A    between atoms: C_17  and  N_18
REMARK    8  A    between atoms: C_19  and  C_21
REMARK                            x       y       z     vdW  Elec       q    Type
REMARK                         _______ _______ _______ _____ _____    ______ ____
ROOT
ATOM      1  C   UNL     1      48.322   7.974  13.293  0.00  0.00    +0.000 A 
ATOM      2  C   UNL     1      49.294   7.056  13.714  0.00  0.00    +0.000 A 
ATOM      3  C   UNL     1      49.682   6.981  15.055  0.00  0.00    +0.000 A 
ATOM      4  C   UNL     1      49.116   7.845  16.003  0.00  0.00    +0.000 A 
ATOM      5  C   UNL     1      48.159   8.764  15.576  0.00  0.00    +0.000 A 
ATOM      6  F   UNL     1      47.609   9.610  16.460  0.00  0.00    +0.000 F 
ATOM      7  C   UNL     1      47.763   8.842  14.241  0.00  0.00    +0.000 A 
ENDROOT
BRANCH   1   8
ATOM      8  C   UNL     1      47.936   8.050  11.841  0.00  0.00    +0.000 C 
BRANCH   8  11
ATOM      9  C   UNL     1      45.945   6.754  11.198  0.00  0.00    +0.000 C 
ATOM     10  O   UNL     1      45.202   7.714  11.381  0.00  0.00    +0.000 OA
ATOM     11  N   UNL     1      47.298   6.831  11.416  0.00  0.00    +0.000 N 
ATOM     12  H   UNL     1      47.862   6.001  11.267  0.00  0.00    +0.000 HD
BRANCH   9  18
ATOM     13  C   UNL     1      44.711   4.497  11.462  0.00  0.00    +0.000 A 
ATOM     14  C   UNL     1      44.374   3.261  10.887  0.00  0.00    +0.000 A 
ATOM     15  C   UNL     1      44.668   2.988   9.549  0.00  0.00    +0.000 A 
ATOM     16  C   UNL     1      45.285   3.950   8.762  0.00  0.00    +0.000 A 
ATOM     17  C   UNL     1      45.652   5.172   9.325  0.00  0.00    +0.000 A 
ATOM     18  C   UNL     1      45.400   5.451  10.683  0.00  0.00    +0.000 A 
BRANCH  13  20
ATOM     19  C   UNL     1      43.256   4.203  13.343  0.00  0.00    +0.000 C 
ATOM     20  O   UNL     1      44.394   4.828  12.757  0.00  0.00    +0.000 OA
ENDBRANCH  13  20
ENDBRANCH   9  18
ENDBRANCH   8  11
ENDBRANCH   1   8
BRANCH   4  21
ATOM     21  C   UNL     1      49.511   7.767  17.449  0.00  0.00    +0.000 C 
BRANCH  21  22
ATOM     22  N   UNL     1      50.468   6.716  17.690  0.00  0.00    +0.000 N 
ATOM     23  C   UNL     1      50.477   5.961  18.834  0.00  0.00    +0.000 C 
ATOM     24  O   UNL     1      49.678   6.140  19.748  0.00  0.00    +0.000 OA
ATOM     25  H   UNL     1      51.274   6.693  17.074  0.00  0.00    +0.000 HD
BRANCH  23  26
ATOM     26  C   UNL     1      51.455   4.866  18.875  0.00  0.00    +0.000 A 
ATOM     27  C   UNL     1      52.630   5.013  19.599  0.00  0.00    +0.000 A 
ATOM     28  S   UNL     1      53.632   3.634  19.563  0.00  0.00    +0.000 S 
ATOM     29  C   UNL     1      52.550   2.804  18.543  0.00  0.00    +0.000 A 
ATOM     30  N   UNL     1      52.827   1.551  18.099  0.00  0.00    +0.000 NA
ATOM     31  C   UNL     1      51.931   1.055  17.310  0.00  0.00    +0.000 A 
ATOM     32  N   UNL     1      50.779   1.692  16.939  0.00  0.00    +0.000 N 
ATOM     33  C   UNL     1      50.431   2.936  17.408  0.00  0.00    +0.000 A 
ATOM     34  O   UNL     1      49.344   3.437  17.136  0.00  0.00    +0.000 OA
ATOM     35  C   UNL     1      51.424   3.558  18.263  0.00  0.00    +0.000 A 
ATOM     36  H   UNL     1      50.103   1.239  16.340  0.00  0.00    +0.000 HD
ENDBRANCH  23  26
ENDBRANCH  21  22
ENDBRANCH   4  21
TORSDOF 7
ENDMDL
