MODEL 1
REMARK VINA RESULT:    -8.022      0.000      0.000
REMARK INTER + INTRA:         -11.624
REMARK INTER:                 -10.835
REMARK INTRA:                  -0.789
REMARK UNBOUND:                -0.789
REMARK  Name = 
REMARK  6 active torsions:
REMARK  status: ('A' for Active; 'I' for Inactive)
REMARK    1  A    between atoms: C_2  and  C_19
REMARK    2  A    between atoms: N_3  and  C_4
REMARK    3  A    between atoms: C_4  and  C_5
REMARK    4  A    between atoms: C_8  and  C_9
REMARK    5  A    between atoms: C_9  and  O_10
REMARK    6  A    between atoms: O_10  and  C_11
REMARK                            x       y       z     vdW  Elec       q    Type
REMARK                         _______ _______ _______ _____ _____    ______ ____
ROOT
ATOM      1  O   UNL     1      48.575   8.264  16.149  0.00  0.00    +0.000 OA
ATOM      2  C   UNL     1      48.666   7.048  16.024  0.00  0.00    +0.000 C 
ATOM      3  N   UNL     1      48.173   6.337  14.947  0.00  0.00    +0.000 N 
ATOM      4  H   UNL     1      48.501   5.388  14.824  0.00  0.00    +0.000 HD
ENDROOT
BRANCH   2   5
ATOM      5  C   UNL     1      49.498   6.211  16.874  0.00  0.00    +0.000 A 
ATOM      6  C   UNL     1      50.677   6.660  17.439  0.00  0.00    +0.000 A 
ATOM      7  S   UNL     1      51.738   5.354  17.783  0.00  0.00    +0.000 S 
ATOM      8  C   UNL     1      50.556   4.208  17.343  0.00  0.00    +0.000 A 
ATOM      9  N   UNL     1      50.820   2.879  17.237  0.00  0.00    +0.000 NA
ATOM     10  C   UNL     1      49.781   2.150  16.973  0.00  0.00    +0.000 A 
ATOM     11  N   UNL     1      48.496   2.622  16.862  0.00  0.00    +0.000 N 
ATOM     12  C   UNL     1      48.177   3.960  16.955  0.00  0.00    +0.000 A 
ATOM     13  O   UNL     1      47.025   4.357  16.923  0.00  0.00    +0.000 OA
ATOM     14  C   UNL     1      49.334   4.809  17.114  0.00  0.00    +0.000 A 
ATOM     15  H   UNL     1      47.717   1.988  16.761  0.00  0.00    +0.000 HD
ENDBRANCH   2   5
BRANCH   3  16
ATOM     16  C   UNL     1      47.743   6.999  13.746  0.00  0.00    +0.000 C 
BRANCH  16  17
ATOM     17  C   UNL     1      46.809   6.119  12.959  0.00  0.00    +0.000 A 
ATOM     18  C   UNL     1      46.561   4.805  13.378  0.00  0.00    +0.000 A 
ATOM     19  C   UNL     1      45.698   3.975  12.655  0.00  0.00    +0.000 A 
ATOM     20  C   UNL     1      45.087   4.430  11.482  0.00  0.00    +0.000 A 
ATOM     21  C   UNL     1      45.335   5.743  11.057  0.00  0.00    +0.000 A 
ATOM     22  C   UNL     1      46.195   6.576  11.784  0.00  0.00    +0.000 A 
BRANCH  20  23
ATOM     23  C   UNL     1      44.172   3.524  10.686  0.00  0.00    +0.000 C 
BRANCH  23  24
ATOM     24  O   UNL     1      44.152   3.949   9.328  0.00  0.00    +0.000 OA
BRANCH  24  25
ATOM     25  C   UNL     1      45.130   3.308   8.597  0.00  0.00    +0.000 A 
ATOM     26  N   UNL     1      45.778   4.078   7.712  0.00  0.00    +0.000 NA
ATOM     27  C   UNL     1      46.722   3.463   6.976  0.00  0.00    +0.000 A 
ATOM     28  C   UNL     1      47.041   2.131   7.104  0.00  0.00    +0.000 A 
ATOM     29  C   UNL     1      46.329   1.443   8.058  0.00  0.00    +0.000 A 
ATOM     30  N   UNL     1      45.369   2.002   8.817  0.00  0.00    +0.000 NA
ENDBRANCH  24  25
ENDBRANCH  23  24
ENDBRANCH  20  23
ENDBRANCH  16  17
ENDBRANCH   3  16
TORSDOF 6
ENDMDL
MODEL 2
REMARK VINA RESULT:    -7.610      2.077      2.723
REMARK INTER + INTRA:         -11.069
REMARK INTER:                 -10.221
REMARK INTRA:                  -0.848
REMARK UNBOUND:                -0.789
REMARK  Name = 
REMARK  6 active torsions:
REMARK  status: ('A' for Active; 'I' for Inactive)
REMARK    1  A    between atoms: C_2  and  C_19
REMARK    2  A    between atoms: N_3  and  C_4
REMARK    3  A    between atoms: C_4  and  C_5
REMARK    4  A    between atoms: C_8  and  C_9
REMARK    5  A    between atoms: C_9  and  O_10
REMARK    6  A    between atoms: O_10  and  C_11
REMARK                            x       y       z     vdW  Elec       q    Type
REMARK                         _______ _______ _______ _____ _____    ______ ____
ROOT
ATOM      1  O   UNL     1      50.060   6.914  14.980  0.00  0.00    +0.000 OA
ATOM      2  C   UNL     1      48.946   6.701  15.445  0.00  0.00    +0.000 C 
ATOM      3  N   UNL     1      47.764   6.969  14.784  0.00  0.00    +0.000 N 
ATOM      4  H   UNL     1      46.919   6.546  15.148  0.00  0.00    +0.000 HD
ENDROOT
BRANCH   2   5
ATOM      5  C   UNL     1      48.713   5.932  16.657  0.00  0.00    +0.000 A 
ATOM      6  C   UNL     1      48.354   4.598  16.637  0.00  0.00    +0.000 A 
ATOM      7  S   UNL     1      47.511   4.160  18.069  0.00  0.00    +0.000 S 
ATOM      8  C   UNL     1      47.788   5.691  18.764  0.00  0.00    +0.000 A 
ATOM      9  N   UNL     1      47.211   6.089  19.929  0.00  0.00    +0.000 NA
ATOM     10  C   UNL     1      47.602   7.252  20.346  0.00  0.00    +0.000 A 
ATOM     11  N   UNL     1      48.557   8.027  19.735  0.00  0.00    +0.000 N 
ATOM     12  C   UNL     1      49.167   7.672  18.551  0.00  0.00    +0.000 A 
ATOM     13  O   UNL     1      50.062   8.337  18.056  0.00  0.00    +0.000 OA
ATOM     14  C   UNL     1      48.652   6.444  17.993  0.00  0.00    +0.000 A 
ATOM     15  H   UNL     1      48.893   8.875  20.168  0.00  0.00    +0.000 HD
ENDBRANCH   2   5
BRANCH   3  16
ATOM     16  C   UNL     1      47.742   7.275  13.380  0.00  0.00    +0.000 C 
BRANCH  16  17
ATOM     17  C   UNL     1      46.786   6.367  12.652  0.00  0.00    +0.000 A 
ATOM     18  C   UNL     1      46.480   5.104  13.176  0.00  0.00    +0.000 A 
ATOM     19  C   UNL     1      45.598   4.248  12.509  0.00  0.00    +0.000 A 
ATOM     20  C   UNL     1      45.023   4.625  11.291  0.00  0.00    +0.000 A 
ATOM     21  C   UNL     1      45.329   5.886  10.761  0.00  0.00    +0.000 A 
ATOM     22  C   UNL     1      46.210   6.745  11.432  0.00  0.00    +0.000 A 
BRANCH  20  23
ATOM     23  C   UNL     1      44.087   3.690  10.557  0.00  0.00    +0.000 C 
BRANCH  23  24
ATOM     24  O   UNL     1      44.100   4.002   9.168  0.00  0.00    +0.000 OA
BRANCH  24  25
ATOM     25  C   UNL     1      45.105   3.316   8.519  0.00  0.00    +0.000 A 
ATOM     26  N   UNL     1      45.821   4.041   7.649  0.00  0.00    +0.000 NA
ATOM     27  C   UNL     1      46.793   3.382   6.991  0.00  0.00    +0.000 A 
ATOM     28  C   UNL     1      47.074   2.049   7.183  0.00  0.00    +0.000 A 
ATOM     29  C   UNL     1      46.292   1.409   8.116  0.00  0.00    +0.000 A 
ATOM     30  N   UNL     1      45.301   2.014   8.796  0.00  0.00    +0.000 NA
ENDBRANCH  24  25
ENDBRANCH  23  24
ENDBRANCH  20  23
ENDBRANCH  16  17
ENDBRANCH   3  16
TORSDOF 6
ENDMDL
MODEL 3
REMARK VINA RESULT:    -7.470      1.865      2.016
REMARK INTER + INTRA:         -10.879
REMARK INTER:                  -9.972
REMARK INTRA:                  -0.907
REMARK UNBOUND:                -0.789
REMARK  Name = 
REMARK  6 active torsions:
REMARK  status: ('A' for Active; 'I' for Inactive)
REMARK    1  A    between atoms: C_2  and  C_19
REMARK    2  A    between atoms: N_3  and  C_4
REMARK    3  A    between atoms: C_4  and  C_5
REMARK    4  A    between atoms: C_8  and  C_9
REMARK    5  A    between atoms: C_9  and  O_10
REMARK    6  A    between atoms: O_10  and  C_11
REMARK                            x       y       z     vdW  Elec       q    Type
REMARK                         _______ _______ _______ _____ _____    ______ ____
ROOT
ATOM      1  O   UNL     1      50.318   7.158  16.008  0.00  0.00    +0.000 OA
ATOM      2  C   UNL     1      49.103   7.185  16.168  0.00  0.00    +0.000 C 
ATOM      3  N   UNL     1      48.181   7.042  15.150  0.00  0.00    +0.000 N 
ATOM      4  H   UNL     1      47.223   6.843  15.411  0.00  0.00    +0.000 HD
ENDROOT
BRANCH   2   5
ATOM      5  C   UNL     1      48.461   7.142  17.473  0.00  0.00    +0.000 A 
ATOM      6  C   UNL     1      48.123   8.283  18.176  0.00  0.00    +0.000 A 
ATOM      7  S   UNL     1      48.038   7.970  19.863  0.00  0.00    +0.000 S 
ATOM      8  C   UNL     1      48.278   6.301  19.620  0.00  0.00    +0.000 A 
ATOM      9  N   UNL     1      48.479   5.428  20.642  0.00  0.00    +0.000 NA
ATOM     10  C   UNL     1      48.560   4.188  20.273  0.00  0.00    +0.000 A 
ATOM     11  N   UNL     1      48.401   3.737  18.986  0.00  0.00    +0.000 N 
ATOM     12  C   UNL     1      48.201   4.581  17.914  0.00  0.00    +0.000 A 
ATOM     13  O   UNL     1      47.993   4.164  16.787  0.00  0.00    +0.000 OA
ATOM     14  C   UNL     1      48.242   5.978  18.277  0.00  0.00    +0.000 A 
ATOM     15  H   UNL     1      48.370   2.749  18.781  0.00  0.00    +0.000 HD
ENDBRANCH   2   5
BRANCH   3  16
ATOM     16  C   UNL     1      48.571   6.583  13.845  0.00  0.00    +0.000 C 
BRANCH  16  17
ATOM     17  C   UNL     1      47.406   5.943  13.137  0.00  0.00    +0.000 A 
ATOM     18  C   UNL     1      46.897   4.717  13.587  0.00  0.00    +0.000 A 
ATOM     19  C   UNL     1      45.819   4.109  12.936  0.00  0.00    +0.000 A 
ATOM     20  C   UNL     1      45.242   4.700  11.807  0.00  0.00    +0.000 A 
ATOM     21  C   UNL     1      45.750   5.924  11.351  0.00  0.00    +0.000 A 
ATOM     22  C   UNL     1      46.828   6.535  12.006  0.00  0.00    +0.000 A 
BRANCH  20  23
ATOM     23  C   UNL     1      44.090   4.030  11.088  0.00  0.00    +0.000 C 
BRANCH  23  24
ATOM     24  O   UNL     1      44.084   4.436   9.725  0.00  0.00    +0.000 OA
BRANCH  24  25
ATOM     25  C   UNL     1      44.942   3.659   8.975  0.00  0.00    +0.000 A 
ATOM     26  N   UNL     1      45.657   4.322   8.055  0.00  0.00    +0.000 NA
ATOM     27  C   UNL     1      46.484   3.575   7.301  0.00  0.00    +0.000 A 
ATOM     28  C   UNL     1      46.627   2.214   7.446  0.00  0.00    +0.000 A 
ATOM     29  C   UNL     1      45.863   1.642   8.435  0.00  0.00    +0.000 A 
ATOM     30  N   UNL     1      45.012   2.336   9.213  0.00  0.00    +0.000 NA
ENDBRANCH  24  25
ENDBRANCH  23  24
ENDBRANCH  20  23
ENDBRANCH  16  17
ENDBRANCH   3  16
TORSDOF 6
ENDMDL
MODEL 4
REMARK VINA RESULT:    -7.157      2.930      8.204
REMARK INTER + INTRA:         -10.456
REMARK INTER:                  -9.586
REMARK INTRA:                  -0.870
REMARK UNBOUND:                -0.789
REMARK  Name = 
REMARK  6 active torsions:
REMARK  status: ('A' for Active; 'I' for Inactive)
REMARK    1  A    between atoms: C_2  and  C_19
REMARK    2  A    between atoms: N_3  and  C_4
REMARK    3  A    between atoms: C_4  and  C_5
REMARK    4  A    between atoms: C_8  and  C_9
REMARK    5  A    between atoms: C_9  and  O_10
REMARK    6  A    between atoms: O_10  and  C_11
REMARK                            x       y       z     vdW  Elec       q    Type
REMARK                         _______ _______ _______ _____ _____    ______ ____
ROOT
ATOM      1  O   UNL     1      45.517   8.267  11.687  0.00  0.00    +0.000 OA
ATOM      2  C   UNL     1      45.644   7.074  11.435  0.00  0.00    +0.000 C 
ATOM      3  N   UNL     1      46.817   6.364  11.604  0.00  0.00    +0.000 N 
ATOM      4  H   UNL     1      46.757   5.354  11.595  0.00  0.00    +0.000 HD
ENDROOT
BRANCH   2   5
ATOM      5  C   UNL     1      44.528   6.190  11.141  0.00  0.00    +0.000 A 
ATOM      6  C   UNL     1      43.313   6.278  11.795  0.00  0.00    +0.000 A 
ATOM      7  S   UNL     1      42.479   4.776  11.761  0.00  0.00    +0.000 S 
ATOM      8  C   UNL     1      43.654   4.086  10.736  0.00  0.00    +0.000 A 
ATOM      9  N   UNL     1      43.672   2.764  10.419  0.00  0.00    +0.000 NA
ATOM     10  C   UNL     1      44.587   2.436   9.563  0.00  0.00    +0.000 A 
ATOM     11  N   UNL     1      45.447   3.317   8.953  0.00  0.00    +0.000 N 
ATOM     12  C   UNL     1      45.473   4.664   9.243  0.00  0.00    +0.000 A 
ATOM     13  O   UNL     1      46.194   5.444   8.646  0.00  0.00    +0.000 OA
ATOM     14  C   UNL     1      44.555   5.035  10.294  0.00  0.00    +0.000 A 
ATOM     15  H   UNL     1      46.066   3.012   8.216  0.00  0.00    +0.000 HD
ENDBRANCH   2   5
BRANCH   3  16
ATOM     16  C   UNL     1      47.922   6.907  12.345  0.00  0.00    +0.000 C 
BRANCH  16  17
ATOM     17  C   UNL     1      48.007   6.278  13.711  0.00  0.00    +0.000 A 
ATOM     18  C   UNL     1      47.261   5.128  14.002  0.00  0.00    +0.000 A 
ATOM     19  C   UNL     1      47.327   4.536  15.267  0.00  0.00    +0.000 A 
ATOM     20  C   UNL     1      48.118   5.096  16.276  0.00  0.00    +0.000 A 
ATOM     21  C   UNL     1      48.863   6.248  15.990  0.00  0.00    +0.000 A 
ATOM     22  C   UNL     1      48.800   6.839  14.721  0.00  0.00    +0.000 A 
BRANCH  20  23
ATOM     23  C   UNL     1      48.172   4.468  17.653  0.00  0.00    +0.000 C 
BRANCH  23  24
ATOM     24  O   UNL     1      48.440   3.077  17.528  0.00  0.00    +0.000 OA
BRANCH  24  25
ATOM     25  C   UNL     1      49.791   2.824  17.638  0.00  0.00    +0.000 A 
ATOM     26  N   UNL     1      50.512   3.801  18.204  0.00  0.00    +0.000 NA
ATOM     27  C   UNL     1      51.835   3.579  18.300  0.00  0.00    +0.000 A 
ATOM     28  C   UNL     1      52.448   2.424  17.868  0.00  0.00    +0.000 A 
ATOM     29  C   UNL     1      51.609   1.480  17.325  0.00  0.00    +0.000 A 
ATOM     30  N   UNL     1      50.281   1.651  17.194  0.00  0.00    +0.000 NA
ENDBRANCH  24  25
ENDBRANCH  23  24
ENDBRANCH  20  23
ENDBRANCH  16  17
ENDBRANCH   3  16
TORSDOF 6
ENDMDL
MODEL 5
REMARK VINA RESULT:    -6.698      1.880      2.622
REMARK INTER + INTRA:          -9.836
REMARK INTER:                  -9.934
REMARK INTRA:                   0.098
REMARK UNBOUND:                -0.789
REMARK  Name = 
REMARK  6 active torsions:
REMARK  status: ('A' for Active; 'I' for Inactive)
REMARK    1  A    between atoms: C_2  and  C_19
REMARK    2  A    between atoms: N_3  and  C_4
REMARK    3  A    between atoms: C_4  and  C_5
REMARK    4  A    between atoms: C_8  and  C_9
REMARK    5  A    between atoms: C_9  and  O_10
REMARK    6  A    between atoms: O_10  and  C_11
REMARK                            x       y       z     vdW  Elec       q    Type
REMARK                         _______ _______ _______ _____ _____    ______ ____
ROOT
ATOM      1  O   UNL     1      46.429   4.300  14.515  0.00  0.00    +0.000 OA
ATOM      2  C   UNL     1      46.784   5.442  14.246  0.00  0.00    +0.000 C 
ATOM      3  N   UNL     1      46.077   6.306  13.435  0.00  0.00    +0.000 N 
ATOM      4  H   UNL     1      46.327   7.287  13.466  0.00  0.00    +0.000 HD
ENDROOT
BRANCH   2   5
ATOM      5  C   UNL     1      47.877   6.124  14.921  0.00  0.00    +0.000 A 
ATOM      6  C   UNL     1      48.547   7.196  14.362  0.00  0.00    +0.000 A 
ATOM      7  S   UNL     1      50.133   7.343  15.007  0.00  0.00    +0.000 S 
ATOM      8  C   UNL     1      49.846   6.100  16.136  0.00  0.00    +0.000 A 
ATOM      9  N   UNL     1      50.824   5.575  16.921  0.00  0.00    +0.000 NA
ATOM     10  C   UNL     1      50.405   4.697  17.777  0.00  0.00    +0.000 A 
ATOM     11  N   UNL     1      49.091   4.338  17.958  0.00  0.00    +0.000 N 
ATOM     12  C   UNL     1      48.064   4.836  17.185  0.00  0.00    +0.000 A 
ATOM     13  O   UNL     1      46.896   4.560  17.401  0.00  0.00    +0.000 OA
ATOM     14  C   UNL     1      48.519   5.714  16.133  0.00  0.00    +0.000 A 
ATOM     15  H   UNL     1      48.819   3.727  18.714  0.00  0.00    +0.000 HD
ENDBRANCH   2   5
BRANCH   3  16
ATOM     16  C   UNL     1      44.721   6.030  13.047  0.00  0.00    +0.000 C 
BRANCH  16  17
ATOM     17  C   UNL     1      44.682   5.009  11.940  0.00  0.00    +0.000 A 
ATOM     18  C   UNL     1      44.100   3.754  12.163  0.00  0.00    +0.000 A 
ATOM     19  C   UNL     1      44.061   2.795  11.146  0.00  0.00    +0.000 A 
ATOM     20  C   UNL     1      44.625   3.059   9.893  0.00  0.00    +0.000 A 
ATOM     21  C   UNL     1      45.211   4.312   9.667  0.00  0.00    +0.000 A 
ATOM     22  C   UNL     1      45.247   5.274  10.685  0.00  0.00    +0.000 A 
BRANCH  20  23
ATOM     23  C   UNL     1      44.604   2.013   8.800  0.00  0.00    +0.000 C 
BRANCH  23  24
ATOM     24  O   UNL     1      45.890   1.413   8.695  0.00  0.00    +0.000 OA
BRANCH  24  25
ATOM     25  C   UNL     1      46.541   1.839   7.556  0.00  0.00    +0.000 A 
ATOM     26  N   UNL     1      45.944   2.844   6.899  0.00  0.00    +0.000 NA
ATOM     27  C   UNL     1      46.556   3.258   5.775  0.00  0.00    +0.000 A 
ATOM     28  C   UNL     1      47.731   2.719   5.303  0.00  0.00    +0.000 A 
ATOM     29  C   UNL     1      48.266   1.710   6.068  0.00  0.00    +0.000 A 
ATOM     30  N   UNL     1      47.695   1.248   7.196  0.00  0.00    +0.000 NA
ENDBRANCH  24  25
ENDBRANCH  23  24
ENDBRANCH  20  23
ENDBRANCH  16  17
ENDBRANCH   3  16
TORSDOF 6
ENDMDL
MODEL 6
REMARK VINA RESULT:    -6.600      3.541      9.679
REMARK INTER + INTRA:          -9.703
REMARK INTER:                  -8.841
REMARK INTRA:                  -0.862
REMARK UNBOUND:                -0.789
REMARK  Name = 
REMARK  6 active torsions:
REMARK  status: ('A' for Active; 'I' for Inactive)
REMARK    1  A    between atoms: C_2  and  C_19
REMARK    2  A    between atoms: N_3  and  C_4
REMARK    3  A    between atoms: C_4  and  C_5
REMARK    4  A    between atoms: C_8  and  C_9
REMARK    5  A    between atoms: C_9  and  O_10
REMARK    6  A    between atoms: O_10  and  C_11
REMARK                            x       y       z     vdW  Elec       q    Type
REMARK                         _______ _______ _______ _____ _____    ______ ____
ROOT
ATOM      1  O   UNL     1      47.397   2.882  14.294  0.00  0.00    +0.000 OA
ATOM      2  C   UNL     1      47.025   3.998  14.638  0.00  0.00    +0.000 C 
ATOM      3  N   UNL     1      46.751   4.359  15.942  0.00  0.00    +0.000 N 
ATOM      4  H   UNL     1      46.682   5.348  16.148  0.00  0.00    +0.000 HD
ENDROOT
BRANCH   2   5
ATOM      5  C   UNL     1      47.036   5.157  13.759  0.00  0.00    +0.000 A 
ATOM      6  C   UNL     1      47.900   6.221  13.938  0.00  0.00    +0.000 A 
ATOM      7  S   UNL     1      47.265   7.659  13.243  0.00  0.00    +0.000 S 
ATOM      8  C   UNL     1      45.947   6.815  12.569  0.00  0.00    +0.000 A 
ATOM      9  N   UNL     1      44.901   7.440  11.966  0.00  0.00    +0.000 NA
ATOM     10  C   UNL     1      44.033   6.634  11.439  0.00  0.00    +0.000 A 
ATOM     11  N   UNL     1      44.145   5.266  11.411  0.00  0.00    +0.000 N 
ATOM     12  C   UNL     1      45.182   4.584  12.011  0.00  0.00    +0.000 A 
ATOM     13  O   UNL     1      45.305   3.375  11.919  0.00  0.00    +0.000 OA
ATOM     14  C   UNL     1      46.093   5.450  12.722  0.00  0.00    +0.000 A 
ATOM     15  H   UNL     1      43.488   4.702  10.892  0.00  0.00    +0.000 HD
ENDBRANCH   2   5
BRANCH   3  16
ATOM     16  C   UNL     1      47.138   3.526  17.047  0.00  0.00    +0.000 C 
BRANCH  16  17
ATOM     17  C   UNL     1      48.627   3.586  17.263  0.00  0.00    +0.000 A 
ATOM     18  C   UNL     1      49.248   4.810  17.546  0.00  0.00    +0.000 A 
ATOM     19  C   UNL     1      50.630   4.881  17.744  0.00  0.00    +0.000 A 
ATOM     20  C   UNL     1      51.426   3.736  17.637  0.00  0.00    +0.000 A 
ATOM     21  C   UNL     1      50.810   2.510  17.351  0.00  0.00    +0.000 A 
ATOM     22  C   UNL     1      49.424   2.438  17.156  0.00  0.00    +0.000 A 
BRANCH  20  23
ATOM     23  C   UNL     1      52.925   3.816  17.829  0.00  0.00    +0.000 C 
BRANCH  23  24
ATOM     24  O   UNL     1      53.372   2.673  18.549  0.00  0.00    +0.000 OA
BRANCH  24  25
ATOM     25  C   UNL     1      53.878   3.033  19.780  0.00  0.00    +0.000 A 
ATOM     26  N   UNL     1      54.483   2.049  20.459  0.00  0.00    +0.000 NA
ATOM     27  C   UNL     1      54.965   2.379  21.671  0.00  0.00    +0.000 A 
ATOM     28  C   UNL     1      54.874   3.642  22.210  0.00  0.00    +0.000 A 
ATOM     29  C   UNL     1      54.254   4.578  21.417  0.00  0.00    +0.000 A 
ATOM     30  N   UNL     1      53.745   4.304  20.202  0.00  0.00    +0.000 NA
ENDBRANCH  24  25
ENDBRANCH  23  24
ENDBRANCH  20  23
ENDBRANCH  16  17
ENDBRANCH   3  16
TORSDOF 6
ENDMDL
MODEL 7
REMARK VINA RESULT:    -6.532      5.456      8.101
REMARK INTER + INTRA:          -9.611
REMARK INTER:                  -8.792
REMARK INTRA:                  -0.819
REMARK UNBOUND:                -0.789
REMARK  Name = 
REMARK  6 active torsions:
REMARK  status: ('A' for Active; 'I' for Inactive)
REMARK    1  A    between atoms: C_2  and  C_19
REMARK    2  A    between atoms: N_3  and  C_4
REMARK    3  A    between atoms: C_4  and  C_5
REMARK    4  A    between atoms: C_8  and  C_9
REMARK    5  A    between atoms: C_9  and  O_10
REMARK    6  A    between atoms: O_10  and  C_11
REMARK                            x       y       z     vdW  Elec       q    Type
REMARK                         _______ _______ _______ _____ _____    ______ ____
ROOT
ATOM      1  O   UNL     1      45.734  10.781  12.286  0.00  0.00    +0.000 OA
ATOM      2  C   UNL     1      44.780  10.372  11.633  0.00  0.00    +0.000 C 
ATOM      3  N   UNL     1      44.378   9.052  11.587  0.00  0.00    +0.000 N 
ATOM      4  H   UNL     1      43.456   8.856  11.218  0.00  0.00    +0.000 HD
ENDROOT
BRANCH   2   5
ATOM      5  C   UNL     1      43.805  11.245  10.999  0.00  0.00    +0.000 A 
ATOM      6  C   UNL     1      42.531  11.430  11.501  0.00  0.00    +0.000 A 
ATOM      7  S   UNL     1      41.440  11.912  10.263  0.00  0.00    +0.000 S 
ATOM      8  C   UNL     1      42.703  12.036   9.126  0.00  0.00    +0.000 A 
ATOM      9  N   UNL     1      42.484  12.251   7.801  0.00  0.00    +0.000 NA
ATOM     10  C   UNL     1      43.565  12.400   7.101  0.00  0.00    +0.000 A 
ATOM     11  N   UNL     1      44.839  12.410   7.614  0.00  0.00    +0.000 N 
ATOM     12  C   UNL     1      45.114  12.191   8.946  0.00  0.00    +0.000 A 
ATOM     13  O   UNL     1      46.244  12.269   9.398  0.00  0.00    +0.000 OA
ATOM     14  C   UNL     1      43.938  11.888   9.726  0.00  0.00    +0.000 A 
ATOM     15  H   UNL     1      45.631  12.636   7.030  0.00  0.00    +0.000 HD
ENDBRANCH   2   5
BRANCH   3  16
ATOM     16  C   UNL     1      44.886   8.081  12.517  0.00  0.00    +0.000 C 
BRANCH  16  17
ATOM     17  C   UNL     1      44.753   6.689  11.958  0.00  0.00    +0.000 A 
ATOM     18  C   UNL     1      45.824   5.789  12.051  0.00  0.00    +0.000 A 
ATOM     19  C   UNL     1      45.716   4.495  11.533  0.00  0.00    +0.000 A 
ATOM     20  C   UNL     1      44.547   4.080  10.886  0.00  0.00    +0.000 A 
ATOM     21  C   UNL     1      43.474   4.978  10.788  0.00  0.00    +0.000 A 
ATOM     22  C   UNL     1      43.581   6.273  11.311  0.00  0.00    +0.000 A 
BRANCH  20  23
ATOM     23  C   UNL     1      44.438   2.687  10.304  0.00  0.00    +0.000 C 
BRANCH  23  24
ATOM     24  O   UNL     1      44.235   2.777   8.898  0.00  0.00    +0.000 OA
BRANCH  24  25
ATOM     25  C   UNL     1      45.384   2.443   8.212  0.00  0.00    +0.000 A 
ATOM     26  N   UNL     1      45.876   3.404   7.419  0.00  0.00    +0.000 NA
ATOM     27  C   UNL     1      46.986   3.086   6.727  0.00  0.00    +0.000 A 
ATOM     28  C   UNL     1      47.614   1.865   6.811  0.00  0.00    +0.000 A 
ATOM     29  C   UNL     1      47.035   0.963   7.672  0.00  0.00    +0.000 A 
ATOM     30  N   UNL     1      45.922   1.221   8.383  0.00  0.00    +0.000 NA
ENDBRANCH  24  25
ENDBRANCH  23  24
ENDBRANCH  20  23
ENDBRANCH  16  17
ENDBRANCH   3  16
TORSDOF 6
ENDMDL
MODEL 8
REMARK VINA RESULT:    -6.263      2.392      3.395
REMARK INTER + INTRA:          -9.248
REMARK INTER:                  -8.603
REMARK INTRA:                  -0.645
REMARK UNBOUND:                -0.789
REMARK  Name = 
REMARK  6 active torsions:
REMARK  status: ('A' for Active; 'I' for Inactive)
REMARK    1  A    between atoms: C_2  and  C_19
REMARK    2  A    between atoms: N_3  and  C_4
REMARK    3  A    between atoms: C_4  and  C_5
REMARK    4  A    between atoms: C_8  and  C_9
REMARK    5  A    between atoms: C_9  and  O_10
REMARK    6  A    between atoms: O_10  and  C_11
REMARK                            x       y       z     vdW  Elec       q    Type
REMARK                         _______ _______ _______ _____ _____    ______ ____
ROOT
ATOM      1  O   UNL     1      48.370   8.354  16.954  0.00  0.00    +0.000 OA
ATOM      2  C   UNL     1      48.546   7.142  17.009  0.00  0.00    +0.000 C 
ATOM      3  N   UNL     1      48.547   6.306  15.910  0.00  0.00    +0.000 N 
ATOM      4  H   UNL     1      48.930   5.376  16.031  0.00  0.00    +0.000 HD
ENDROOT
BRANCH   2   5
ATOM      5  C   UNL     1      48.999   6.448  18.204  0.00  0.00    +0.000 A 
ATOM      6  C   UNL     1      48.445   5.255  18.630  0.00  0.00    +0.000 A 
ATOM      7  S   UNL     1      48.663   5.039  20.320  0.00  0.00    +0.000 S 
ATOM      8  C   UNL     1      49.633   6.435  20.428  0.00  0.00    +0.000 A 
ATOM      9  N   UNL     1      50.046   6.956  21.614  0.00  0.00    +0.000 NA
ATOM     10  C   UNL     1      50.845   7.971  21.499  0.00  0.00    +0.000 A 
ATOM     11  N   UNL     1      51.312   8.473  20.309  0.00  0.00    +0.000 N 
ATOM     12  C   UNL     1      50.920   7.985  19.081  0.00  0.00    +0.000 A 
ATOM     13  O   UNL     1      51.394   8.396  18.036  0.00  0.00    +0.000 OA
ATOM     14  C   UNL     1      49.925   6.942  19.177  0.00  0.00    +0.000 A 
ATOM     15  H   UNL     1      52.015   9.198  20.291  0.00  0.00    +0.000 HD
ENDBRANCH   2   5
BRANCH   3  16
ATOM     16  C   UNL     1      48.609   6.827  14.572  0.00  0.00    +0.000 C 
BRANCH  16  17
ATOM     17  C   UNL     1      47.553   6.192  13.706  0.00  0.00    +0.000 A 
ATOM     18  C   UNL     1      47.086   6.858  12.565  0.00  0.00    +0.000 A 
ATOM     19  C   UNL     1      46.104   6.282  11.753  0.00  0.00    +0.000 A 
ATOM     20  C   UNL     1      45.547   5.041  12.079  0.00  0.00    +0.000 A 
ATOM     21  C   UNL     1      46.009   4.372  13.221  0.00  0.00    +0.000 A 
ATOM     22  C   UNL     1      46.996   4.948  14.032  0.00  0.00    +0.000 A 
BRANCH  20  23
ATOM     23  C   UNL     1      44.467   4.428  11.214  0.00  0.00    +0.000 C 
BRANCH  23  24
ATOM     24  O   UNL     1      44.561   4.956   9.896  0.00  0.00    +0.000 OA
BRANCH  24  25
ATOM     25  C   UNL     1      45.216   4.077   9.058  0.00  0.00    +0.000 A 
ATOM     26  N   UNL     1      45.063   2.780   9.359  0.00  0.00    +0.000 NA
ATOM     27  C   UNL     1      45.713   1.911   8.563  0.00  0.00    +0.000 A 
ATOM     28  C   UNL     1      46.485   2.290   7.489  0.00  0.00    +0.000 A 
ATOM     29  C   UNL     1      46.552   3.644   7.260  0.00  0.00    +0.000 A 
ATOM     30  N   UNL     1      45.933   4.560   8.027  0.00  0.00    +0.000 NA
ENDBRANCH  24  25
ENDBRANCH  23  24
ENDBRANCH  20  23
ENDBRANCH  16  17
ENDBRANCH   3  16
TORSDOF 6
ENDMDL
MODEL 9
REMARK VINA RESULT:    -6.201      5.012      7.884
REMARK INTER + INTRA:          -9.165
REMARK INTER:                  -8.096
REMARK INTRA:                  -1.069
REMARK UNBOUND:                -0.789
REMARK  Name = 
REMARK  6 active torsions:
REMARK  status: ('A' for Active; 'I' for Inactive)
REMARK    1  A    between atoms: C_2  and  C_19
REMARK    2  A    between atoms: N_3  and  C_4
REMARK    3  A    between atoms: C_4  and  C_5
REMARK    4  A    between atoms: C_8  and  C_9
REMARK    5  A    between atoms: C_9  and  O_10
REMARK    6  A    between atoms: O_10  and  C_11
REMARK                            x       y       z     vdW  Elec       q    Type
REMARK                         _______ _______ _______ _____ _____    ______ ____
ROOT
ATOM      1  O   UNL     1      47.183   3.948  13.663  0.00  0.00    +0.000 OA
ATOM      2  C   UNL     1      46.340   4.757  13.290  0.00  0.00    +0.000 C 
ATOM      3  N   UNL     1      46.470   6.126  13.410  0.00  0.00    +0.000 N 
ATOM      4  H   UNL     1      45.841   6.705  12.867  0.00  0.00    +0.000 HD
ENDROOT
BRANCH   2   5
ATOM      5  C   UNL     1      45.194   4.404  12.467  0.00  0.00    +0.000 A 
ATOM      6  C   UNL     1      44.121   3.682  12.954  0.00  0.00    +0.000 A 
ATOM      7  S   UNL     1      43.304   2.855  11.689  0.00  0.00    +0.000 S 
ATOM      8  C   UNL     1      44.273   3.602  10.503  0.00  0.00    +0.000 A 
ATOM      9  N   UNL     1      44.240   3.246   9.191  0.00  0.00    +0.000 NA
ATOM     10  C   UNL     1      44.983   3.978   8.423  0.00  0.00    +0.000 A 
ATOM     11  N   UNL     1      45.710   5.068   8.837  0.00  0.00    +0.000 N 
ATOM     12  C   UNL     1      45.781   5.466  10.155  0.00  0.00    +0.000 A 
ATOM     13  O   UNL     1      46.375   6.474  10.498  0.00  0.00    +0.000 OA
ATOM     14  C   UNL     1      45.071   4.586  11.053  0.00  0.00    +0.000 A 
ATOM     15  H   UNL     1      46.185   5.660   8.171  0.00  0.00    +0.000 HD
ENDBRANCH   2   5
BRANCH   3  16
ATOM     16  C   UNL     1      47.729   6.734  13.743  0.00  0.00    +0.000 C 
BRANCH  16  17
ATOM     17  C   UNL     1      47.899   8.041  13.015  0.00  0.00    +0.000 A 
ATOM     18  C   UNL     1      49.051   8.276  12.252  0.00  0.00    +0.000 A 
ATOM     19  C   UNL     1      49.223   9.486  11.574  0.00  0.00    +0.000 A 
ATOM     20  C   UNL     1      48.262  10.499  11.665  0.00  0.00    +0.000 A 
ATOM     21  C   UNL     1      47.110  10.270  12.430  0.00  0.00    +0.000 A 
ATOM     22  C   UNL     1      46.936   9.055  13.106  0.00  0.00    +0.000 A 
BRANCH  20  23
ATOM     23  C   UNL     1      48.460  11.818  10.950  0.00  0.00    +0.000 C 
BRANCH  23  24
ATOM     24  O   UNL     1      47.556  11.902   9.854  0.00  0.00    +0.000 OA
BRANCH  24  25
ATOM     25  C   UNL     1      48.227  12.177   8.681  0.00  0.00    +0.000 A 
ATOM     26  N   UNL     1      47.448  12.478   7.634  0.00  0.00    +0.000 NA
ATOM     27  C   UNL     1      48.087  12.729   6.477  0.00  0.00    +0.000 A 
ATOM     28  C   UNL     1      49.455  12.701   6.340  0.00  0.00    +0.000 A 
ATOM     29  C   UNL     1      50.156  12.403   7.484  0.00  0.00    +0.000 A 
ATOM     30  N   UNL     1      49.572  12.134   8.666  0.00  0.00    +0.000 NA
ENDBRANCH  24  25
ENDBRANCH  23  24
ENDBRANCH  20  23
ENDBRANCH  16  17
ENDBRANCH   3  16
TORSDOF 6
ENDMDL
