MODEL 1
REMARK VINA RESULT:    -7.598      0.000      0.000
REMARK INTER + INTRA:         -11.243
REMARK INTER:                 -10.707
REMARK INTRA:                  -0.536
REMARK UNBOUND:                -0.536
REMARK  Name = 
REMARK  8 active torsions:
REMARK  status: ('A' for Active; 'I' for Inactive)
REMARK    1  A    between atoms: N_1  and  C_2
REMARK    2  A    between atoms: C_2  and  C_3
REMARK    3  A    between atoms: C_7  and  C_8
REMARK    4  A    between atoms: C_8  and  O_9
REMARK    5  A    between atoms: O_9  and  C_10
REMARK    6  A    between atoms: C_14  and  C_15
REMARK    7  A    between atoms: C_16  and  C_17
REMARK    8  A    between atoms: C_17  and  O_19
REMARK                            x       y       z     vdW  Elec       q    Type
REMARK                         _______ _______ _______ _____ _____    ______ ____
ROOT
ATOM      1  O   UNL     1      44.139   3.966  10.629  0.00  0.00    +0.000 OA
ENDROOT
BRANCH   1   2
ATOM      2  C   UNL     1      45.075   4.510  11.467  0.00  0.00    +0.000 A 
ATOM      3  C   UNL     1      45.548   5.772  11.116  0.00  0.00    +0.000 A 
ATOM      4  C   UNL     1      46.556   6.375  11.869  0.00  0.00    +0.000 A 
ATOM      5  C   UNL     1      47.069   5.728  12.994  0.00  0.00    +0.000 A 
ATOM      6  C   UNL     1      46.548   4.494  13.402  0.00  0.00    +0.000 A 
ATOM      7  C   UNL     1      45.557   3.888  12.623  0.00  0.00    +0.000 A 
BRANCH   6   8
ATOM      8  C   UNL     1      47.011   3.783  14.603  0.00  0.00    +0.000 C 
ATOM      9  C   UNL     1      47.212   4.380  15.786  0.00  0.00    +0.000 C 
BRANCH   9  10
ATOM     10  C   UNL     1      47.593   3.564  16.953  0.00  0.00    +0.000 C 
ATOM     11  O   UNL     1      48.732   3.425  17.364  0.00  0.00    +0.000 OA
BRANCH  10  12
ATOM     12  O   UNL     1      46.524   2.971  17.522  0.00  0.00    +0.000 OA
ATOM     13  H   UNL     1      46.413   2.025  17.319  0.00  0.00    +0.000 HD
ENDBRANCH  10  12
ENDBRANCH   9  10
ENDBRANCH   6   8
ENDBRANCH   1   2
BRANCH   1  14
ATOM     14  C   UNL     1      44.321   4.294   9.244  0.00  0.00    +0.000 C 
BRANCH  14  19
ATOM     15  C   UNL     1      46.636   2.547   6.782  0.00  0.00    +0.000 A 
ATOM     16  C   UNL     1      46.641   1.272   7.355  0.00  0.00    +0.000 A 
ATOM     17  C   UNL     1      45.875   1.048   8.484  0.00  0.00    +0.000 A 
ATOM     18  N   UNL     1      45.114   1.993   9.074  0.00  0.00    +0.000 NA
ATOM     19  C   UNL     1      45.103   3.229   8.512  0.00  0.00    +0.000 A 
ATOM     20  C   UNL     1      45.858   3.540   7.382  0.00  0.00    +0.000 A 
BRANCH  15  21
ATOM     21  C   UNL     1      47.462   2.849   5.562  0.00  0.00    +0.000 C 
BRANCH  21  22
ATOM     22  N   UNL     1      48.503   1.849   5.365  0.00  0.00    +0.000 NA
ATOM     23  H   UNL     1      48.775   1.840   4.385  0.00  0.00    +0.000 HD
ATOM     24  H   UNL     1      48.112   0.927   5.562  0.00  0.00    +0.000 HD
ENDBRANCH  21  22
ENDBRANCH  15  21
ENDBRANCH  14  19
ENDBRANCH   1  14
TORSDOF 8
ENDMDL
MODEL 2
REMARK VINA RESULT:    -7.054      3.549      7.375
REMARK INTER + INTRA:         -10.477
REMARK INTER:                 -10.005
REMARK INTRA:                  -0.472
REMARK UNBOUND:                -0.536
REMARK  Name = 
REMARK  8 active torsions:
REMARK  status: ('A' for Active; 'I' for Inactive)
REMARK    1  A    between atoms: N_1  and  C_2
REMARK    2  A    between atoms: C_2  and  C_3
REMARK    3  A    between atoms: C_7  and  C_8
REMARK    4  A    between atoms: C_8  and  O_9
REMARK    5  A    between atoms: O_9  and  C_10
REMARK    6  A    between atoms: C_14  and  C_15
REMARK    7  A    between atoms: C_16  and  C_17
REMARK    8  A    between atoms: C_17  and  O_19
REMARK                            x       y       z     vdW  Elec       q    Type
REMARK                         _______ _______ _______ _____ _____    ______ ____
ROOT
ATOM      1  O   UNL     1      43.996   5.936  11.275  0.00  0.00    +0.000 OA
ENDROOT
BRANCH   1   2
ATOM      2  C   UNL     1      44.209   4.758  10.611  0.00  0.00    +0.000 A 
ATOM      3  C   UNL     1      43.619   3.627  11.170  0.00  0.00    +0.000 A 
ATOM      4  C   UNL     1      43.839   2.371  10.605  0.00  0.00    +0.000 A 
ATOM      5  C   UNL     1      44.626   2.250   9.458  0.00  0.00    +0.000 A 
ATOM      6  C   UNL     1      45.162   3.387   8.842  0.00  0.00    +0.000 A 
ATOM      7  C   UNL     1      44.954   4.638   9.435  0.00  0.00    +0.000 A 
BRANCH   6   8
ATOM      8  C   UNL     1      45.958   3.334   7.608  0.00  0.00    +0.000 C 
ATOM      9  C   UNL     1      46.885   2.396   7.365  0.00  0.00    +0.000 C 
BRANCH   9  10
ATOM     10  C   UNL     1      47.570   2.377   6.059  0.00  0.00    +0.000 C 
ATOM     11  O   UNL     1      48.384   1.539   5.712  0.00  0.00    +0.000 OA
BRANCH  10  12
ATOM     12  O   UNL     1      47.196   3.412   5.280  0.00  0.00    +0.000 OA
ATOM     13  H   UNL     1      46.828   4.179   5.752  0.00  0.00    +0.000 HD
ENDBRANCH  10  12
ENDBRANCH   9  10
ENDBRANCH   6   8
ENDBRANCH   1   2
BRANCH   1  14
ATOM     14  C   UNL     1      45.040   6.905  11.115  0.00  0.00    +0.000 C 
BRANCH  14  19
ATOM     15  C   UNL     1      47.105   5.598  14.031  0.00  0.00    +0.000 A 
ATOM     16  C   UNL     1      48.144   6.532  13.998  0.00  0.00    +0.000 A 
ATOM     17  C   UNL     1      48.100   7.543  13.055  0.00  0.00    +0.000 A 
ATOM     18  N   UNL     1      47.104   7.685  12.154  0.00  0.00    +0.000 NA
ATOM     19  C   UNL     1      46.092   6.782  12.192  0.00  0.00    +0.000 A 
ATOM     20  C   UNL     1      46.069   5.727  13.103  0.00  0.00    +0.000 A 
BRANCH  15  21
ATOM     21  C   UNL     1      47.111   4.470  15.027  0.00  0.00    +0.000 C 
BRANCH  21  22
ATOM     22  N   UNL     1      47.378   3.192  14.379  0.00  0.00    +0.000 NA
ATOM     23  H   UNL     1      46.850   3.143  13.511  0.00  0.00    +0.000 HD
ATOM     24  H   UNL     1      47.022   2.444  14.974  0.00  0.00    +0.000 HD
ENDBRANCH  21  22
ENDBRANCH  15  21
ENDBRANCH  14  19
ENDBRANCH   1  14
TORSDOF 8
ENDMDL
MODEL 3
REMARK VINA RESULT:    -6.852      4.202      7.484
REMARK INTER + INTRA:         -10.192
REMARK INTER:                  -9.575
REMARK INTRA:                  -0.617
REMARK UNBOUND:                -0.536
REMARK  Name = 
REMARK  8 active torsions:
REMARK  status: ('A' for Active; 'I' for Inactive)
REMARK    1  A    between atoms: N_1  and  C_2
REMARK    2  A    between atoms: C_2  and  C_3
REMARK    3  A    between atoms: C_7  and  C_8
REMARK    4  A    between atoms: C_8  and  O_9
REMARK    5  A    between atoms: O_9  and  C_10
REMARK    6  A    between atoms: C_14  and  C_15
REMARK    7  A    between atoms: C_16  and  C_17
REMARK    8  A    between atoms: C_17  and  O_19
REMARK                            x       y       z     vdW  Elec       q    Type
REMARK                         _______ _______ _______ _____ _____    ______ ____
ROOT
ATOM      1  O   UNL     1      43.974   6.099  11.155  0.00  0.00    +0.000 OA
ENDROOT
BRANCH   1   2
ATOM      2  C   UNL     1      44.211   4.902  10.533  0.00  0.00    +0.000 A 
ATOM      3  C   UNL     1      43.630   3.783  11.125  0.00  0.00    +0.000 A 
ATOM      4  C   UNL     1      43.873   2.512  10.605  0.00  0.00    +0.000 A 
ATOM      5  C   UNL     1      44.674   2.363   9.470  0.00  0.00    +0.000 A 
ATOM      6  C   UNL     1      45.200   3.487   8.821  0.00  0.00    +0.000 A 
ATOM      7  C   UNL     1      44.970   4.753   9.369  0.00  0.00    +0.000 A 
BRANCH   6   8
ATOM      8  C   UNL     1      46.010   3.403   7.598  0.00  0.00    +0.000 C 
ATOM      9  C   UNL     1      46.851   2.393   7.334  0.00  0.00    +0.000 C 
BRANCH   9  10
ATOM     10  C   UNL     1      47.555   2.356   6.038  0.00  0.00    +0.000 C 
ATOM     11  O   UNL     1      48.427   1.557   5.742  0.00  0.00    +0.000 OA
BRANCH  10  12
ATOM     12  O   UNL     1      47.125   3.325   5.206  0.00  0.00    +0.000 OA
ATOM     13  H   UNL     1      47.795   3.981   4.946  0.00  0.00    +0.000 HD
ENDBRANCH  10  12
ENDBRANCH   9  10
ENDBRANCH   6   8
ENDBRANCH   1   2
BRANCH   1  14
ATOM     14  C   UNL     1      44.611   6.240  12.433  0.00  0.00    +0.000 C 
BRANCH  14  19
ATOM     15  C   UNL     1      48.002   7.953  12.239  0.00  0.00    +0.000 A 
ATOM     16  C   UNL     1      47.572   9.282  12.185  0.00  0.00    +0.000 A 
ATOM     17  C   UNL     1      46.215   9.544  12.244  0.00  0.00    +0.000 A 
ATOM     18  N   UNL     1      45.270   8.587  12.351  0.00  0.00    +0.000 NA
ATOM     19  C   UNL     1      45.689   7.297  12.410  0.00  0.00    +0.000 A 
ATOM     20  C   UNL     1      47.038   6.949  12.344  0.00  0.00    +0.000 A 
BRANCH  15  21
ATOM     21  C   UNL     1      49.466   7.612  12.164  0.00  0.00    +0.000 C 
BRANCH  21  22
ATOM     22  N   UNL     1      49.916   6.940  13.377  0.00  0.00    +0.000 NA
ATOM     23  H   UNL     1      50.077   7.636  14.102  0.00  0.00    +0.000 HD
ATOM     24  H   UNL     1      50.818   6.503  13.193  0.00  0.00    +0.000 HD
ENDBRANCH  21  22
ENDBRANCH  15  21
ENDBRANCH  14  19
ENDBRANCH   1  14
TORSDOF 8
ENDMDL
MODEL 4
REMARK VINA RESULT:    -6.669      3.476      8.183
REMARK INTER + INTRA:          -9.934
REMARK INTER:                  -9.507
REMARK INTRA:                  -0.427
REMARK UNBOUND:                -0.536
REMARK  Name = 
REMARK  8 active torsions:
REMARK  status: ('A' for Active; 'I' for Inactive)
REMARK    1  A    between atoms: N_1  and  C_2
REMARK    2  A    between atoms: C_2  and  C_3
REMARK    3  A    between atoms: C_7  and  C_8
REMARK    4  A    between atoms: C_8  and  O_9
REMARK    5  A    between atoms: O_9  and  C_10
REMARK    6  A    between atoms: C_14  and  C_15
REMARK    7  A    between atoms: C_16  and  C_17
REMARK    8  A    between atoms: C_17  and  O_19
REMARK                            x       y       z     vdW  Elec       q    Type
REMARK                         _______ _______ _______ _____ _____    ______ ____
ROOT
ATOM      1  O   UNL     1      45.467   4.467  14.098  0.00  0.00    +0.000 OA
ENDROOT
BRANCH   1   2
ATOM      2  C   UNL     1      44.793   4.565  12.910  0.00  0.00    +0.000 A 
ATOM      3  C   UNL     1      43.601   5.285  12.944  0.00  0.00    +0.000 A 
ATOM      4  C   UNL     1      42.808   5.379  11.800  0.00  0.00    +0.000 A 
ATOM      5  C   UNL     1      43.226   4.778  10.610  0.00  0.00    +0.000 A 
ATOM      6  C   UNL     1      44.458   4.118  10.543  0.00  0.00    +0.000 A 
ATOM      7  C   UNL     1      45.231   4.009  11.705  0.00  0.00    +0.000 A 
BRANCH   6   8
ATOM      8  C   UNL     1      44.977   3.506   9.312  0.00  0.00    +0.000 C 
ATOM      9  C   UNL     1      45.770   4.149   8.443  0.00  0.00    +0.000 C 
BRANCH   9  10
ATOM     10  C   UNL     1      46.310   3.420   7.279  0.00  0.00    +0.000 C 
ATOM     11  O   UNL     1      46.302   2.208   7.153  0.00  0.00    +0.000 OA
BRANCH  10  12
ATOM     12  O   UNL     1      46.828   4.257   6.359  0.00  0.00    +0.000 OA
ATOM     13  H   UNL     1      46.187   4.649   5.741  0.00  0.00    +0.000 HD
ENDBRANCH  10  12
ENDBRANCH   9  10
ENDBRANCH   6   8
ENDBRANCH   1   2
BRANCH   1  14
ATOM     14  C   UNL     1      46.872   4.210  13.963  0.00  0.00    +0.000 C 
BRANCH  14  19
ATOM     15  C   UNL     1      47.859   4.262  17.637  0.00  0.00    +0.000 A 
ATOM     16  C   UNL     1      48.546   3.047  17.695  0.00  0.00    +0.000 A 
ATOM     17  C   UNL     1      48.673   2.299  16.539  0.00  0.00    +0.000 A 
ATOM     18  N   UNL     1      48.169   2.674  15.344  0.00  0.00    +0.000 NA
ATOM     19  C   UNL     1      47.509   3.858  15.287  0.00  0.00    +0.000 A 
ATOM     20  C   UNL     1      47.326   4.664  16.410  0.00  0.00    +0.000 A 
BRANCH  15  21
ATOM     21  C   UNL     1      47.680   5.108  18.868  0.00  0.00    +0.000 C 
BRANCH  21  22
ATOM     22  N   UNL     1      46.324   5.635  18.956  0.00  0.00    +0.000 NA
ATOM     23  H   UNL     1      46.161   6.268  18.176  0.00  0.00    +0.000 HD
ATOM     24  H   UNL     1      46.247   6.199  19.803  0.00  0.00    +0.000 HD
ENDBRANCH  21  22
ENDBRANCH  15  21
ENDBRANCH  14  19
ENDBRANCH   1  14
TORSDOF 8
ENDMDL
MODEL 5
REMARK VINA RESULT:    -6.616      1.629      2.324
REMARK INTER + INTRA:          -9.859
REMARK INTER:                  -9.282
REMARK INTRA:                  -0.576
REMARK UNBOUND:                -0.536
REMARK  Name = 
REMARK  8 active torsions:
REMARK  status: ('A' for Active; 'I' for Inactive)
REMARK    1  A    between atoms: N_1  and  C_2
REMARK    2  A    between atoms: C_2  and  C_3
REMARK    3  A    between atoms: C_7  and  C_8
REMARK    4  A    between atoms: C_8  and  O_9
REMARK    5  A    between atoms: O_9  and  C_10
REMARK    6  A    between atoms: C_14  and  C_15
REMARK    7  A    between atoms: C_16  and  C_17
REMARK    8  A    between atoms: C_17  and  O_19
REMARK                            x       y       z     vdW  Elec       q    Type
REMARK                         _______ _______ _______ _____ _____    ______ ____
ROOT
ATOM      1  O   UNL     1      46.132   6.513  10.950  0.00  0.00    +0.000 OA
ENDROOT
BRANCH   1   2
ATOM      2  C   UNL     1      46.858   6.489  12.110  0.00  0.00    +0.000 A 
ATOM      3  C   UNL     1      47.845   7.464  12.233  0.00  0.00    +0.000 A 
ATOM      4  C   UNL     1      48.684   7.475  13.347  0.00  0.00    +0.000 A 
ATOM      5  C   UNL     1      48.514   6.527  14.358  0.00  0.00    +0.000 A 
ATOM      6  C   UNL     1      47.477   5.589  14.284  0.00  0.00    +0.000 A 
ATOM      7  C   UNL     1      46.660   5.573  13.148  0.00  0.00    +0.000 A 
BRANCH   6   8
ATOM      8  C   UNL     1      47.214   4.595  15.334  0.00  0.00    +0.000 C 
ATOM      9  C   UNL     1      47.717   4.678  16.574  0.00  0.00    +0.000 C 
BRANCH   9  10
ATOM     10  C   UNL     1      47.324   3.676  17.583  0.00  0.00    +0.000 C 
ATOM     11  O   UNL     1      46.480   2.813  17.415  0.00  0.00    +0.000 OA
BRANCH  10  12
ATOM     12  O   UNL     1      48.008   3.829  18.735  0.00  0.00    +0.000 OA
ATOM     13  H   UNL     1      48.478   3.037  19.050  0.00  0.00    +0.000 HD
ENDBRANCH  10  12
ENDBRANCH   9  10
ENDBRANCH   6   8
ENDBRANCH   1   2
BRANCH   1  14
ATOM     14  C   UNL     1      44.844   5.888  11.043  0.00  0.00    +0.000 C 
BRANCH  14  19
ATOM     15  C   UNL     1      45.369   3.306   8.298  0.00  0.00    +0.000 A 
ATOM     16  C   UNL     1      44.774   2.204   8.920  0.00  0.00    +0.000 A 
ATOM     17  C   UNL     1      44.215   2.369  10.174  0.00  0.00    +0.000 A 
ATOM     18  N   UNL     1      44.208   3.542  10.843  0.00  0.00    +0.000 NA
ATOM     19  C   UNL     1      44.779   4.613  10.236  0.00  0.00    +0.000 A 
ATOM     20  C   UNL     1      45.375   4.526   8.978  0.00  0.00    +0.000 A 
BRANCH  15  21
ATOM     21  C   UNL     1      46.004   3.177   6.941  0.00  0.00    +0.000 C 
BRANCH  21  22
ATOM     22  N   UNL     1      46.976   4.238   6.707  0.00  0.00    +0.000 NA
ATOM     23  H   UNL     1      46.499   5.136   6.725  0.00  0.00    +0.000 HD
ATOM     24  H   UNL     1      47.355   4.133   5.766  0.00  0.00    +0.000 HD
ENDBRANCH  21  22
ENDBRANCH  15  21
ENDBRANCH  14  19
ENDBRANCH   1  14
TORSDOF 8
ENDMDL
MODEL 6
REMARK VINA RESULT:    -6.188      3.032      4.154
REMARK INTER + INTRA:          -9.257
REMARK INTER:                  -8.943
REMARK INTRA:                  -0.314
REMARK UNBOUND:                -0.536
REMARK  Name = 
REMARK  8 active torsions:
REMARK  status: ('A' for Active; 'I' for Inactive)
REMARK    1  A    between atoms: N_1  and  C_2
REMARK    2  A    between atoms: C_2  and  C_3
REMARK    3  A    between atoms: C_7  and  C_8
REMARK    4  A    between atoms: C_8  and  O_9
REMARK    5  A    between atoms: O_9  and  C_10
REMARK    6  A    between atoms: C_14  and  C_15
REMARK    7  A    between atoms: C_16  and  C_17
REMARK    8  A    between atoms: C_17  and  O_19
REMARK                            x       y       z     vdW  Elec       q    Type
REMARK                         _______ _______ _______ _____ _____    ______ ____
ROOT
ATOM      1  O   UNL     1      43.805   4.525  10.409  0.00  0.00    +0.000 OA
ENDROOT
BRANCH   1   2
ATOM      2  C   UNL     1      44.650   4.988  11.382  0.00  0.00    +0.000 A 
ATOM      3  C   UNL     1      45.134   4.034  12.274  0.00  0.00    +0.000 A 
ATOM      4  C   UNL     1      45.943   4.421  13.342  0.00  0.00    +0.000 A 
ATOM      5  C   UNL     1      46.296   5.763  13.499  0.00  0.00    +0.000 A 
ATOM      6  C   UNL     1      45.880   6.720  12.566  0.00  0.00    +0.000 A 
ATOM      7  C   UNL     1      45.047   6.322  11.515  0.00  0.00    +0.000 A 
BRANCH   6   8
ATOM      8  C   UNL     1      46.256   8.139  12.647  0.00  0.00    +0.000 C 
ATOM      9  C   UNL     1      47.404   8.630  12.160  0.00  0.00    +0.000 C 
BRANCH   9  10
ATOM     10  C   UNL     1      47.650  10.084  12.213  0.00  0.00    +0.000 C 
ATOM     11  O   UNL     1      48.730  10.615  12.021  0.00  0.00    +0.000 OA
BRANCH  10  12
ATOM     12  O   UNL     1      46.529  10.772  12.511  0.00  0.00    +0.000 OA
ATOM     13  H   UNL     1      46.575  11.732  12.358  0.00  0.00    +0.000 HD
ENDBRANCH  10  12
ENDBRANCH   9  10
ENDBRANCH   6   8
ENDBRANCH   1   2
BRANCH   1  14
ATOM     14  C   UNL     1      44.072   3.183   9.980  0.00  0.00    +0.000 C 
BRANCH  14  19
ATOM     15  C   UNL     1      46.651   1.901   7.495  0.00  0.00    +0.000 A 
ATOM     16  C   UNL     1      47.033   3.120   6.929  0.00  0.00    +0.000 A 
ATOM     17  C   UNL     1      46.455   4.284   7.404  0.00  0.00    +0.000 A 
ATOM     18  N   UNL     1      45.536   4.315   8.391  0.00  0.00    +0.000 NA
ATOM     19  C   UNL     1      45.171   3.131   8.946  0.00  0.00    +0.000 A 
ATOM     20  C   UNL     1      45.697   1.914   8.515  0.00  0.00    +0.000 A 
BRANCH  15  21
ATOM     21  C   UNL     1      47.238   0.605   7.006  0.00  0.00    +0.000 C 
BRANCH  21  22
ATOM     22  N   UNL     1      46.772  -0.523   7.804  0.00  0.00    +0.000 NA
ATOM     23  H   UNL     1      46.537  -0.195   8.738  0.00  0.00    +0.000 HD
ATOM     24  H   UNL     1      47.541  -1.183   7.917  0.00  0.00    +0.000 HD
ENDBRANCH  21  22
ENDBRANCH  15  21
ENDBRANCH  14  19
ENDBRANCH   1  14
TORSDOF 8
ENDMDL
MODEL 7
REMARK VINA RESULT:    -6.069      4.340      8.005
REMARK INTER + INTRA:          -9.088
REMARK INTER:                  -8.448
REMARK INTRA:                  -0.640
REMARK UNBOUND:                -0.536
REMARK  Name = 
REMARK  8 active torsions:
REMARK  status: ('A' for Active; 'I' for Inactive)
REMARK    1  A    between atoms: N_1  and  C_2
REMARK    2  A    between atoms: C_2  and  C_3
REMARK    3  A    between atoms: C_7  and  C_8
REMARK    4  A    between atoms: C_8  and  O_9
REMARK    5  A    between atoms: O_9  and  C_10
REMARK    6  A    between atoms: C_14  and  C_15
REMARK    7  A    between atoms: C_16  and  C_17
REMARK    8  A    between atoms: C_17  and  O_19
REMARK                            x       y       z     vdW  Elec       q    Type
REMARK                         _______ _______ _______ _____ _____    ______ ____
ROOT
ATOM      1  O   UNL     1      48.917   6.709  14.034  0.00  0.00    +0.000 OA
ENDROOT
BRANCH   1   2
ATOM      2  C   UNL     1      47.665   6.710  13.478  0.00  0.00    +0.000 A 
ATOM      3  C   UNL     1      47.047   7.953  13.371  0.00  0.00    +0.000 A 
ATOM      4  C   UNL     1      45.743   8.046  12.884  0.00  0.00    +0.000 A 
ATOM      5  C   UNL     1      45.068   6.895  12.473  0.00  0.00    +0.000 A 
ATOM      6  C   UNL     1      45.706   5.649  12.503  0.00  0.00    +0.000 A 
ATOM      7  C   UNL     1      47.004   5.567  13.019  0.00  0.00    +0.000 A 
BRANCH   6   8
ATOM      8  C   UNL     1      45.069   4.408  12.041  0.00  0.00    +0.000 C 
ATOM      9  C   UNL     1      44.779   4.158  10.756  0.00  0.00    +0.000 C 
BRANCH   9  10
ATOM     10  C   UNL     1      44.219   2.846  10.383  0.00  0.00    +0.000 C 
ATOM     11  O   UNL     1      44.469   2.251   9.349  0.00  0.00    +0.000 OA
BRANCH  10  12
ATOM     12  O   UNL     1      43.378   2.372  11.324  0.00  0.00    +0.000 OA
ATOM     13  H   UNL     1      42.503   2.797  11.356  0.00  0.00    +0.000 HD
ENDBRANCH  10  12
ENDBRANCH   9  10
ENDBRANCH   6   8
ENDBRANCH   1   2
BRANCH   1  14
ATOM     14  C   UNL     1      48.954   7.103  15.413  0.00  0.00    +0.000 C 
BRANCH  14  19
ATOM     15  C   UNL     1      48.881   3.898  17.461  0.00  0.00    +0.000 A 
ATOM     16  C   UNL     1      50.236   3.823  17.796  0.00  0.00    +0.000 A 
ATOM     17  C   UNL     1      51.084   4.826  17.364  0.00  0.00    +0.000 A 
ATOM     18  N   UNL     1      50.681   5.885  16.631  0.00  0.00    +0.000 NA
ATOM     19  C   UNL     1      49.364   5.961  16.313  0.00  0.00    +0.000 A 
ATOM     20  C   UNL     1      48.446   4.985  16.699  0.00  0.00    +0.000 A 
BRANCH  15  21
ATOM     21  C   UNL     1      47.917   2.826  17.894  0.00  0.00    +0.000 C 
BRANCH  21  22
ATOM     22  N   UNL     1      46.546   3.172  17.541  0.00  0.00    +0.000 NA
ATOM     23  H   UNL     1      46.547   4.049  17.024  0.00  0.00    +0.000 HD
ATOM     24  H   UNL     1      46.022   3.346  18.399  0.00  0.00    +0.000 HD
ENDBRANCH  21  22
ENDBRANCH  15  21
ENDBRANCH  14  19
ENDBRANCH   1  14
TORSDOF 8
ENDMDL
MODEL 8
REMARK VINA RESULT:    -6.047      3.353      5.238
REMARK INTER + INTRA:          -9.058
REMARK INTER:                  -8.429
REMARK INTRA:                  -0.629
REMARK UNBOUND:                -0.536
REMARK  Name = 
REMARK  8 active torsions:
REMARK  status: ('A' for Active; 'I' for Inactive)
REMARK    1  A    between atoms: N_1  and  C_2
REMARK    2  A    between atoms: C_2  and  C_3
REMARK    3  A    between atoms: C_7  and  C_8
REMARK    4  A    between atoms: C_8  and  O_9
REMARK    5  A    between atoms: O_9  and  C_10
REMARK    6  A    between atoms: C_14  and  C_15
REMARK    7  A    between atoms: C_16  and  C_17
REMARK    8  A    between atoms: C_17  and  O_19
REMARK                            x       y       z     vdW  Elec       q    Type
REMARK                         _______ _______ _______ _____ _____    ______ ____
ROOT
ATOM      1  O   UNL     1      44.490   4.911  11.983  0.00  0.00    +0.000 OA
ENDROOT
BRANCH   1   2
ATOM      2  C   UNL     1      45.223   6.039  12.242  0.00  0.00    +0.000 A 
ATOM      3  C   UNL     1      46.492   5.831  12.778  0.00  0.00    +0.000 A 
ATOM      4  C   UNL     1      47.284   6.919  13.142  0.00  0.00    +0.000 A 
ATOM      5  C   UNL     1      46.818   8.220  12.940  0.00  0.00    +0.000 A 
ATOM      6  C   UNL     1      45.577   8.443  12.332  0.00  0.00    +0.000 A 
ATOM      7  C   UNL     1      44.782   7.342  11.996  0.00  0.00    +0.000 A 
BRANCH   6   8
ATOM      8  C   UNL     1      45.050   9.785  12.048  0.00  0.00    +0.000 C 
ATOM      9  C   UNL     1      44.134  10.037  11.102  0.00  0.00    +0.000 C 
BRANCH   9  10
ATOM     10  C   UNL     1      43.604  11.405  10.953  0.00  0.00    +0.000 C 
ATOM     11  O   UNL     1      42.884  11.777  10.042  0.00  0.00    +0.000 OA
BRANCH  10  12
ATOM     12  O   UNL     1      44.016  12.214  11.949  0.00  0.00    +0.000 OA
ATOM     13  H   UNL     1      44.309  11.764  12.761  0.00  0.00    +0.000 HD
ENDBRANCH  10  12
ENDBRANCH   9  10
ENDBRANCH   6   8
ENDBRANCH   1   2
BRANCH   1  14
ATOM     14  C   UNL     1      43.807   4.925  10.721  0.00  0.00    +0.000 C 
BRANCH  14  19
ATOM     15  C   UNL     1      45.922   3.418   7.942  0.00  0.00    +0.000 A 
ATOM     16  C   UNL     1      45.601   2.071   8.130  0.00  0.00    +0.000 A 
ATOM     17  C   UNL     1      44.700   1.735   9.124  0.00  0.00    +0.000 A 
ATOM     18  N   UNL     1      44.104   2.637   9.932  0.00  0.00    +0.000 NA
ATOM     19  C   UNL     1      44.411   3.945   9.744  0.00  0.00    +0.000 A 
ATOM     20  C   UNL     1      45.320   4.365   8.773  0.00  0.00    +0.000 A 
BRANCH  15  21
ATOM     21  C   UNL     1      46.908   3.837   6.885  0.00  0.00    +0.000 C 
BRANCH  21  22
ATOM     22  N   UNL     1      47.987   2.867   6.752  0.00  0.00    +0.000 NA
ATOM     23  H   UNL     1      48.872   3.362   6.676  0.00  0.00    +0.000 HD
ATOM     24  H   UNL     1      47.866   2.361   5.874  0.00  0.00    +0.000 HD
ENDBRANCH  21  22
ENDBRANCH  15  21
ENDBRANCH  14  19
ENDBRANCH   1  14
TORSDOF 8
ENDMDL
MODEL 9
REMARK VINA RESULT:    -6.029      3.514      5.933
REMARK INTER + INTRA:          -9.032
REMARK INTER:                  -8.601
REMARK INTRA:                  -0.431
REMARK UNBOUND:                -0.536
REMARK  Name = 
REMARK  8 active torsions:
REMARK  status: ('A' for Active; 'I' for Inactive)
REMARK    1  A    between atoms: N_1  and  C_2
REMARK    2  A    between atoms: C_2  and  C_3
REMARK    3  A    between atoms: C_7  and  C_8
REMARK    4  A    between atoms: C_8  and  O_9
REMARK    5  A    between atoms: O_9  and  C_10
REMARK    6  A    between atoms: C_14  and  C_15
REMARK    7  A    between atoms: C_16  and  C_17
REMARK    8  A    between atoms: C_17  and  O_19
REMARK                            x       y       z     vdW  Elec       q    Type
REMARK                         _______ _______ _______ _____ _____    ______ ____
ROOT
ATOM      1  O   UNL     1      47.056   3.576  14.702  0.00  0.00    +0.000 OA
ENDROOT
BRANCH   1   2
ATOM      2  C   UNL     1      47.720   3.429  15.890  0.00  0.00    +0.000 A 
ATOM      3  C   UNL     1      47.214   4.156  16.965  0.00  0.00    +0.000 A 
ATOM      4  C   UNL     1      47.866   4.127  18.198  0.00  0.00    +0.000 A 
ATOM      5  C   UNL     1      49.010   3.344  18.364  0.00  0.00    +0.000 A 
ATOM      6  C   UNL     1      49.485   2.549  17.314  0.00  0.00    +0.000 A 
ATOM      7  C   UNL     1      48.836   2.608  16.075  0.00  0.00    +0.000 A 
BRANCH   6   8
ATOM      8  C   UNL     1      50.654   1.668  17.437  0.00  0.00    +0.000 C 
ATOM      9  C   UNL     1      51.883   2.106  17.743  0.00  0.00    +0.000 C 
BRANCH   9  10
ATOM     10  C   UNL     1      52.974   1.131  17.929  0.00  0.00    +0.000 C 
ATOM     11  O   UNL     1      53.775   1.150  18.848  0.00  0.00    +0.000 OA
BRANCH  10  12
ATOM     12  O   UNL     1      52.994   0.206  16.949  0.00  0.00    +0.000 OA
ATOM     13  H   UNL     1      53.737   0.274  16.324  0.00  0.00    +0.000 HD
ENDBRANCH  10  12
ENDBRANCH   9  10
ENDBRANCH   6   8
ENDBRANCH   1   2
BRANCH   1  14
ATOM     14  C   UNL     1      46.942   4.932  14.249  0.00  0.00    +0.000 C 
BRANCH  14  19
ATOM     15  C   UNL     1      44.487   4.091  11.467  0.00  0.00    +0.000 A 
ATOM     16  C   UNL     1      44.062   5.385  11.153  0.00  0.00    +0.000 A 
ATOM     17  C   UNL     1      44.615   6.452  11.839  0.00  0.00    +0.000 A 
ATOM     18  N   UNL     1      45.550   6.319  12.804  0.00  0.00    +0.000 NA
ATOM     19  C   UNL     1      45.968   5.063  13.102  0.00  0.00    +0.000 A 
ATOM     20  C   UNL     1      45.451   3.935  12.466  0.00  0.00    +0.000 A 
BRANCH  15  21
ATOM     21  C   UNL     1      43.908   2.896  10.761  0.00  0.00    +0.000 C 
BRANCH  21  22
ATOM     22  N   UNL     1      43.063   2.112  11.652  0.00  0.00    +0.000 NA
ATOM     23  H   UNL     1      42.215   2.637  11.854  0.00  0.00    +0.000 HD
ATOM     24  H   UNL     1      43.546   1.995  12.543  0.00  0.00    +0.000 HD
ENDBRANCH  21  22
ENDBRANCH  15  21
ENDBRANCH  14  19
ENDBRANCH   1  14
TORSDOF 8
ENDMDL
