MODEL 1
REMARK VINA RESULT:    -6.958      0.000      0.000
REMARK INTER + INTRA:         -10.920
REMARK INTER:                  -9.806
REMARK INTRA:                  -1.114
REMARK UNBOUND:                -1.114
REMARK  Name = 
REMARK  9 active torsions:
REMARK  status: ('A' for Active; 'I' for Inactive)
REMARK    1  A    between atoms: C_1  and  O_2
REMARK    2  A    between atoms: O_2  and  C_3
REMARK    3  A    between atoms: C_6  and  C_7
REMARK    4  A    between atoms: C_7  and  C_8
REMARK    5  A    between atoms: C_8  and  O_9
REMARK    6  A    between atoms: O_9  and  C_10
REMARK    7  A    between atoms: C_13  and  O_14
REMARK    8  A    between atoms: C_15  and  C_16
REMARK    9  A    between atoms: C_16  and  N_17
REMARK                            x       y       z     vdW  Elec       q    Type
REMARK                         _______ _______ _______ _____ _____    ______ ____
ROOT
ATOM      1  C   UNL     1      44.836   2.905   9.682  0.00  0.00    +0.000 A 
ATOM      2  C   UNL     1      44.943   4.254   9.341  0.00  0.00    +0.000 A 
ATOM      3  C   UNL     1      45.684   4.646   8.224  0.00  0.00    +0.000 A 
ATOM      4  C   UNL     1      46.328   3.687   7.445  0.00  0.00    +0.000 A 
ATOM      5  C   UNL     1      46.251   2.329   7.767  0.00  0.00    +0.000 A 
ATOM      6  C   UNL     1      45.488   1.952   8.889  0.00  0.00    +0.000 A 
ENDROOT
BRANCH   4   7
ATOM      7  O   UNL     1      47.047   4.080   6.352  0.00  0.00    +0.000 OA
ATOM      8  H   UNL     1      46.759   4.970   6.091  0.00  0.00    +0.000 HD
ENDBRANCH   4   7
BRANCH   1   9
ATOM      9  O   UNL     1      44.131   2.409  10.749  0.00  0.00    +0.000 OA
BRANCH   9  10
ATOM     10  C   UNL     1      43.227   3.317  11.383  0.00  0.00    +0.000 C 
BRANCH  10  11
ATOM     11  C   UNL     1      43.662   3.555  12.829  0.00  0.00    +0.000 C 
BRANCH  11  15
ATOM     12  C   UNL     1      46.616   6.712  13.062  0.00  0.00    +0.000 A 
ATOM     13  C   UNL     1      45.300   7.007  12.708  0.00  0.00    +0.000 A 
ATOM     14  C   UNL     1      44.343   5.986  12.638  0.00  0.00    +0.000 A 
ATOM     15  C   UNL     1      44.687   4.659  12.928  0.00  0.00    +0.000 A 
ATOM     16  C   UNL     1      46.011   4.369  13.273  0.00  0.00    +0.000 A 
ATOM     17  C   UNL     1      46.964   5.389  13.342  0.00  0.00    +0.000 A 
BRANCH  12  19
ATOM     18  C   UNL     1      48.963   7.076  13.209  0.00  0.00    +0.000 C 
ATOM     19  O   UNL     1      47.644   7.607  13.166  0.00  0.00    +0.000 OA
ENDBRANCH  12  19
ENDBRANCH  11  15
ENDBRANCH  10  11
ENDBRANCH   9  10
ENDBRANCH   1   9
BRANCH   5  20
ATOM     20  C   UNL     1      46.957   1.277   6.947  0.00  0.00    +0.000 C 
BRANCH  20  21
ATOM     21  N   UNL     1      48.358   1.629   6.710  0.00  0.00    +0.000 NA
ATOM     22  H   UNL     1      48.377   2.400   6.041  0.00  0.00    +0.000 HD
ATOM     23  H   UNL     1      48.811   0.846   6.246  0.00  0.00    +0.000 HD
ENDBRANCH  20  21
ENDBRANCH   5  20
TORSDOF 8
ENDMDL
MODEL 2
REMARK VINA RESULT:    -6.775      2.315      6.008
REMARK INTER + INTRA:         -10.661
REMARK INTER:                  -9.722
REMARK INTRA:                  -0.939
REMARK UNBOUND:                -1.114
REMARK  Name = 
REMARK  9 active torsions:
REMARK  status: ('A' for Active; 'I' for Inactive)
REMARK    1  A    between atoms: C_1  and  O_2
REMARK    2  A    between atoms: O_2  and  C_3
REMARK    3  A    between atoms: C_6  and  C_7
REMARK    4  A    between atoms: C_7  and  C_8
REMARK    5  A    between atoms: C_8  and  O_9
REMARK    6  A    between atoms: O_9  and  C_10
REMARK    7  A    between atoms: C_13  and  O_14
REMARK    8  A    between atoms: C_15  and  C_16
REMARK    9  A    between atoms: C_16  and  N_17
REMARK                            x       y       z     vdW  Elec       q    Type
REMARK                         _______ _______ _______ _____ _____    ______ ____
ROOT
ATOM      1  C   UNL     1      45.036   5.707  12.070  0.00  0.00    +0.000 A 
ATOM      2  C   UNL     1      45.882   6.559  11.358  0.00  0.00    +0.000 A 
ATOM      3  C   UNL     1      47.201   6.756  11.771  0.00  0.00    +0.000 A 
ATOM      4  C   UNL     1      47.679   6.104  12.906  0.00  0.00    +0.000 A 
ATOM      5  C   UNL     1      46.854   5.256  13.650  0.00  0.00    +0.000 A 
ATOM      6  C   UNL     1      45.530   5.059  13.209  0.00  0.00    +0.000 A 
ENDROOT
BRANCH   4   7
ATOM      7  O   UNL     1      48.973   6.301  13.301  0.00  0.00    +0.000 OA
ATOM      8  H   UNL     1      49.554   5.752  12.750  0.00  0.00    +0.000 HD
ENDBRANCH   4   7
BRANCH   1   9
ATOM      9  O   UNL     1      43.730   5.436  11.751  0.00  0.00    +0.000 OA
BRANCH   9  10
ATOM     10  C   UNL     1      43.493   4.956  10.425  0.00  0.00    +0.000 C 
BRANCH  10  11
ATOM     11  C   UNL     1      43.829   3.467  10.346  0.00  0.00    +0.000 C 
BRANCH  11  15
ATOM     12  C   UNL     1      46.845   2.664   7.345  0.00  0.00    +0.000 A 
ATOM     13  C   UNL     1      46.427   3.972   7.588  0.00  0.00    +0.000 A 
ATOM     14  C   UNL     1      45.455   4.232   8.563  0.00  0.00    +0.000 A 
ATOM     15  C   UNL     1      44.894   3.190   9.313  0.00  0.00    +0.000 A 
ATOM     16  C   UNL     1      45.312   1.879   9.058  0.00  0.00    +0.000 A 
ATOM     17  C   UNL     1      46.281   1.622   8.085  0.00  0.00    +0.000 A 
BRANCH  12  19
ATOM     18  C   UNL     1      47.499   2.549   5.060  0.00  0.00    +0.000 C 
ATOM     19  O   UNL     1      47.779   2.272   6.428  0.00  0.00    +0.000 OA
ENDBRANCH  12  19
ENDBRANCH  11  15
ENDBRANCH  10  11
ENDBRANCH   9  10
ENDBRANCH   1   9
BRANCH   5  20
ATOM     20  C   UNL     1      47.347   4.557  14.892  0.00  0.00    +0.000 C 
BRANCH  20  21
ATOM     21  N   UNL     1      47.492   3.116  14.679  0.00  0.00    +0.000 NA
ATOM     22  H   UNL     1      46.638   2.665  15.009  0.00  0.00    +0.000 HD
ATOM     23  H   UNL     1      48.238   2.775  15.279  0.00  0.00    +0.000 HD
ENDBRANCH  20  21
ENDBRANCH   5  20
TORSDOF 8
ENDMDL
MODEL 3
REMARK VINA RESULT:    -6.730      2.679      6.329
REMARK INTER + INTRA:         -10.598
REMARK INTER:                  -9.647
REMARK INTRA:                  -0.951
REMARK UNBOUND:                -1.114
REMARK  Name = 
REMARK  9 active torsions:
REMARK  status: ('A' for Active; 'I' for Inactive)
REMARK    1  A    between atoms: C_1  and  O_2
REMARK    2  A    between atoms: O_2  and  C_3
REMARK    3  A    between atoms: C_6  and  C_7
REMARK    4  A    between atoms: C_7  and  C_8
REMARK    5  A    between atoms: C_8  and  O_9
REMARK    6  A    between atoms: O_9  and  C_10
REMARK    7  A    between atoms: C_13  and  O_14
REMARK    8  A    between atoms: C_15  and  C_16
REMARK    9  A    between atoms: C_16  and  N_17
REMARK                            x       y       z     vdW  Elec       q    Type
REMARK                         _______ _______ _______ _____ _____    ______ ____
ROOT
ATOM      1  C   UNL     1      44.736   5.038  12.887  0.00  0.00    +0.000 A 
ATOM      2  C   UNL     1      45.700   4.092  13.240  0.00  0.00    +0.000 A 
ATOM      3  C   UNL     1      47.009   4.486  13.523  0.00  0.00    +0.000 A 
ATOM      4  C   UNL     1      47.362   5.832  13.448  0.00  0.00    +0.000 A 
ATOM      5  C   UNL     1      46.424   6.803  13.084  0.00  0.00    +0.000 A 
ATOM      6  C   UNL     1      45.105   6.387  12.816  0.00  0.00    +0.000 A 
ENDROOT
BRANCH   4   7
ATOM      7  O   UNL     1      48.645   6.208  13.731  0.00  0.00    +0.000 OA
ATOM      8  H   UNL     1      49.158   6.212  12.906  0.00  0.00    +0.000 HD
ENDBRANCH   4   7
BRANCH   1   9
ATOM      9  O   UNL     1      43.423   4.764  12.597  0.00  0.00    +0.000 OA
BRANCH   9  10
ATOM     10  C   UNL     1      43.191   3.933  11.456  0.00  0.00    +0.000 C 
BRANCH  10  11
ATOM     11  C   UNL     1      43.649   4.655  10.189  0.00  0.00    +0.000 C 
BRANCH  11  15
ATOM     12  C   UNL     1      46.320   2.188   7.838  0.00  0.00    +0.000 A 
ATOM     13  C   UNL     1      45.451   1.603   8.759  0.00  0.00    +0.000 A 
ATOM     14  C   UNL     1      44.584   2.401   9.516  0.00  0.00    +0.000 A 
ATOM     15  C   UNL     1      44.567   3.793   9.356  0.00  0.00    +0.000 A 
ATOM     16  C   UNL     1      45.447   4.374   8.437  0.00  0.00    +0.000 A 
ATOM     17  C   UNL     1      46.312   3.576   7.685  0.00  0.00    +0.000 A 
BRANCH  12  19
ATOM     18  C   UNL     1      47.851   2.289   6.019  0.00  0.00    +0.000 C 
ATOM     19  O   UNL     1      47.214   1.530   7.041  0.00  0.00    +0.000 OA
ENDBRANCH  12  19
ENDBRANCH  11  15
ENDBRANCH  10  11
ENDBRANCH   9  10
ENDBRANCH   1   9
BRANCH   5  20
ATOM     20  C   UNL     1      46.791   8.262  12.979  0.00  0.00    +0.000 C 
BRANCH  20  21
ATOM     21  N   UNL     1      46.968   8.870  14.298  0.00  0.00    +0.000 NA
ATOM     22  H   UNL     1      47.929   8.697  14.595  0.00  0.00    +0.000 HD
ATOM     23  H   UNL     1      46.378   8.375  14.962  0.00  0.00    +0.000 HD
ENDBRANCH  20  21
ENDBRANCH   5  20
TORSDOF 8
ENDMDL
MODEL 4
REMARK VINA RESULT:    -6.577      1.887      2.652
REMARK INTER + INTRA:         -10.382
REMARK INTER:                  -9.480
REMARK INTRA:                  -0.902
REMARK UNBOUND:                -1.114
REMARK  Name = 
REMARK  9 active torsions:
REMARK  status: ('A' for Active; 'I' for Inactive)
REMARK    1  A    between atoms: C_1  and  O_2
REMARK    2  A    between atoms: O_2  and  C_3
REMARK    3  A    between atoms: C_6  and  C_7
REMARK    4  A    between atoms: C_7  and  C_8
REMARK    5  A    between atoms: C_8  and  O_9
REMARK    6  A    between atoms: O_9  and  C_10
REMARK    7  A    between atoms: C_13  and  O_14
REMARK    8  A    between atoms: C_15  and  C_16
REMARK    9  A    between atoms: C_16  and  N_17
REMARK                            x       y       z     vdW  Elec       q    Type
REMARK                         _______ _______ _______ _____ _____    ______ ____
ROOT
ATOM      1  C   UNL     1      44.734   3.540   8.695  0.00  0.00    +0.000 A 
ATOM      2  C   UNL     1      44.662   2.268   9.266  0.00  0.00    +0.000 A 
ATOM      3  C   UNL     1      45.464   1.231   8.789  0.00  0.00    +0.000 A 
ATOM      4  C   UNL     1      46.341   1.460   7.730  0.00  0.00    +0.000 A 
ATOM      5  C   UNL     1      46.427   2.718   7.127  0.00  0.00    +0.000 A 
ATOM      6  C   UNL     1      45.619   3.755   7.631  0.00  0.00    +0.000 A 
ENDROOT
BRANCH   4   7
ATOM      7  O   UNL     1      47.124   0.438   7.272  0.00  0.00    +0.000 OA
ATOM      8  H   UNL     1      47.714   0.781   6.581  0.00  0.00    +0.000 HD
ENDBRANCH   4   7
BRANCH   1   9
ATOM      9  O   UNL     1      44.000   4.631   9.088  0.00  0.00    +0.000 OA
BRANCH   9  10
ATOM     10  C   UNL     1      44.073   4.971  10.475  0.00  0.00    +0.000 C 
BRANCH  10  11
ATOM     11  C   UNL     1      45.258   5.905  10.716  0.00  0.00    +0.000 C 
BRANCH  11  15
ATOM     12  C   UNL     1      47.317   4.938  14.401  0.00  0.00    +0.000 A 
ATOM     13  C   UNL     1      46.425   4.028  13.835  0.00  0.00    +0.000 A 
ATOM     14  C   UNL     1      45.764   4.338  12.640  0.00  0.00    +0.000 A 
ATOM     15  C   UNL     1      45.990   5.560  11.991  0.00  0.00    +0.000 A 
ATOM     16  C   UNL     1      46.879   6.472  12.569  0.00  0.00    +0.000 A 
ATOM     17  C   UNL     1      47.537   6.161  13.761  0.00  0.00    +0.000 A 
BRANCH  12  19
ATOM     18  C   UNL     1      47.383   4.046  16.605  0.00  0.00    +0.000 C 
ATOM     19  O   UNL     1      48.025   4.763  15.557  0.00  0.00    +0.000 OA
ENDBRANCH  12  19
ENDBRANCH  11  15
ENDBRANCH  10  11
ENDBRANCH   9  10
ENDBRANCH   1   9
BRANCH   5  20
ATOM     20  C   UNL     1      47.356   2.980   5.967  0.00  0.00    +0.000 C 
BRANCH  20  21
ATOM     21  N   UNL     1      48.719   2.534   6.257  0.00  0.00    +0.000 NA
ATOM     22  H   UNL     1      49.154   2.265   5.373  0.00  0.00    +0.000 HD
ATOM     23  H   UNL     1      48.668   1.683   6.812  0.00  0.00    +0.000 HD
ENDBRANCH  20  21
ENDBRANCH   5  20
TORSDOF 8
ENDMDL
MODEL 5
REMARK VINA RESULT:    -5.972      2.447      4.480
REMARK INTER + INTRA:          -9.529
REMARK INTER:                  -8.413
REMARK INTRA:                  -1.116
REMARK UNBOUND:                -1.114
REMARK  Name = 
REMARK  9 active torsions:
REMARK  status: ('A' for Active; 'I' for Inactive)
REMARK    1  A    between atoms: C_1  and  O_2
REMARK    2  A    between atoms: O_2  and  C_3
REMARK    3  A    between atoms: C_6  and  C_7
REMARK    4  A    between atoms: C_7  and  C_8
REMARK    5  A    between atoms: C_8  and  O_9
REMARK    6  A    between atoms: O_9  and  C_10
REMARK    7  A    between atoms: C_13  and  O_14
REMARK    8  A    between atoms: C_15  and  C_16
REMARK    9  A    between atoms: C_16  and  N_17
REMARK                            x       y       z     vdW  Elec       q    Type
REMARK                         _______ _______ _______ _____ _____    ______ ____
ROOT
ATOM      1  C   UNL     1      44.542   5.886  11.512  0.00  0.00    +0.000 A 
ATOM      2  C   UNL     1      43.818   5.428  12.614  0.00  0.00    +0.000 A 
ATOM      3  C   UNL     1      43.284   4.138  12.625  0.00  0.00    +0.000 A 
ATOM      4  C   UNL     1      43.469   3.300  11.527  0.00  0.00    +0.000 A 
ATOM      5  C   UNL     1      44.177   3.732  10.403  0.00  0.00    +0.000 A 
ATOM      6  C   UNL     1      44.719   5.032  10.416  0.00  0.00    +0.000 A 
ENDROOT
BRANCH   4   7
ATOM      7  O   UNL     1      42.946   2.037  11.550  0.00  0.00    +0.000 OA
ATOM      8  H   UNL     1      42.566   1.872  12.428  0.00  0.00    +0.000 HD
ENDBRANCH   4   7
BRANCH   1   9
ATOM      9  O   UNL     1      45.115   7.127  11.397  0.00  0.00    +0.000 OA
BRANCH   9  10
ATOM     10  C   UNL     1      45.945   7.541  12.486  0.00  0.00    +0.000 C 
BRANCH  10  11
ATOM     11  C   UNL     1      47.247   6.741  12.476  0.00  0.00    +0.000 C 
BRANCH  11  15
ATOM     12  C   UNL     1      48.092   4.915  16.310  0.00  0.00    +0.000 A 
ATOM     13  C   UNL     1      48.690   6.126  15.961  0.00  0.00    +0.000 A 
ATOM     14  C   UNL     1      48.412   6.719  14.724  0.00  0.00    +0.000 A 
ATOM     15  C   UNL     1      47.528   6.114  13.820  0.00  0.00    +0.000 A 
ATOM     16  C   UNL     1      46.938   4.895  14.172  0.00  0.00    +0.000 A 
ATOM     17  C   UNL     1      47.217   4.305  15.407  0.00  0.00    +0.000 A 
BRANCH  12  19
ATOM     18  C   UNL     1      47.600   2.985  17.612  0.00  0.00    +0.000 C 
ATOM     19  O   UNL     1      48.275   4.231  17.478  0.00  0.00    +0.000 OA
ENDBRANCH  12  19
ENDBRANCH  11  15
ENDBRANCH  10  11
ENDBRANCH   9  10
ENDBRANCH   1   9
BRANCH   5  20
ATOM     20  C   UNL     1      44.371   2.846   9.197  0.00  0.00    +0.000 C 
BRANCH  20  21
ATOM     21  N   UNL     1      45.287   1.740   9.482  0.00  0.00    +0.000 NA
ATOM     22  H   UNL     1      44.904   0.899   9.050  0.00  0.00    +0.000 HD
ATOM     23  H   UNL     1      45.280   1.567  10.485  0.00  0.00    +0.000 HD
ENDBRANCH  20  21
ENDBRANCH   5  20
TORSDOF 8
ENDMDL
MODEL 6
REMARK VINA RESULT:    -5.800      2.747      6.442
REMARK INTER + INTRA:          -9.287
REMARK INTER:                  -8.624
REMARK INTRA:                  -0.663
REMARK UNBOUND:                -1.114
REMARK  Name = 
REMARK  9 active torsions:
REMARK  status: ('A' for Active; 'I' for Inactive)
REMARK    1  A    between atoms: C_1  and  O_2
REMARK    2  A    between atoms: O_2  and  C_3
REMARK    3  A    between atoms: C_6  and  C_7
REMARK    4  A    between atoms: C_7  and  C_8
REMARK    5  A    between atoms: C_8  and  O_9
REMARK    6  A    between atoms: O_9  and  C_10
REMARK    7  A    between atoms: C_13  and  O_14
REMARK    8  A    between atoms: C_15  and  C_16
REMARK    9  A    between atoms: C_16  and  N_17
REMARK                            x       y       z     vdW  Elec       q    Type
REMARK                         _______ _______ _______ _____ _____    ______ ____
ROOT
ATOM      1  C   UNL     1      46.236   4.718  13.549  0.00  0.00    +0.000 A 
ATOM      2  C   UNL     1      46.497   5.831  12.749  0.00  0.00    +0.000 A 
ATOM      3  C   UNL     1      47.443   6.780  13.142  0.00  0.00    +0.000 A 
ATOM      4  C   UNL     1      48.129   6.622  14.345  0.00  0.00    +0.000 A 
ATOM      5  C   UNL     1      47.880   5.526  15.176  0.00  0.00    +0.000 A 
ATOM      6  C   UNL     1      46.933   4.572  14.756  0.00  0.00    +0.000 A 
ENDROOT
BRANCH   4   7
ATOM      7  O   UNL     1      49.054   7.555  14.719  0.00  0.00    +0.000 OA
ATOM      8  H   UNL     1      48.631   8.195  15.314  0.00  0.00    +0.000 HD
ENDBRANCH   4   7
BRANCH   1   9
ATOM      9  O   UNL     1      45.337   3.723  13.258  0.00  0.00    +0.000 OA
BRANCH   9  10
ATOM     10  C   UNL     1      44.075   4.149  12.737  0.00  0.00    +0.000 C 
BRANCH  10  11
ATOM     11  C   UNL     1      43.589   3.154  11.684  0.00  0.00    +0.000 C 
BRANCH  11  15
ATOM     12  C   UNL     1      45.724   3.653   7.950  0.00  0.00    +0.000 A 
ATOM     13  C   UNL     1      45.299   2.387   8.353  0.00  0.00    +0.000 A 
ATOM     14  C   UNL     1      44.604   2.226   9.558  0.00  0.00    +0.000 A 
ATOM     15  C   UNL     1      44.317   3.330  10.373  0.00  0.00    +0.000 A 
ATOM     16  C   UNL     1      44.753   4.595   9.967  0.00  0.00    +0.000 A 
ATOM     17  C   UNL     1      45.447   4.753   8.765  0.00  0.00    +0.000 A 
BRANCH  12  19
ATOM     18  C   UNL     1      46.862   2.850   6.020  0.00  0.00    +0.000 C 
ATOM     19  O   UNL     1      46.409   3.948   6.805  0.00  0.00    +0.000 OA
ENDBRANCH  12  19
ENDBRANCH  11  15
ENDBRANCH  10  11
ENDBRANCH   9  10
ENDBRANCH   1   9
BRANCH   5  20
ATOM     20  C   UNL     1      48.598   5.348  16.491  0.00  0.00    +0.000 C 
BRANCH  20  21
ATOM     21  N   UNL     1      48.990   3.954  16.706  0.00  0.00    +0.000 NA
ATOM     22  H   UNL     1      49.625   3.688  15.952  0.00  0.00    +0.000 HD
ATOM     23  H   UNL     1      48.166   3.368  16.597  0.00  0.00    +0.000 HD
ENDBRANCH  20  21
ENDBRANCH   5  20
TORSDOF 8
ENDMDL
MODEL 7
REMARK VINA RESULT:    -5.503      5.032      6.715
REMARK INTER + INTRA:          -8.869
REMARK INTER:                  -8.354
REMARK INTRA:                  -0.515
REMARK UNBOUND:                -1.114
REMARK  Name = 
REMARK  9 active torsions:
REMARK  status: ('A' for Active; 'I' for Inactive)
REMARK    1  A    between atoms: C_1  and  O_2
REMARK    2  A    between atoms: O_2  and  C_3
REMARK    3  A    between atoms: C_6  and  C_7
REMARK    4  A    between atoms: C_7  and  C_8
REMARK    5  A    between atoms: C_8  and  O_9
REMARK    6  A    between atoms: O_9  and  C_10
REMARK    7  A    between atoms: C_13  and  O_14
REMARK    8  A    between atoms: C_15  and  C_16
REMARK    9  A    between atoms: C_16  and  N_17
REMARK                            x       y       z     vdW  Elec       q    Type
REMARK                         _______ _______ _______ _____ _____    ______ ____
ROOT
ATOM      1  C   UNL     1      47.147   5.374  13.793  0.00  0.00    +0.000 A 
ATOM      2  C   UNL     1      47.620   6.255  12.820  0.00  0.00    +0.000 A 
ATOM      3  C   UNL     1      46.807   6.630  11.748  0.00  0.00    +0.000 A 
ATOM      4  C   UNL     1      45.516   6.118  11.642  0.00  0.00    +0.000 A 
ATOM      5  C   UNL     1      45.017   5.222  12.592  0.00  0.00    +0.000 A 
ATOM      6  C   UNL     1      45.846   4.867  13.674  0.00  0.00    +0.000 A 
ENDROOT
BRANCH   4   7
ATOM      7  O   UNL     1      44.727   6.493  10.591  0.00  0.00    +0.000 OA
ATOM      8  H   UNL     1      45.204   6.318   9.764  0.00  0.00    +0.000 HD
ENDBRANCH   4   7
BRANCH   1   9
ATOM      9  O   UNL     1      47.854   4.945  14.889  0.00  0.00    +0.000 OA
BRANCH   9  10
ATOM     10  C   UNL     1      47.134   4.138  15.824  0.00  0.00    +0.000 C 
BRANCH  10  11
ATOM     11  C   UNL     1      47.686   4.362  17.232  0.00  0.00    +0.000 C 
BRANCH  11  15
ATOM     12  C   UNL     1      51.683   2.740  17.614  0.00  0.00    +0.000 A 
ATOM     13  C   UNL     1      51.443   4.088  17.880  0.00  0.00    +0.000 A 
ATOM     14  C   UNL     1      50.149   4.612  17.762  0.00  0.00    +0.000 A 
ATOM     15  C   UNL     1      49.077   3.793  17.384  0.00  0.00    +0.000 A 
ATOM     16  C   UNL     1      49.325   2.444  17.109  0.00  0.00    +0.000 A 
ATOM     17  C   UNL     1      50.616   1.925  17.227  0.00  0.00    +0.000 A 
BRANCH  12  19
ATOM     18  C   UNL     1      52.870   0.685  17.780  0.00  0.00    +0.000 C 
ATOM     19  O   UNL     1      52.890   2.105  17.689  0.00  0.00    +0.000 OA
ENDBRANCH  12  19
ENDBRANCH  11  15
ENDBRANCH  10  11
ENDBRANCH   9  10
ENDBRANCH   1   9
BRANCH   5  20
ATOM     20  C   UNL     1      43.628   4.642  12.485  0.00  0.00    +0.000 C 
BRANCH  20  21
ATOM     21  N   UNL     1      42.679   5.353  13.342  0.00  0.00    +0.000 NA
ATOM     22  H   UNL     1      41.806   5.456  12.823  0.00  0.00    +0.000 HD
ATOM     23  H   UNL     1      43.026   6.297  13.493  0.00  0.00    +0.000 HD
ENDBRANCH  20  21
ENDBRANCH   5  20
TORSDOF 8
ENDMDL
MODEL 8
REMARK VINA RESULT:    -5.206      2.613      4.884
REMARK INTER + INTRA:          -8.450
REMARK INTER:                  -7.995
REMARK INTRA:                  -0.454
REMARK UNBOUND:                -1.114
REMARK  Name = 
REMARK  9 active torsions:
REMARK  status: ('A' for Active; 'I' for Inactive)
REMARK    1  A    between atoms: C_1  and  O_2
REMARK    2  A    between atoms: O_2  and  C_3
REMARK    3  A    between atoms: C_6  and  C_7
REMARK    4  A    between atoms: C_7  and  C_8
REMARK    5  A    between atoms: C_8  and  O_9
REMARK    6  A    between atoms: O_9  and  C_10
REMARK    7  A    between atoms: C_13  and  O_14
REMARK    8  A    between atoms: C_15  and  C_16
REMARK    9  A    between atoms: C_16  and  N_17
REMARK                            x       y       z     vdW  Elec       q    Type
REMARK                         _______ _______ _______ _____ _____    ______ ____
ROOT
ATOM      1  C   UNL     1      44.472   5.850  11.709  0.00  0.00    +0.000 A 
ATOM      2  C   UNL     1      43.747   5.378  12.804  0.00  0.00    +0.000 A 
ATOM      3  C   UNL     1      43.238   4.078  12.810  0.00  0.00    +0.000 A 
ATOM      4  C   UNL     1      43.449   3.244  11.713  0.00  0.00    +0.000 A 
ATOM      5  C   UNL     1      44.159   3.691  10.595  0.00  0.00    +0.000 A 
ATOM      6  C   UNL     1      44.676   5.001  10.614  0.00  0.00    +0.000 A 
ENDROOT
BRANCH   4   7
ATOM      7  O   UNL     1      42.951   1.972  11.730  0.00  0.00    +0.000 OA
ATOM      8  H   UNL     1      43.026   1.594  10.838  0.00  0.00    +0.000 HD
ENDBRANCH   4   7
BRANCH   1   9
ATOM      9  O   UNL     1      45.021   7.103  11.601  0.00  0.00    +0.000 OA
BRANCH   9  10
ATOM     10  C   UNL     1      45.551   7.665  12.805  0.00  0.00    +0.000 C 
BRANCH  10  11
ATOM     11  C   UNL     1      46.230   8.999  12.498  0.00  0.00    +0.000 C 
BRANCH  11  15
ATOM     12  C   UNL     1      50.408   8.480  11.486  0.00  0.00    +0.000 A 
ATOM     13  C   UNL     1      49.648   7.392  11.915  0.00  0.00    +0.000 A 
ATOM     14  C   UNL     1      48.296   7.559  12.237  0.00  0.00    +0.000 A 
ATOM     15  C   UNL     1      47.682   8.813  12.127  0.00  0.00    +0.000 A 
ATOM     16  C   UNL     1      48.451   9.903  11.704  0.00  0.00    +0.000 A 
ATOM     17  C   UNL     1      49.800   9.734  11.384  0.00  0.00    +0.000 A 
BRANCH  12  19
ATOM     18  C   UNL     1      52.156   7.409  10.278  0.00  0.00    +0.000 C 
ATOM     19  O   UNL     1      51.730   8.456  11.143  0.00  0.00    +0.000 OA
ENDBRANCH  12  19
ENDBRANCH  11  15
ENDBRANCH  10  11
ENDBRANCH   9  10
ENDBRANCH   1   9
BRANCH   5  20
ATOM     20  C   UNL     1      44.381   2.810   9.391  0.00  0.00    +0.000 C 
BRANCH  20  21
ATOM     21  N   UNL     1      44.356   3.580   8.147  0.00  0.00    +0.000 NA
ATOM     22  H   UNL     1      43.813   3.051   7.464  0.00  0.00    +0.000 HD
ATOM     23  H   UNL     1      45.302   3.625   7.777  0.00  0.00    +0.000 HD
ENDBRANCH  20  21
ENDBRANCH   5  20
TORSDOF 8
ENDMDL
MODEL 9
REMARK VINA RESULT:    -5.168      4.205      8.049
REMARK INTER + INTRA:          -8.397
REMARK INTER:                  -7.528
REMARK INTRA:                  -0.868
REMARK UNBOUND:                -1.114
REMARK  Name = 
REMARK  9 active torsions:
REMARK  status: ('A' for Active; 'I' for Inactive)
REMARK    1  A    between atoms: C_1  and  O_2
REMARK    2  A    between atoms: O_2  and  C_3
REMARK    3  A    between atoms: C_6  and  C_7
REMARK    4  A    between atoms: C_7  and  C_8
REMARK    5  A    between atoms: C_8  and  O_9
REMARK    6  A    between atoms: O_9  and  C_10
REMARK    7  A    between atoms: C_13  and  O_14
REMARK    8  A    between atoms: C_15  and  C_16
REMARK    9  A    between atoms: C_16  and  N_17
REMARK                            x       y       z     vdW  Elec       q    Type
REMARK                         _______ _______ _______ _____ _____    ______ ____
ROOT
ATOM      1  C   UNL     1      48.823   6.685  16.566  0.00  0.00    +0.000 A 
ATOM      2  C   UNL     1      49.261   7.039  17.843  0.00  0.00    +0.000 A 
ATOM      3  C   UNL     1      49.276   6.098  18.873  0.00  0.00    +0.000 A 
ATOM      4  C   UNL     1      48.845   4.795  18.632  0.00  0.00    +0.000 A 
ATOM      5  C   UNL     1      48.386   4.411  17.368  0.00  0.00    +0.000 A 
ATOM      6  C   UNL     1      48.392   5.372  16.338  0.00  0.00    +0.000 A 
ENDROOT
BRANCH   4   7
ATOM      7  O   UNL     1      48.867   3.880  19.647  0.00  0.00    +0.000 OA
ATOM      8  H   UNL     1      48.512   3.038  19.316  0.00  0.00    +0.000 HD
ENDBRANCH   4   7
BRANCH   1   9
ATOM      9  O   UNL     1      48.773   7.524  15.481  0.00  0.00    +0.000 OA
BRANCH   9  10
ATOM     10  C   UNL     1      48.664   6.893  14.203  0.00  0.00    +0.000 C 
BRANCH  10  11
ATOM     11  C   UNL     1      47.468   7.467  13.443  0.00  0.00    +0.000 C 
BRANCH  11  15
ATOM     12  C   UNL     1      45.141   4.382  11.489  0.00  0.00    +0.000 A 
ATOM     13  C   UNL     1      45.452   5.563  10.813  0.00  0.00    +0.000 A 
ATOM     14  C   UNL     1      46.209   6.558  11.443  0.00  0.00    +0.000 A 
ATOM     15  C   UNL     1      46.673   6.384  12.754  0.00  0.00    +0.000 A 
ATOM     16  C   UNL     1      46.350   5.202  13.430  0.00  0.00    +0.000 A 
ATOM     17  C   UNL     1      45.594   4.211  12.799  0.00  0.00    +0.000 A 
BRANCH  12  19
ATOM     18  C   UNL     1      43.387   2.811  11.827  0.00  0.00    +0.000 C 
ATOM     19  O   UNL     1      44.413   3.337  10.994  0.00  0.00    +0.000 OA
ENDBRANCH  12  19
ENDBRANCH  11  15
ENDBRANCH  10  11
ENDBRANCH   9  10
ENDBRANCH   1   9
BRANCH   5  20
ATOM     20  C   UNL     1      47.897   3.012  17.092  0.00  0.00    +0.000 C 
BRANCH  20  21
ATOM     21  N   UNL     1      46.647   2.728  17.800  0.00  0.00    +0.000 NA
ATOM     22  H   UNL     1      46.847   2.029  18.517  0.00  0.00    +0.000 HD
ATOM     23  H   UNL     1      46.004   2.284  17.150  0.00  0.00    +0.000 HD
ENDBRANCH  20  21
ENDBRANCH   5  20
TORSDOF 8
ENDMDL
