MODEL 1
REMARK VINA RESULT:    -8.239      0.000      0.000
REMARK INTER + INTRA:         -11.371
REMARK INTER:                 -10.647
REMARK INTRA:                  -0.723
REMARK UNBOUND:                -0.723
REMARK  Name = 
REMARK  5 active torsions:
REMARK  status: ('A' for Active; 'I' for Inactive)
REMARK    1  A    between atoms: C_2  and  C_3
REMARK    2  A    between atoms: C_6  and  O_7
REMARK    3  A    between atoms: O_7  and  C_8
REMARK    4  A    between atoms: C_8  and  C_9
REMARK    5  A    between atoms: C_14  and  C_15
REMARK                            x       y       z     vdW  Elec       q    Type
REMARK                         _______ _______ _______ _____ _____    ______ ____
ROOT
ATOM      1  C   UNL     1      44.802   4.108  12.004  0.00  0.00    +0.000 A 
ATOM      2  C   UNL     1      45.604   3.331  12.843  0.00  0.00    +0.000 A 
ATOM      3  C   UNL     1      46.665   3.920  13.517  0.00  0.00    +0.000 A 
ATOM      4  F   UNL     1      47.431   3.168  14.321  0.00  0.00    +0.000 F 
ATOM      5  C   UNL     1      46.950   5.276  13.376  0.00  0.00    +0.000 A 
ATOM      6  C   UNL     1      46.182   6.087  12.524  0.00  0.00    +0.000 A 
ATOM      7  C   UNL     1      45.121   5.467  11.834  0.00  0.00    +0.000 A 
ENDROOT
BRANCH   6   8
ATOM      8  C   UNL     1      46.469   7.526  12.347  0.00  0.00    +0.000 A 
ATOM      9  C   UNL     1      47.763   8.014  12.120  0.00  0.00    +0.000 A 
ATOM     10  C   UNL     1      47.992   9.380  11.948  0.00  0.00    +0.000 A 
ATOM     11  C   UNL     1      46.910  10.238  11.999  0.00  0.00    +0.000 A 
ATOM     12  N   UNL     1      45.646   9.830  12.216  0.00  0.00    +0.000 NA
ATOM     13  C   UNL     1      45.462   8.497  12.390  0.00  0.00    +0.000 A 
ENDBRANCH   6   8
BRANCH   1  14
ATOM     14  C   UNL     1      43.664   3.469  11.242  0.00  0.00    +0.000 C 
BRANCH  14  15
ATOM     15  O   UNL     1      43.586   4.013   9.919  0.00  0.00    +0.000 OA
BRANCH  15  19
ATOM     16  C   UNL     1      46.516   2.444   7.495  0.00  0.00    +0.000 A 
ATOM     17  C   UNL     1      45.821   1.609   8.371  0.00  0.00    +0.000 A 
ATOM     18  C   UNL     1      44.824   2.148   9.184  0.00  0.00    +0.000 A 
ATOM     19  C   UNL     1      44.561   3.506   9.088  0.00  0.00    +0.000 A 
ATOM     20  N   UNL     1      45.211   4.335   8.244  0.00  0.00    +0.000 NA
ATOM     21  C   UNL     1      46.172   3.787   7.466  0.00  0.00    +0.000 A 
BRANCH  16  23
ATOM     22  N   UNL     1      48.398   1.557   5.960  0.00  0.00    +0.000 NA
ATOM     23  C   UNL     1      47.553   1.949   6.652  0.00  0.00    +0.000 C 
ENDBRANCH  16  23
ENDBRANCH  15  19
ENDBRANCH  14  15
ENDBRANCH   1  14
TORSDOF 5
ENDMDL
MODEL 2
REMARK VINA RESULT:    -7.956      2.374      3.541
REMARK INTER + INTRA:         -11.005
REMARK INTER:                 -10.312
REMARK INTRA:                  -0.693
REMARK UNBOUND:                -0.723
REMARK  Name = 
REMARK  5 active torsions:
REMARK  status: ('A' for Active; 'I' for Inactive)
REMARK    1  A    between atoms: C_2  and  C_3
REMARK    2  A    between atoms: C_6  and  O_7
REMARK    3  A    between atoms: O_7  and  C_8
REMARK    4  A    between atoms: C_8  and  C_9
REMARK    5  A    between atoms: C_14  and  C_15
REMARK                            x       y       z     vdW  Elec       q    Type
REMARK                         _______ _______ _______ _____ _____    ______ ____
ROOT
ATOM      1  C   UNL     1      44.896   4.707  11.907  0.00  0.00    +0.000 A 
ATOM      2  C   UNL     1      44.847   5.996  11.369  0.00  0.00    +0.000 A 
ATOM      3  C   UNL     1      45.608   7.007  11.940  0.00  0.00    +0.000 A 
ATOM      4  F   UNL     1      45.556   8.241  11.419  0.00  0.00    +0.000 F 
ATOM      5  C   UNL     1      46.425   6.765  13.041  0.00  0.00    +0.000 A 
ATOM      6  C   UNL     1      46.485   5.489  13.626  0.00  0.00    +0.000 A 
ATOM      7  C   UNL     1      45.691   4.480  13.044  0.00  0.00    +0.000 A 
ENDROOT
BRANCH   6   8
ATOM      8  C   UNL     1      47.335   5.207  14.802  0.00  0.00    +0.000 A 
ATOM      9  C   UNL     1      47.140   4.087  15.621  0.00  0.00    +0.000 A 
ATOM     10  C   UNL     1      47.971   3.850  16.717  0.00  0.00    +0.000 A 
ATOM     11  C   UNL     1      48.996   4.743  16.969  0.00  0.00    +0.000 A 
ATOM     12  N   UNL     1      49.230   5.837  16.222  0.00  0.00    +0.000 NA
ATOM     13  C   UNL     1      48.397   6.041  15.171  0.00  0.00    +0.000 A 
ENDBRANCH   6   8
BRANCH   1  14
ATOM     14  C   UNL     1      44.047   3.608  11.312  0.00  0.00    +0.000 C 
BRANCH  14  15
ATOM     15  O   UNL     1      43.732   3.908   9.947  0.00  0.00    +0.000 OA
BRANCH  15  19
ATOM     16  C   UNL     1      46.607   2.443   7.397  0.00  0.00    +0.000 A 
ATOM     17  C   UNL     1      45.989   1.586   8.309  0.00  0.00    +0.000 A 
ATOM     18  C   UNL     1      45.010   2.090   9.165  0.00  0.00    +0.000 A 
ATOM     19  C   UNL     1      44.687   3.436   9.074  0.00  0.00    +0.000 A 
ATOM     20  N   UNL     1      45.261   4.284   8.195  0.00  0.00    +0.000 NA
ATOM     21  C   UNL     1      46.207   3.770   7.376  0.00  0.00    +0.000 A 
BRANCH  16  23
ATOM     22  N   UNL     1      48.454   1.603   5.794  0.00  0.00    +0.000 NA
ATOM     23  C   UNL     1      47.623   1.984   6.508  0.00  0.00    +0.000 C 
ENDBRANCH  16  23
ENDBRANCH  15  19
ENDBRANCH  14  15
ENDBRANCH   1  14
TORSDOF 5
ENDMDL
MODEL 3
REMARK VINA RESULT:    -7.786      1.584      2.096
REMARK INTER + INTRA:         -10.785
REMARK INTER:                  -9.982
REMARK INTRA:                  -0.804
REMARK UNBOUND:                -0.723
REMARK  Name = 
REMARK  5 active torsions:
REMARK  status: ('A' for Active; 'I' for Inactive)
REMARK    1  A    between atoms: C_2  and  C_3
REMARK    2  A    between atoms: C_6  and  O_7
REMARK    3  A    between atoms: O_7  and  C_8
REMARK    4  A    between atoms: C_8  and  C_9
REMARK    5  A    between atoms: C_14  and  C_15
REMARK                            x       y       z     vdW  Elec       q    Type
REMARK                         _______ _______ _______ _____ _____    ______ ____
ROOT
ATOM      1  C   UNL     1      44.933   5.394  11.852  0.00  0.00    +0.000 A 
ATOM      2  C   UNL     1      46.138   5.256  12.545  0.00  0.00    +0.000 A 
ATOM      3  C   UNL     1      46.856   6.388  12.905  0.00  0.00    +0.000 A 
ATOM      4  F   UNL     1      48.012   6.248  13.570  0.00  0.00    +0.000 F 
ATOM      5  C   UNL     1      46.400   7.665  12.590  0.00  0.00    +0.000 A 
ATOM      6  C   UNL     1      45.206   7.846  11.874  0.00  0.00    +0.000 A 
ATOM      7  C   UNL     1      44.500   6.685  11.501  0.00  0.00    +0.000 A 
ENDROOT
BRANCH   6   8
ATOM      8  C   UNL     1      44.705   9.191  11.517  0.00  0.00    +0.000 A 
ATOM      9  C   UNL     1      45.404  10.364  11.832  0.00  0.00    +0.000 A 
ATOM     10  C   UNL     1      44.903  11.614  11.468  0.00  0.00    +0.000 A 
ATOM     11  C   UNL     1      43.704  11.667  10.782  0.00  0.00    +0.000 A 
ATOM     12  N   UNL     1      42.986  10.577  10.455  0.00  0.00    +0.000 NA
ATOM     13  C   UNL     1      43.498   9.379  10.833  0.00  0.00    +0.000 A 
ENDBRANCH   6   8
BRANCH   1  14
ATOM     14  C   UNL     1      44.159   4.167  11.429  0.00  0.00    +0.000 C 
BRANCH  14  15
ATOM     15  O   UNL     1      43.771   4.275  10.054  0.00  0.00    +0.000 OA
BRANCH  15  19
ATOM     16  C   UNL     1      46.566   2.564   7.569  0.00  0.00    +0.000 A 
ATOM     17  C   UNL     1      45.842   1.762   8.453  0.00  0.00    +0.000 A 
ATOM     18  C   UNL     1      44.891   2.349   9.287  0.00  0.00    +0.000 A 
ATOM     19  C   UNL     1      44.702   3.721   9.204  0.00  0.00    +0.000 A 
ATOM     20  N   UNL     1      45.381   4.518   8.352  0.00  0.00    +0.000 NA
ATOM     21  C   UNL     1      46.296   3.923   7.554  0.00  0.00    +0.000 A 
BRANCH  16  23
ATOM     22  N   UNL     1      48.361   1.567   5.997  0.00  0.00    +0.000 NA
ATOM     23  C   UNL     1      47.560   2.018   6.705  0.00  0.00    +0.000 C 
ENDBRANCH  16  23
ENDBRANCH  15  19
ENDBRANCH  14  15
ENDBRANCH   1  14
TORSDOF 5
ENDMDL
MODEL 4
REMARK VINA RESULT:    -7.654      2.309      3.006
REMARK INTER + INTRA:         -10.614
REMARK INTER:                  -9.881
REMARK INTRA:                  -0.733
REMARK UNBOUND:                -0.723
REMARK  Name = 
REMARK  5 active torsions:
REMARK  status: ('A' for Active; 'I' for Inactive)
REMARK    1  A    between atoms: C_2  and  C_3
REMARK    2  A    between atoms: C_6  and  O_7
REMARK    3  A    between atoms: O_7  and  C_8
REMARK    4  A    between atoms: C_8  and  C_9
REMARK    5  A    between atoms: C_14  and  C_15
REMARK                            x       y       z     vdW  Elec       q    Type
REMARK                         _______ _______ _______ _____ _____    ______ ____
ROOT
ATOM      1  C   UNL     1      44.629   5.355  11.590  0.00  0.00    +0.000 A 
ATOM      2  C   UNL     1      43.798   6.431  11.270  0.00  0.00    +0.000 A 
ATOM      3  C   UNL     1      44.275   7.728  11.395  0.00  0.00    +0.000 A 
ATOM      4  F   UNL     1      43.472   8.757  11.087  0.00  0.00    +0.000 F 
ATOM      5  C   UNL     1      45.572   7.983  11.835  0.00  0.00    +0.000 A 
ATOM      6  C   UNL     1      46.431   6.931  12.188  0.00  0.00    +0.000 A 
ATOM      7  C   UNL     1      45.923   5.621  12.073  0.00  0.00    +0.000 A 
ENDROOT
BRANCH   6   8
ATOM      8  C   UNL     1      47.809   7.174  12.668  0.00  0.00    +0.000 A 
ATOM      9  C   UNL     1      48.789   7.777  11.868  0.00  0.00    +0.000 A 
ATOM     10  C   UNL     1      50.076   7.999  12.361  0.00  0.00    +0.000 A 
ATOM     11  C   UNL     1      50.357   7.616  13.659  0.00  0.00    +0.000 A 
ATOM     12  N   UNL     1      49.459   7.030  14.473  0.00  0.00    +0.000 NA
ATOM     13  C   UNL     1      48.222   6.820  13.958  0.00  0.00    +0.000 A 
ENDBRANCH   6   8
BRANCH   1  14
ATOM     14  C   UNL     1      44.107   3.940  11.487  0.00  0.00    +0.000 C 
BRANCH  14  15
ATOM     15  O   UNL     1      43.599   3.694  10.171  0.00  0.00    +0.000 OA
BRANCH  15  19
ATOM     16  C   UNL     1      46.505   2.462   7.533  0.00  0.00    +0.000 A 
ATOM     17  C   UNL     1      46.140   3.808   7.582  0.00  0.00    +0.000 A 
ATOM     18  C   UNL     1      45.159   4.218   8.485  0.00  0.00    +0.000 A 
ATOM     19  C   UNL     1      44.579   3.262   9.305  0.00  0.00    +0.000 A 
ATOM     20  N   UNL     1      44.920   1.956   9.285  0.00  0.00    +0.000 NA
ATOM     21  C   UNL     1      45.874   1.585   8.402  0.00  0.00    +0.000 A 
BRANCH  16  23
ATOM     22  N   UNL     1      48.301   1.597   5.887  0.00  0.00    +0.000 NA
ATOM     23  C   UNL     1      47.491   1.985   6.621  0.00  0.00    +0.000 C 
ENDBRANCH  16  23
ENDBRANCH  15  19
ENDBRANCH  14  15
ENDBRANCH   1  14
TORSDOF 5
ENDMDL
MODEL 5
REMARK VINA RESULT:    -7.347      2.110      6.834
REMARK INTER + INTRA:         -10.218
REMARK INTER:                  -9.460
REMARK INTRA:                  -0.757
REMARK UNBOUND:                -0.723
REMARK  Name = 
REMARK  5 active torsions:
REMARK  status: ('A' for Active; 'I' for Inactive)
REMARK    1  A    between atoms: C_2  and  C_3
REMARK    2  A    between atoms: C_6  and  O_7
REMARK    3  A    between atoms: O_7  and  C_8
REMARK    4  A    between atoms: C_8  and  C_9
REMARK    5  A    between atoms: C_14  and  C_15
REMARK                            x       y       z     vdW  Elec       q    Type
REMARK                         _______ _______ _______ _____ _____    ______ ____
ROOT
ATOM      1  C   UNL     1      44.435   5.105  10.740  0.00  0.00    +0.000 A 
ATOM      2  C   UNL     1      43.650   4.197  11.456  0.00  0.00    +0.000 A 
ATOM      3  C   UNL     1      43.625   2.863  11.075  0.00  0.00    +0.000 A 
ATOM      4  F   UNL     1      42.869   1.997  11.766  0.00  0.00    +0.000 F 
ATOM      5  C   UNL     1      44.369   2.405   9.991  0.00  0.00    +0.000 A 
ATOM      6  C   UNL     1      45.153   3.289   9.231  0.00  0.00    +0.000 A 
ATOM      7  C   UNL     1      45.151   4.644   9.622  0.00  0.00    +0.000 A 
ENDROOT
BRANCH   6   8
ATOM      8  C   UNL     1      45.943   2.832   8.069  0.00  0.00    +0.000 A 
ATOM      9  C   UNL     1      46.223   3.662   6.975  0.00  0.00    +0.000 A 
ATOM     10  C   UNL     1      46.983   3.196   5.901  0.00  0.00    +0.000 A 
ATOM     11  C   UNL     1      47.459   1.899   5.946  0.00  0.00    +0.000 A 
ATOM     12  N   UNL     1      47.220   1.055   6.967  0.00  0.00    +0.000 NA
ATOM     13  C   UNL     1      46.470   1.538   7.989  0.00  0.00    +0.000 A 
ENDBRANCH   6   8
BRANCH   1  14
ATOM     14  C   UNL     1      44.444   6.566  11.129  0.00  0.00    +0.000 C 
BRANCH  14  15
ATOM     15  O   UNL     1      45.184   6.752  12.341  0.00  0.00    +0.000 OA
BRANCH  15  19
ATOM     16  C   UNL     1      48.534   9.083  11.827  0.00  0.00    +0.000 A 
ATOM     17  C   UNL     1      48.624   7.698  11.677  0.00  0.00    +0.000 A 
ATOM     18  C   UNL     1      47.482   6.916  11.847  0.00  0.00    +0.000 A 
ATOM     19  C   UNL     1      46.290   7.553  12.160  0.00  0.00    +0.000 A 
ATOM     20  N   UNL     1      46.172   8.890  12.301  0.00  0.00    +0.000 NA
ATOM     21  C   UNL     1      47.295   9.625  12.131  0.00  0.00    +0.000 A 
BRANCH  16  23
ATOM     22  N   UNL     1      50.604  10.610  11.569  0.00  0.00    +0.000 NA
ATOM     23  C   UNL     1      49.672   9.928  11.680  0.00  0.00    +0.000 C 
ENDBRANCH  16  23
ENDBRANCH  15  19
ENDBRANCH  14  15
ENDBRANCH   1  14
TORSDOF 5
ENDMDL
MODEL 6
REMARK VINA RESULT:    -7.017      3.480      7.302
REMARK INTER + INTRA:          -9.792
REMARK INTER:                  -9.117
REMARK INTRA:                  -0.675
REMARK UNBOUND:                -0.723
REMARK  Name = 
REMARK  5 active torsions:
REMARK  status: ('A' for Active; 'I' for Inactive)
REMARK    1  A    between atoms: C_2  and  C_3
REMARK    2  A    between atoms: C_6  and  O_7
REMARK    3  A    between atoms: O_7  and  C_8
REMARK    4  A    between atoms: C_8  and  C_9
REMARK    5  A    between atoms: C_14  and  C_15
REMARK                            x       y       z     vdW  Elec       q    Type
REMARK                         _______ _______ _______ _____ _____    ______ ____
ROOT
ATOM      1  C   UNL     1      45.305   6.121  12.050  0.00  0.00    +0.000 A 
ATOM      2  C   UNL     1      43.927   6.168  12.272  0.00  0.00    +0.000 A 
ATOM      3  C   UNL     1      43.077   5.416  11.472  0.00  0.00    +0.000 A 
ATOM      4  F   UNL     1      41.755   5.466  11.689  0.00  0.00    +0.000 F 
ATOM      5  C   UNL     1      43.571   4.610  10.449  0.00  0.00    +0.000 A 
ATOM      6  C   UNL     1      44.948   4.553  10.179  0.00  0.00    +0.000 A 
ATOM      7  C   UNL     1      45.793   5.338  10.990  0.00  0.00    +0.000 A 
ENDROOT
BRANCH   6   8
ATOM      8  C   UNL     1      45.498   3.715   9.093  0.00  0.00    +0.000 A 
ATOM      9  C   UNL     1      46.076   4.261   7.938  0.00  0.00    +0.000 A 
ATOM     10  C   UNL     1      46.592   3.435   6.939  0.00  0.00    +0.000 A 
ATOM     11  C   UNL     1      46.528   2.067   7.120  0.00  0.00    +0.000 A 
ATOM     12  N   UNL     1      45.983   1.484   8.203  0.00  0.00    +0.000 NA
ATOM     13  C   UNL     1      45.481   2.316   9.150  0.00  0.00    +0.000 A 
ENDBRANCH   6   8
BRANCH   1  14
ATOM     14  C   UNL     1      46.235   6.961  12.896  0.00  0.00    +0.000 C 
BRANCH  14  15
ATOM     15  O   UNL     1      47.516   6.329  13.001  0.00  0.00    +0.000 OA
BRANCH  15  19
ATOM     16  C   UNL     1      48.152   4.841  16.783  0.00  0.00    +0.000 A 
ATOM     17  C   UNL     1      47.272   4.186  15.920  0.00  0.00    +0.000 A 
ATOM     18  C   UNL     1      47.067   4.694  14.637  0.00  0.00    +0.000 A 
ATOM     19  C   UNL     1      47.755   5.841  14.267  0.00  0.00    +0.000 A 
ATOM     20  N   UNL     1      48.619   6.488  15.077  0.00  0.00    +0.000 NA
ATOM     21  C   UNL     1      48.800   5.974  16.315  0.00  0.00    +0.000 A 
BRANCH  16  23
ATOM     22  N   UNL     1      48.577   4.005  19.193  0.00  0.00    +0.000 NA
ATOM     23  C   UNL     1      48.388   4.374  18.109  0.00  0.00    +0.000 C 
ENDBRANCH  16  23
ENDBRANCH  15  19
ENDBRANCH  14  15
ENDBRANCH   1  14
TORSDOF 5
ENDMDL
MODEL 7
REMARK VINA RESULT:    -6.642      3.154      7.021
REMARK INTER + INTRA:          -9.307
REMARK INTER:                  -8.587
REMARK INTRA:                  -0.719
REMARK UNBOUND:                -0.723
REMARK  Name = 
REMARK  5 active torsions:
REMARK  status: ('A' for Active; 'I' for Inactive)
REMARK    1  A    between atoms: C_2  and  C_3
REMARK    2  A    between atoms: C_6  and  O_7
REMARK    3  A    between atoms: O_7  and  C_8
REMARK    4  A    between atoms: C_8  and  C_9
REMARK    5  A    between atoms: C_14  and  C_15
REMARK                            x       y       z     vdW  Elec       q    Type
REMARK                         _______ _______ _______ _____ _____    ______ ____
ROOT
ATOM      1  C   UNL     1      45.240   6.509  11.544  0.00  0.00    +0.000 A 
ATOM      2  C   UNL     1      43.888   6.453  11.890  0.00  0.00    +0.000 A 
ATOM      3  C   UNL     1      43.074   5.484  11.321  0.00  0.00    +0.000 A 
ATOM      4  F   UNL     1      41.776   5.436  11.657  0.00  0.00    +0.000 F 
ATOM      5  C   UNL     1      43.577   4.559  10.410  0.00  0.00    +0.000 A 
ATOM      6  C   UNL     1      44.926   4.596  10.018  0.00  0.00    +0.000 A 
ATOM      7  C   UNL     1      45.732   5.599  10.592  0.00  0.00    +0.000 A 
ENDROOT
BRANCH   6   8
ATOM      8  C   UNL     1      45.483   3.633   9.045  0.00  0.00    +0.000 A 
ATOM      9  C   UNL     1      46.111   4.039   7.859  0.00  0.00    +0.000 A 
ATOM     10  C   UNL     1      46.634   3.099   6.970  0.00  0.00    +0.000 A 
ATOM     11  C   UNL     1      46.526   1.759   7.291  0.00  0.00    +0.000 A 
ATOM     12  N   UNL     1      45.932   1.309   8.412  0.00  0.00    +0.000 NA
ATOM     13  C   UNL     1      45.425   2.249   9.249  0.00  0.00    +0.000 A 
ENDBRANCH   6   8
BRANCH   1  14
ATOM     14  C   UNL     1      46.127   7.582  12.134  0.00  0.00    +0.000 C 
BRANCH  14  15
ATOM     15  O   UNL     1      47.009   7.014  13.110  0.00  0.00    +0.000 OA
BRANCH  15  19
ATOM     16  C   UNL     1      50.888   8.274  12.575  0.00  0.00    +0.000 A 
ATOM     17  C   UNL     1      50.053   8.114  11.468  0.00  0.00    +0.000 A 
ATOM     18  C   UNL     1      48.737   7.693  11.659  0.00  0.00    +0.000 A 
ATOM     19  C   UNL     1      48.307   7.448  12.955  0.00  0.00    +0.000 A 
ATOM     20  N   UNL     1      49.090   7.604  14.044  0.00  0.00    +0.000 NA
ATOM     21  C   UNL     1      50.362   8.013  13.831  0.00  0.00    +0.000 A 
BRANCH  16  23
ATOM     22  N   UNL     1      53.354   9.012  12.325  0.00  0.00    +0.000 NA
ATOM     23  C   UNL     1      52.246   8.687  12.436  0.00  0.00    +0.000 C 
ENDBRANCH  16  23
ENDBRANCH  15  19
ENDBRANCH  14  15
ENDBRANCH   1  14
TORSDOF 5
ENDMDL
MODEL 8
REMARK VINA RESULT:    -6.468      5.002      7.649
REMARK INTER + INTRA:          -9.082
REMARK INTER:                  -8.369
REMARK INTRA:                  -0.713
REMARK UNBOUND:                -0.723
REMARK  Name = 
REMARK  5 active torsions:
REMARK  status: ('A' for Active; 'I' for Inactive)
REMARK    1  A    between atoms: C_2  and  C_3
REMARK    2  A    between atoms: C_6  and  O_7
REMARK    3  A    between atoms: O_7  and  C_8
REMARK    4  A    between atoms: C_8  and  C_9
REMARK    5  A    between atoms: C_14  and  C_15
REMARK                            x       y       z     vdW  Elec       q    Type
REMARK                         _______ _______ _______ _____ _____    ______ ____
ROOT
ATOM      1  C   UNL     1      48.304   6.678  14.320  0.00  0.00    +0.000 A 
ATOM      2  C   UNL     1      48.893   7.540  13.392  0.00  0.00    +0.000 A 
ATOM      3  C   UNL     1      48.374   7.623  12.107  0.00  0.00    +0.000 A 
ATOM      4  F   UNL     1      48.944   8.452  11.221  0.00  0.00    +0.000 F 
ATOM      5  C   UNL     1      47.274   6.862  11.720  0.00  0.00    +0.000 A 
ATOM      6  C   UNL     1      46.668   5.966  12.616  0.00  0.00    +0.000 A 
ATOM      7  C   UNL     1      47.220   5.882  13.910  0.00  0.00    +0.000 A 
ENDROOT
BRANCH   6   8
ATOM      8  C   UNL     1      45.505   5.139  12.228  0.00  0.00    +0.000 A 
ATOM      9  C   UNL     1      45.014   5.098  10.916  0.00  0.00    +0.000 A 
ATOM     10  C   UNL     1      43.921   4.296  10.587  0.00  0.00    +0.000 A 
ATOM     11  C   UNL     1      43.339   3.537  11.585  0.00  0.00    +0.000 A 
ATOM     12  N   UNL     1      43.763   3.537  12.863  0.00  0.00    +0.000 NA
ATOM     13  C   UNL     1      44.822   4.336  13.149  0.00  0.00    +0.000 A 
ENDBRANCH   6   8
BRANCH   1  14
ATOM     14  C   UNL     1      48.882   6.558  15.712  0.00  0.00    +0.000 C 
BRANCH  14  15
ATOM     15  O   UNL     1      48.202   5.531  16.444  0.00  0.00    +0.000 OA
BRANCH  15  19
ATOM     16  C   UNL     1      50.768   2.480  17.455  0.00  0.00    +0.000 A 
ATOM     17  C   UNL     1      51.152   3.806  17.663  0.00  0.00    +0.000 A 
ATOM     18  C   UNL     1      50.273   4.834  17.324  0.00  0.00    +0.000 A 
ATOM     19  C   UNL     1      49.040   4.493  16.788  0.00  0.00    +0.000 A 
ATOM     20  N   UNL     1      48.639   3.220  16.586  0.00  0.00    +0.000 NA
ATOM     21  C   UNL     1      49.510   2.243  16.924  0.00  0.00    +0.000 A 
BRANCH  16  23
ATOM     22  N   UNL     1      52.343   0.507  18.018  0.00  0.00    +0.000 NA
ATOM     23  C   UNL     1      51.633   1.391  17.771  0.00  0.00    +0.000 C 
ENDBRANCH  16  23
ENDBRANCH  15  19
ENDBRANCH  14  15
ENDBRANCH   1  14
TORSDOF 5
ENDMDL
MODEL 9
REMARK VINA RESULT:    -6.208      4.308      7.947
REMARK INTER + INTRA:          -8.746
REMARK INTER:                  -8.088
REMARK INTRA:                  -0.658
REMARK UNBOUND:                -0.723
REMARK  Name = 
REMARK  5 active torsions:
REMARK  status: ('A' for Active; 'I' for Inactive)
REMARK    1  A    between atoms: C_2  and  C_3
REMARK    2  A    between atoms: C_6  and  O_7
REMARK    3  A    between atoms: O_7  and  C_8
REMARK    4  A    between atoms: C_8  and  C_9
REMARK    5  A    between atoms: C_14  and  C_15
REMARK                            x       y       z     vdW  Elec       q    Type
REMARK                         _______ _______ _______ _____ _____    ______ ____
ROOT
ATOM      1  C   UNL     1      46.903   7.413  13.120  0.00  0.00    +0.000 A 
ATOM      2  C   UNL     1      46.176   8.598  12.984  0.00  0.00    +0.000 A 
ATOM      3  C   UNL     1      45.102   8.647  12.106  0.00  0.00    +0.000 A 
ATOM      4  F   UNL     1      44.409   9.788  11.980  0.00  0.00    +0.000 F 
ATOM      5  C   UNL     1      44.731   7.536  11.353  0.00  0.00    +0.000 A 
ATOM      6  C   UNL     1      45.450   6.333  11.443  0.00  0.00    +0.000 A 
ATOM      7  C   UNL     1      46.548   6.308  12.326  0.00  0.00    +0.000 A 
ENDROOT
BRANCH   6   8
ATOM      8  C   UNL     1      45.084   5.143  10.647  0.00  0.00    +0.000 A 
ATOM      9  C   UNL     1      45.532   4.947   9.333  0.00  0.00    +0.000 A 
ATOM     10  C   UNL     1      45.172   3.804   8.619  0.00  0.00    +0.000 A 
ATOM     11  C   UNL     1      44.371   2.866   9.240  0.00  0.00    +0.000 A 
ATOM     12  N   UNL     1      43.907   2.999  10.497  0.00  0.00    +0.000 NA
ATOM     13  C   UNL     1      44.267   4.127  11.158  0.00  0.00    +0.000 A 
ENDBRANCH   6   8
BRANCH   1  14
ATOM     14  C   UNL     1      48.093   7.358  14.051  0.00  0.00    +0.000 C 
BRANCH  14  15
ATOM     15  O   UNL     1      48.464   5.998  14.302  0.00  0.00    +0.000 OA
BRANCH  15  19
ATOM     16  C   UNL     1      48.576   5.154  18.327  0.00  0.00    +0.000 A 
ATOM     17  C   UNL     1      49.107   6.356  17.856  0.00  0.00    +0.000 A 
ATOM     18  C   UNL     1      49.059   6.637  16.491  0.00  0.00    +0.000 A 
ATOM     19  C   UNL     1      48.478   5.701  15.647  0.00  0.00    +0.000 A 
ATOM     20  N   UNL     1      47.948   4.536  16.077  0.00  0.00    +0.000 NA
ATOM     21  C   UNL     1      48.008   4.289  17.405  0.00  0.00    +0.000 A 
BRANCH  16  23
ATOM     22  N   UNL     1      48.651   4.536  20.836  0.00  0.00    +0.000 NA
ATOM     23  C   UNL     1      48.612   4.810  19.710  0.00  0.00    +0.000 C 
ENDBRANCH  16  23
ENDBRANCH  15  19
ENDBRANCH  14  15
ENDBRANCH   1  14
TORSDOF 5
ENDMDL
