MODEL 1
REMARK VINA RESULT:    -8.167      0.000      0.000
REMARK INTER + INTRA:         -11.883
REMARK INTER:                 -11.748
REMARK INTRA:                  -0.135
REMARK UNBOUND:                -0.135
REMARK  Name = 
REMARK  8 active torsions:
REMARK  status: ('A' for Active; 'I' for Inactive)
REMARK    1  A    between atoms: C_2  and  CA_27
REMARK    2  A    between atoms: N_3  and  CA_4
REMARK    3  A    between atoms: CA_4  and  C_5
REMARK    4  A    between atoms: CA_4  and  C_7
REMARK    5  A    between atoms: C_5  and  O_6
REMARK    6  A    between atoms: C_10  and  C_11
REMARK    7  A    between atoms: C_11  and  N_12
REMARK    8  A    between atoms: C_13  and  C_15
REMARK                            x       y       z     vdW  Elec       q    Type
REMARK                         _______ _______ _______ _____ _____    ______ ____
ROOT
ATOM      1  C   UNL     1      45.392   4.227  12.587  0.00  0.00    +0.000 A 
ATOM      2  C   UNL     1      45.606   5.543  12.174  0.00  0.00    +0.000 A 
ATOM      3  C   UNL     1      46.540   6.323  12.855  0.00  0.00    +0.000 A 
ATOM      4  C   UNL     1      47.252   5.778  13.926  0.00  0.00    +0.000 A 
ATOM      5  C   UNL     1      46.921   4.486  14.311  0.00  0.00    +0.000 A 
ATOM      6  N   UNL     1      46.013   3.712  13.677  0.00  0.00    +0.000 NA
ENDROOT
BRANCH   1   7
ATOM      7  CA  UNL     1      44.456   3.323  11.801  0.00  0.00    +0.000 C 
BRANCH   7  10
ATOM      8  O   UNL     1      44.244   4.246   9.170  0.00  0.00    +0.000 OA
ATOM      9  C   UNL     1      44.978   3.282   9.388  0.00  0.00    +0.000 C 
ATOM     10  N   UNL     1      45.115   2.733  10.641  0.00  0.00    +0.000 N 
ATOM     11  H   UNL     1      45.803   1.990  10.771  0.00  0.00    +0.000 HD
BRANCH   9  12
ATOM     12  CA  UNL     1      45.748   2.649   8.281  0.00  0.00    +0.000 A 
ATOM     13  C   UNL     1      45.994   3.380   7.126  0.00  0.00    +0.000 A 
ATOM     14  N   UNL     1      46.665   2.863   6.063  0.00  0.00    +0.000 NA
ATOM     15  C   UNL     1      47.080   1.584   6.212  0.00  0.00    +0.000 A 
ATOM     16  C   UNL     1      46.838   0.854   7.369  0.00  0.00    +0.000 A 
ATOM     17  N   UNL     1      46.165   1.356   8.433  0.00  0.00    +0.000 NA
ENDBRANCH   9  12
ENDBRANCH   7  10
BRANCH   7  18
ATOM     18  C   UNL     1      43.140   4.062  11.437  0.00  0.00    +0.000 C 
BRANCH  18  19
ATOM     19  O   UNL     1      42.416   4.554  12.569  0.00  0.00    +0.000 OA
ATOM     20  H   UNL     1      42.519   3.911  13.297  0.00  0.00    +0.000 HD
ENDBRANCH  18  19
ENDBRANCH   7  18
ENDBRANCH   1   7
BRANCH   4  21
ATOM     21  C   UNL     1      48.305   6.545  14.671  0.00  0.00    +0.000 C 
BRANCH  21  22
ATOM     22  N   UNL     1      48.152   6.382  16.091  0.00  0.00    +0.000 N 
ATOM     23  C   UNL     1      49.190   5.982  16.895  0.00  0.00    +0.000 C 
ATOM     24  O   UNL     1      50.321   5.787  16.460  0.00  0.00    +0.000 OA
ATOM     25  H   UNL     1      47.205   6.257  16.431  0.00  0.00    +0.000 HD
BRANCH  23  26
ATOM     26  C   UNL     1      48.876   5.876  18.325  0.00  0.00    +0.000 A 
ATOM     27  C   UNL     1      49.121   4.692  19.008  0.00  0.00    +0.000 A 
ATOM     28  S   UNL     1      48.775   4.787  20.677  0.00  0.00    +0.000 S 
ATOM     29  C   UNL     1      48.229   6.394  20.532  0.00  0.00    +0.000 A 
ATOM     30  N   UNL     1      47.765   7.080  21.609  0.00  0.00    +0.000 NA
ATOM     31  C   UNL     1      47.352   8.276  21.343  0.00  0.00    +0.000 A 
ATOM     32  N   UNL     1      47.365   8.849  20.100  0.00  0.00    +0.000 N 
ATOM     33  C   UNL     1      47.859   8.208  18.992  0.00  0.00    +0.000 A 
ATOM     34  O   UNL     1      47.911   8.769  17.902  0.00  0.00    +0.000 OA
ATOM     35  C   UNL     1      48.324   6.854  19.231  0.00  0.00    +0.000 A 
ATOM     36  H   UNL     1      47.037   9.794  19.960  0.00  0.00    +0.000 HD
ENDBRANCH  23  26
ENDBRANCH  21  22
ENDBRANCH   4  21
TORSDOF 8
ENDMDL
MODEL 2
REMARK VINA RESULT:    -7.979      1.926      2.584
REMARK INTER + INTRA:         -11.613
REMARK INTER:                 -10.425
REMARK INTRA:                  -1.187
REMARK UNBOUND:                -0.135
REMARK  Name = 
REMARK  8 active torsions:
REMARK  status: ('A' for Active; 'I' for Inactive)
REMARK    1  A    between atoms: C_2  and  CA_27
REMARK    2  A    between atoms: N_3  and  CA_4
REMARK    3  A    between atoms: CA_4  and  C_5
REMARK    4  A    between atoms: CA_4  and  C_7
REMARK    5  A    between atoms: C_5  and  O_6
REMARK    6  A    between atoms: C_10  and  C_11
REMARK    7  A    between atoms: C_11  and  N_12
REMARK    8  A    between atoms: C_13  and  C_15
REMARK                            x       y       z     vdW  Elec       q    Type
REMARK                         _______ _______ _______ _____ _____    ______ ____
ROOT
ATOM      1  C   UNL     1      45.395   6.070  11.853  0.00  0.00    +0.000 A 
ATOM      2  C   UNL     1      46.696   5.810  12.283  0.00  0.00    +0.000 A 
ATOM      3  C   UNL     1      47.385   6.796  12.989  0.00  0.00    +0.000 A 
ATOM      4  C   UNL     1      46.765   8.016  13.264  0.00  0.00    +0.000 A 
ATOM      5  C   UNL     1      45.496   8.212  12.735  0.00  0.00    +0.000 A 
ATOM      6  N   UNL     1      44.811   7.279  12.038  0.00  0.00    +0.000 NA
ENDROOT
BRANCH   1   7
ATOM      7  CA  UNL     1      44.584   4.979  11.171  0.00  0.00    +0.000 C 
BRANCH   7  10
ATOM      8  O   UNL     1      44.156   2.410  10.155  0.00  0.00    +0.000 OA
ATOM      9  C   UNL     1      44.999   3.117   9.603  0.00  0.00    +0.000 C 
ATOM     10  N   UNL     1      45.307   4.378  10.056  0.00  0.00    +0.000 N 
ATOM     11  H   UNL     1      45.952   4.946   9.505  0.00  0.00    +0.000 HD
BRANCH   9  12
ATOM     12  CA  UNL     1      45.745   2.622   8.414  0.00  0.00    +0.000 A 
ATOM     13  C   UNL     1      45.904   3.461   7.319  0.00  0.00    +0.000 A 
ATOM     14  N   UNL     1      46.549   3.072   6.187  0.00  0.00    +0.000 NA
ATOM     15  C   UNL     1      47.030   1.808   6.205  0.00  0.00    +0.000 A 
ATOM     16  C   UNL     1      46.875   0.969   7.302  0.00  0.00    +0.000 A 
ATOM     17  N   UNL     1      46.229   1.342   8.433  0.00  0.00    +0.000 NA
ENDBRANCH   9  12
ENDBRANCH   7  10
BRANCH   7  18
ATOM     18  C   UNL     1      43.176   5.497  10.770  0.00  0.00    +0.000 C 
BRANCH  18  19
ATOM     19  O   UNL     1      42.314   5.763  11.881  0.00  0.00    +0.000 OA
ATOM     20  H   UNL     1      42.820   5.603  12.700  0.00  0.00    +0.000 HD
ENDBRANCH  18  19
ENDBRANCH   7  18
ENDBRANCH   1   7
BRANCH   4  21
ATOM     21  C   UNL     1      47.430   9.100  14.060  0.00  0.00    +0.000 C 
BRANCH  21  22
ATOM     22  N   UNL     1      47.706   8.659  15.401  0.00  0.00    +0.000 N 
ATOM     23  C   UNL     1      48.966   8.299  15.805  0.00  0.00    +0.000 C 
ATOM     24  O   UNL     1      49.942   8.379  15.065  0.00  0.00    +0.000 OA
ATOM     25  H   UNL     1      46.914   8.317  15.934  0.00  0.00    +0.000 HD
BRANCH  23  26
ATOM     26  C   UNL     1      49.085   7.884  17.208  0.00  0.00    +0.000 A 
ATOM     27  C   UNL     1      49.421   8.811  18.185  0.00  0.00    +0.000 A 
ATOM     28  S   UNL     1      49.425   8.161  19.764  0.00  0.00    +0.000 S 
ATOM     29  C   UNL     1      49.039   6.606  19.188  0.00  0.00    +0.000 A 
ATOM     30  N   UNL     1      48.908   5.553  20.037  0.00  0.00    +0.000 NA
ATOM     31  C   UNL     1      48.648   4.428  19.457  0.00  0.00    +0.000 A 
ATOM     32  N   UNL     1      48.503   4.260  18.106  0.00  0.00    +0.000 N 
ATOM     33  C   UNL     1      48.589   5.300  17.215  0.00  0.00    +0.000 A 
ATOM     34  O   UNL     1      48.397   5.130  16.015  0.00  0.00    +0.000 OA
ATOM     35  C   UNL     1      48.895   6.588  17.813  0.00  0.00    +0.000 A 
ATOM     36  H   UNL     1      48.289   3.355  17.714  0.00  0.00    +0.000 HD
ENDBRANCH  23  26
ENDBRANCH  21  22
ENDBRANCH   4  21
TORSDOF 8
ENDMDL
MODEL 3
REMARK VINA RESULT:    -7.717      3.666      9.204
REMARK INTER + INTRA:         -11.235
REMARK INTER:                  -9.932
REMARK INTRA:                  -1.303
REMARK UNBOUND:                -0.135
REMARK  Name = 
REMARK  8 active torsions:
REMARK  status: ('A' for Active; 'I' for Inactive)
REMARK    1  A    between atoms: C_2  and  CA_27
REMARK    2  A    between atoms: N_3  and  CA_4
REMARK    3  A    between atoms: CA_4  and  C_5
REMARK    4  A    between atoms: CA_4  and  C_7
REMARK    5  A    between atoms: C_5  and  O_6
REMARK    6  A    between atoms: C_10  and  C_11
REMARK    7  A    between atoms: C_11  and  N_12
REMARK    8  A    between atoms: C_13  and  C_15
REMARK                            x       y       z     vdW  Elec       q    Type
REMARK                         _______ _______ _______ _____ _____    ______ ____
ROOT
ATOM      1  C   UNL     1      49.078   6.662  16.369  0.00  0.00    +0.000 A 
ATOM      2  C   UNL     1      49.327   7.987  16.009  0.00  0.00    +0.000 A 
ATOM      3  C   UNL     1      48.962   8.424  14.737  0.00  0.00    +0.000 A 
ATOM      4  C   UNL     1      48.346   7.539  13.849  0.00  0.00    +0.000 A 
ATOM      5  C   UNL     1      48.203   6.223  14.267  0.00  0.00    +0.000 A 
ATOM      6  N   UNL     1      48.558   5.771  15.490  0.00  0.00    +0.000 NA
ENDROOT
BRANCH   1   7
ATOM      7  CA  UNL     1      49.372   6.186  17.783  0.00  0.00    +0.000 C 
BRANCH   7  10
ATOM      8  O   UNL     1      52.083   5.591  17.444  0.00  0.00    +0.000 OA
ATOM      9  C   UNL     1      51.309   4.659  17.658  0.00  0.00    +0.000 C 
ATOM     10  N   UNL     1      49.954   4.849  17.798  0.00  0.00    +0.000 N 
ATOM     11  H   UNL     1      49.377   4.048  18.058  0.00  0.00    +0.000 HD
BRANCH   9  12
ATOM     12  CA  UNL     1      51.812   3.261  17.759  0.00  0.00    +0.000 A 
ATOM     13  C   UNL     1      50.971   2.214  17.408  0.00  0.00    +0.000 A 
ATOM     14  N   UNL     1      51.347   0.911  17.498  0.00  0.00    +0.000 NA
ATOM     15  C   UNL     1      52.606   0.707  17.952  0.00  0.00    +0.000 A 
ATOM     16  C   UNL     1      53.450   1.755  18.300  0.00  0.00    +0.000 A 
ATOM     17  N   UNL     1      53.083   3.057  18.220  0.00  0.00    +0.000 NA
ENDBRANCH   9  12
ENDBRANCH   7  10
BRANCH   7  18
ATOM     18  C   UNL     1      48.116   6.309  18.687  0.00  0.00    +0.000 C 
BRANCH  18  19
ATOM     19  O   UNL     1      46.938   5.716  18.131  0.00  0.00    +0.000 OA
ATOM     20  H   UNL     1      47.176   5.321  17.270  0.00  0.00    +0.000 HD
ENDBRANCH  18  19
ENDBRANCH   7  18
ENDBRANCH   1   7
BRANCH   4  21
ATOM     21  C   UNL     1      47.882   7.956  12.483  0.00  0.00    +0.000 C 
BRANCH  21  22
ATOM     22  N   UNL     1      47.247   6.862  11.800  0.00  0.00    +0.000 N 
ATOM     23  C   UNL     1      45.909   6.872  11.494  0.00  0.00    +0.000 C 
ATOM     24  O   UNL     1      45.186   7.832  11.740  0.00  0.00    +0.000 OA
ATOM     25  H   UNL     1      47.724   5.968  11.838  0.00  0.00    +0.000 HD
BRANCH  23  26
ATOM     26  C   UNL     1      45.415   5.686  10.784  0.00  0.00    +0.000 A 
ATOM     27  C   UNL     1      45.654   5.535   9.425  0.00  0.00    +0.000 A 
ATOM     28  S   UNL     1      45.080   4.056   8.794  0.00  0.00    +0.000 S 
ATOM     29  C   UNL     1      44.439   3.595  10.303  0.00  0.00    +0.000 A 
ATOM     30  N   UNL     1      43.783   2.415  10.458  0.00  0.00    +0.000 NA
ATOM     31  C   UNL     1      43.320   2.213  11.648  0.00  0.00    +0.000 A 
ATOM     32  N   UNL     1      43.457   3.082  12.697  0.00  0.00    +0.000 N 
ATOM     33  C   UNL     1      44.143   4.266  12.597  0.00  0.00    +0.000 A 
ATOM     34  O   UNL     1      44.299   4.997  13.570  0.00  0.00    +0.000 OA
ATOM     35  C   UNL     1      44.673   4.550  11.275  0.00  0.00    +0.000 A 
ATOM     36  H   UNL     1      43.080   2.861  13.608  0.00  0.00    +0.000 HD
ENDBRANCH  23  26
ENDBRANCH  21  22
ENDBRANCH   4  21
TORSDOF 8
ENDMDL
MODEL 4
REMARK VINA RESULT:    -7.717      2.534      3.516
REMARK INTER + INTRA:         -11.235
REMARK INTER:                 -10.348
REMARK INTRA:                  -0.887
REMARK UNBOUND:                -0.135
REMARK  Name = 
REMARK  8 active torsions:
REMARK  status: ('A' for Active; 'I' for Inactive)
REMARK    1  A    between atoms: C_2  and  CA_27
REMARK    2  A    between atoms: N_3  and  CA_4
REMARK    3  A    between atoms: CA_4  and  C_5
REMARK    4  A    between atoms: CA_4  and  C_7
REMARK    5  A    between atoms: C_5  and  O_6
REMARK    6  A    between atoms: C_10  and  C_11
REMARK    7  A    between atoms: C_11  and  N_12
REMARK    8  A    between atoms: C_13  and  C_15
REMARK                            x       y       z     vdW  Elec       q    Type
REMARK                         _______ _______ _______ _____ _____    ______ ____
ROOT
ATOM      1  C   UNL     1      45.582   5.007  12.206  0.00  0.00    +0.000 A 
ATOM      2  C   UNL     1      45.798   6.341  11.860  0.00  0.00    +0.000 A 
ATOM      3  C   UNL     1      46.585   7.138  12.691  0.00  0.00    +0.000 A 
ATOM      4  C   UNL     1      47.151   6.591  13.845  0.00  0.00    +0.000 A 
ATOM      5  C   UNL     1      46.822   5.275  14.146  0.00  0.00    +0.000 A 
ATOM      6  N   UNL     1      46.054   4.486  13.365  0.00  0.00    +0.000 NA
ENDROOT
BRANCH   1   7
ATOM      7  CA  UNL     1      44.814   4.090  11.267  0.00  0.00    +0.000 C 
BRANCH   7  10
ATOM      8  O   UNL     1      44.432   1.879   9.599  0.00  0.00    +0.000 OA
ATOM      9  C   UNL     1      45.275   2.714   9.269  0.00  0.00    +0.000 C 
ATOM     10  N   UNL     1      45.561   3.812  10.045  0.00  0.00    +0.000 N 
ATOM     11  H   UNL     1      46.208   4.510   9.676  0.00  0.00    +0.000 HD
BRANCH   9  12
ATOM     12  CA  UNL     1      46.045   2.557   8.004  0.00  0.00    +0.000 A 
ATOM     13  C   UNL     1      46.699   1.357   7.756  0.00  0.00    +0.000 A 
ATOM     14  N   UNL     1      47.444   1.147   6.639  0.00  0.00    +0.000 NA
ATOM     15  C   UNL     1      47.498   2.192   5.781  0.00  0.00    +0.000 A 
ATOM     16  C   UNL     1      46.841   3.392   6.026  0.00  0.00    +0.000 A 
ATOM     17  N   UNL     1      46.102   3.615   7.139  0.00  0.00    +0.000 NA
ENDBRANCH   9  12
ENDBRANCH   7  10
BRANCH   7  18
ATOM     18  C   UNL     1      43.388   4.638  10.992  0.00  0.00    +0.000 C 
BRANCH  18  19
ATOM     19  O   UNL     1      42.485   4.491  12.092  0.00  0.00    +0.000 OA
ATOM     20  H   UNL     1      43.005   4.243  12.879  0.00  0.00    +0.000 HD
ENDBRANCH  18  19
ENDBRANCH   7  18
ENDBRANCH   1   7
BRANCH   4  21
ATOM     21  C   UNL     1      48.047   7.376  14.757  0.00  0.00    +0.000 C 
BRANCH  21  22
ATOM     22  N   UNL     1      49.093   6.547  15.290  0.00  0.00    +0.000 N 
ATOM     23  C   UNL     1      49.258   6.357  16.639  0.00  0.00    +0.000 C 
ATOM     24  O   UNL     1      48.495   6.842  17.469  0.00  0.00    +0.000 OA
ATOM     25  H   UNL     1      49.885   6.372  14.680  0.00  0.00    +0.000 HD
BRANCH  23  26
ATOM     26  C   UNL     1      50.364   5.472  17.022  0.00  0.00    +0.000 A 
ATOM     27  C   UNL     1      51.590   6.007  17.394  0.00  0.00    +0.000 A 
ATOM     28  S   UNL     1      52.723   4.829  17.888  0.00  0.00    +0.000 S 
ATOM     29  C   UNL     1      51.634   3.561  17.564  0.00  0.00    +0.000 A 
ATOM     30  N   UNL     1      51.986   2.263  17.758  0.00  0.00    +0.000 NA
ATOM     31  C   UNL     1      51.071   1.407  17.437  0.00  0.00    +0.000 A 
ATOM     32  N   UNL     1      49.836   1.732  16.944  0.00  0.00    +0.000 N 
ATOM     33  C   UNL     1      49.424   3.029  16.767  0.00  0.00    +0.000 A 
ATOM     34  O   UNL     1      48.290   3.290  16.378  0.00  0.00    +0.000 OA
ATOM     35  C   UNL     1      50.419   4.032  17.099  0.00  0.00    +0.000 A 
ATOM     36  H   UNL     1      49.160   1.015  16.721  0.00  0.00    +0.000 HD
ENDBRANCH  23  26
ENDBRANCH  21  22
ENDBRANCH   4  21
TORSDOF 8
ENDMDL
MODEL 5
REMARK VINA RESULT:    -7.657      4.501      5.222
REMARK INTER + INTRA:         -11.149
REMARK INTER:                 -10.715
REMARK INTRA:                  -0.433
REMARK UNBOUND:                -0.135
REMARK  Name = 
REMARK  8 active torsions:
REMARK  status: ('A' for Active; 'I' for Inactive)
REMARK    1  A    between atoms: C_2  and  CA_27
REMARK    2  A    between atoms: N_3  and  CA_4
REMARK    3  A    between atoms: CA_4  and  C_5
REMARK    4  A    between atoms: CA_4  and  C_7
REMARK    5  A    between atoms: C_5  and  O_6
REMARK    6  A    between atoms: C_10  and  C_11
REMARK    7  A    between atoms: C_11  and  N_12
REMARK    8  A    between atoms: C_13  and  C_15
REMARK                            x       y       z     vdW  Elec       q    Type
REMARK                         _______ _______ _______ _____ _____    ______ ____
ROOT
ATOM      1  C   UNL     1      45.015   4.811  11.863  0.00  0.00    +0.000 A 
ATOM      2  C   UNL     1      46.207   5.182  12.486  0.00  0.00    +0.000 A 
ATOM      3  C   UNL     1      46.414   6.523  12.809  0.00  0.00    +0.000 A 
ATOM      4  C   UNL     1      45.428   7.468  12.518  0.00  0.00    +0.000 A 
ATOM      5  C   UNL     1      44.306   7.018  11.833  0.00  0.00    +0.000 A 
ATOM      6  N   UNL     1      44.086   5.728  11.498  0.00  0.00    +0.000 NA
ENDROOT
BRANCH   1   7
ATOM      7  CA  UNL     1      44.720   3.344  11.592  0.00  0.00    +0.000 C 
BRANCH   7  10
ATOM      8  O   UNL     1      44.121   4.052   8.955  0.00  0.00    +0.000 OA
ATOM      9  C   UNL     1      45.071   3.294   9.148  0.00  0.00    +0.000 C 
ATOM     10  N   UNL     1      45.416   2.858  10.406  0.00  0.00    +0.000 N 
ATOM     11  H   UNL     1      46.264   2.299  10.509  0.00  0.00    +0.000 HD
BRANCH   9  12
ATOM     12  CA  UNL     1      45.888   2.794   8.009  0.00  0.00    +0.000 A 
ATOM     13  C   UNL     1      46.427   1.516   8.074  0.00  0.00    +0.000 A 
ATOM     14  N   UNL     1      47.206   0.998   7.087  0.00  0.00    +0.000 NA
ATOM     15  C   UNL     1      47.415   1.819   6.032  0.00  0.00    +0.000 A 
ATOM     16  C   UNL     1      46.874   3.097   5.964  0.00  0.00    +0.000 A 
ATOM     17  N   UNL     1      46.101   3.625   6.944  0.00  0.00    +0.000 NA
ENDBRANCH   9  12
ENDBRANCH   7  10
BRANCH   7  18
ATOM     18  C   UNL     1      43.190   3.082  11.545  0.00  0.00    +0.000 C 
BRANCH  18  19
ATOM     19  O   UNL     1      42.830   1.706  11.700  0.00  0.00    +0.000 OA
ATOM     20  H   UNL     1      42.437   1.400  10.860  0.00  0.00    +0.000 HD
ENDBRANCH  18  19
ENDBRANCH   7  18
ENDBRANCH   1   7
BRANCH   4  21
ATOM     21  C   UNL     1      45.564   8.917  12.882  0.00  0.00    +0.000 C 
BRANCH  21  22
ATOM     22  N   UNL     1      46.889   9.206  13.360  0.00  0.00    +0.000 N 
ATOM     23  C   UNL     1      47.778   9.957  12.634  0.00  0.00    +0.000 C 
ATOM     24  O   UNL     1      47.483  10.469  11.559  0.00  0.00    +0.000 OA
ATOM     25  H   UNL     1      47.254   8.587  14.076  0.00  0.00    +0.000 HD
BRANCH  23  26
ATOM     26  C   UNL     1      49.086  10.172  13.265  0.00  0.00    +0.000 A 
ATOM     27  C   UNL     1      49.250  11.178  14.207  0.00  0.00    +0.000 A 
ATOM     28  S   UNL     1      50.813  11.219  14.892  0.00  0.00    +0.000 S 
ATOM     29  C   UNL     1      51.341   9.932  13.909  0.00  0.00    +0.000 A 
ATOM     30  N   UNL     1      52.616   9.469  13.981  0.00  0.00    +0.000 NA
ATOM     31  C   UNL     1      52.885   8.513  13.152  0.00  0.00    +0.000 A 
ATOM     32  N   UNL     1      51.993   7.977  12.262  0.00  0.00    +0.000 N 
ATOM     33  C   UNL     1      50.686   8.388  12.182  0.00  0.00    +0.000 A 
ATOM     34  O   UNL     1      49.895   7.848  11.414  0.00  0.00    +0.000 OA
ATOM     35  C   UNL     1      50.333   9.470  13.082  0.00  0.00    +0.000 A 
ATOM     36  H   UNL     1      52.262   7.223  11.647  0.00  0.00    +0.000 HD
ENDBRANCH  23  26
ENDBRANCH  21  22
ENDBRANCH   4  21
TORSDOF 8
ENDMDL
MODEL 6
REMARK VINA RESULT:    -7.596      4.102      9.558
REMARK INTER + INTRA:         -11.062
REMARK INTER:                  -9.850
REMARK INTRA:                  -1.212
REMARK UNBOUND:                -0.135
REMARK  Name = 
REMARK  8 active torsions:
REMARK  status: ('A' for Active; 'I' for Inactive)
REMARK    1  A    between atoms: C_2  and  CA_27
REMARK    2  A    between atoms: N_3  and  CA_4
REMARK    3  A    between atoms: CA_4  and  C_5
REMARK    4  A    between atoms: CA_4  and  C_7
REMARK    5  A    between atoms: C_5  and  O_6
REMARK    6  A    between atoms: C_10  and  C_11
REMARK    7  A    between atoms: C_11  and  N_12
REMARK    8  A    between atoms: C_13  and  C_15
REMARK                            x       y       z     vdW  Elec       q    Type
REMARK                         _______ _______ _______ _____ _____    ______ ____
ROOT
ATOM      1  C   UNL     1      49.407   5.437  17.064  0.00  0.00    +0.000 A 
ATOM      2  C   UNL     1      50.138   6.539  16.618  0.00  0.00    +0.000 A 
ATOM      3  C   UNL     1      49.770   7.157  15.423  0.00  0.00    +0.000 A 
ATOM      4  C   UNL     1      48.677   6.676  14.699  0.00  0.00    +0.000 A 
ATOM      5  C   UNL     1      48.055   5.533  15.183  0.00  0.00    +0.000 A 
ATOM      6  N   UNL     1      48.398   4.907  16.330  0.00  0.00    +0.000 NA
ENDROOT
BRANCH   1   7
ATOM      7  CA  UNL     1      49.720   4.808  18.412  0.00  0.00    +0.000 C 
BRANCH   7  10
ATOM      8  O   UNL     1      52.497   4.919  18.720  0.00  0.00    +0.000 OA
ATOM      9  C   UNL     1      51.984   3.823  18.492  0.00  0.00    +0.000 C 
ATOM     10  N   UNL     1      50.632   3.676  18.287  0.00  0.00    +0.000 N 
ATOM     11  H   UNL     1      50.258   2.732  18.187  0.00  0.00    +0.000 HD
BRANCH   9  12
ATOM     12  CA  UNL     1      52.821   2.595  18.411  0.00  0.00    +0.000 A 
ATOM     13  C   UNL     1      53.995   2.528  19.150  0.00  0.00    +0.000 A 
ATOM     14  N   UNL     1      54.826   1.452  19.107  0.00  0.00    +0.000 NA
ATOM     15  C   UNL     1      54.423   0.448  18.296  0.00  0.00    +0.000 A 
ATOM     16  C   UNL     1      53.246   0.512  17.559  0.00  0.00    +0.000 A 
ATOM     17  N   UNL     1      52.414   1.581  17.588  0.00  0.00    +0.000 NA
ENDBRANCH   9  12
ENDBRANCH   7  10
BRANCH   7  18
ATOM     18  C   UNL     1      48.418   4.452  19.179  0.00  0.00    +0.000 C 
BRANCH  18  19
ATOM     19  O   UNL     1      48.426   3.149  19.769  0.00  0.00    +0.000 OA
ATOM     20  H   UNL     1      49.101   2.613  19.310  0.00  0.00    +0.000 HD
ENDBRANCH  18  19
ENDBRANCH   7  18
ENDBRANCH   1   7
BRANCH   4  21
ATOM     21  C   UNL     1      48.198   7.323  13.433  0.00  0.00    +0.000 C 
BRANCH  21  22
ATOM     22  N   UNL     1      47.442   6.395  12.636  0.00  0.00    +0.000 N 
ATOM     23  C   UNL     1      46.422   6.803  11.813  0.00  0.00    +0.000 C 
ATOM     24  O   UNL     1      46.126   7.985  11.670  0.00  0.00    +0.000 OA
ATOM     25  H   UNL     1      47.461   5.425  12.933  0.00  0.00    +0.000 HD
BRANCH  23  26
ATOM     26  C   UNL     1      45.756   5.737  11.056  0.00  0.00    +0.000 A 
ATOM     27  C   UNL     1      45.904   5.661   9.678  0.00  0.00    +0.000 A 
ATOM     28  S   UNL     1      45.129   4.307   8.985  0.00  0.00    +0.000 S 
ATOM     29  C   UNL     1      44.519   3.810  10.496  0.00  0.00    +0.000 A 
ATOM     30  N   UNL     1      43.740   2.702  10.611  0.00  0.00    +0.000 NA
ATOM     31  C   UNL     1      43.321   2.466  11.810  0.00  0.00    +0.000 A 
ATOM     32  N   UNL     1      43.614   3.234  12.906  0.00  0.00    +0.000 N 
ATOM     33  C   UNL     1      44.426   4.338  12.843  0.00  0.00    +0.000 A 
ATOM     34  O   UNL     1      44.718   4.972  13.852  0.00  0.00    +0.000 OA
ATOM     35  C   UNL     1      44.914   4.658  11.514  0.00  0.00    +0.000 A 
ATOM     36  H   UNL     1      43.263   2.990  13.820  0.00  0.00    +0.000 HD
ENDBRANCH  23  26
ENDBRANCH  21  22
ENDBRANCH   4  21
TORSDOF 8
ENDMDL
MODEL 7
REMARK VINA RESULT:    -7.587      2.973      3.894
REMARK INTER + INTRA:         -11.049
REMARK INTER:                  -9.942
REMARK INTRA:                  -1.106
REMARK UNBOUND:                -0.135
REMARK  Name = 
REMARK  8 active torsions:
REMARK  status: ('A' for Active; 'I' for Inactive)
REMARK    1  A    between atoms: C_2  and  CA_27
REMARK    2  A    between atoms: N_3  and  CA_4
REMARK    3  A    between atoms: CA_4  and  C_5
REMARK    4  A    between atoms: CA_4  and  C_7
REMARK    5  A    between atoms: C_5  and  O_6
REMARK    6  A    between atoms: C_10  and  C_11
REMARK    7  A    between atoms: C_11  and  N_12
REMARK    8  A    between atoms: C_13  and  C_15
REMARK                            x       y       z     vdW  Elec       q    Type
REMARK                         _______ _______ _______ _____ _____    ______ ____
ROOT
ATOM      1  C   UNL     1      45.339   4.560  12.282  0.00  0.00    +0.000 A 
ATOM      2  C   UNL     1      45.806   5.866  12.427  0.00  0.00    +0.000 A 
ATOM      3  C   UNL     1      46.665   6.164  13.485  0.00  0.00    +0.000 A 
ATOM      4  C   UNL     1      47.052   5.156  14.371  0.00  0.00    +0.000 A 
ATOM      5  C   UNL     1      46.481   3.904  14.190  0.00  0.00    +0.000 A 
ATOM      6  N   UNL     1      45.637   3.591  13.182  0.00  0.00    +0.000 NA
ENDROOT
BRANCH   1   7
ATOM      7  CA  UNL     1      44.484   4.184  11.081  0.00  0.00    +0.000 C 
BRANCH   7  10
ATOM      8  O   UNL     1      44.302   1.874   9.516  0.00  0.00    +0.000 OA
ATOM      9  C   UNL     1      45.107   2.742   9.176  0.00  0.00    +0.000 C 
ATOM     10  N   UNL     1      45.295   3.893   9.905  0.00  0.00    +0.000 N 
ATOM     11  H   UNL     1      45.915   4.610   9.525  0.00  0.00    +0.000 HD
BRANCH   9  12
ATOM     12  CA  UNL     1      45.936   2.570   7.951  0.00  0.00    +0.000 A 
ATOM     13  C   UNL     1      46.657   1.395   7.784  0.00  0.00    +0.000 A 
ATOM     14  N   UNL     1      47.458   1.175   6.707  0.00  0.00    +0.000 NA
ATOM     15  C   UNL     1      47.498   2.184   5.806  0.00  0.00    +0.000 A 
ATOM     16  C   UNL     1      46.774   3.359   5.971  0.00  0.00    +0.000 A 
ATOM     17  N   UNL     1      45.978   3.591   7.043  0.00  0.00    +0.000 NA
ENDBRANCH   9  12
ENDBRANCH   7  10
BRANCH   7  18
ATOM     18  C   UNL     1      43.395   5.257  10.813  0.00  0.00    +0.000 C 
BRANCH  18  19
ATOM     19  O   UNL     1      42.219   5.108  11.615  0.00  0.00    +0.000 OA
ATOM     20  H   UNL     1      42.415   4.462  12.321  0.00  0.00    +0.000 HD
ENDBRANCH  18  19
ENDBRANCH   7  18
ENDBRANCH   1   7
BRANCH   4  21
ATOM     21  C   UNL     1      48.011   5.396  15.500  0.00  0.00    +0.000 C 
BRANCH  21  22
ATOM     22  N   UNL     1      48.164   6.803  15.755  0.00  0.00    +0.000 N 
ATOM     23  C   UNL     1      49.361   7.450  15.580  0.00  0.00    +0.000 C 
ATOM     24  O   UNL     1      50.359   6.881  15.149  0.00  0.00    +0.000 OA
ATOM     25  H   UNL     1      47.471   7.229  16.362  0.00  0.00    +0.000 HD
BRANCH  23  26
ATOM     26  C   UNL     1      49.349   8.889  15.870  0.00  0.00    +0.000 A 
ATOM     27  C   UNL     1      49.571   9.343  17.163  0.00  0.00    +0.000 A 
ATOM     28  S   UNL     1      49.607  11.045  17.289  0.00  0.00    +0.000 S 
ATOM     29  C   UNL     1      49.266  11.233  15.631  0.00  0.00    +0.000 A 
ATOM     30  N   UNL     1      49.141  12.466  15.072  0.00  0.00    +0.000 NA
ATOM     31  C   UNL     1      48.848  12.455  13.814  0.00  0.00    +0.000 A 
ATOM     32  N   UNL     1      48.672  11.324  13.062  0.00  0.00    +0.000 N 
ATOM     33  C   UNL     1      48.826  10.061  13.574  0.00  0.00    +0.000 A 
ATOM     34  O   UNL     1      48.719   9.067  12.861  0.00  0.00    +0.000 OA
ATOM     35  C   UNL     1      49.142  10.014  14.989  0.00  0.00    +0.000 A 
ATOM     36  H   UNL     1      48.454  11.383  12.078  0.00  0.00    +0.000 HD
ENDBRANCH  23  26
ENDBRANCH  21  22
ENDBRANCH   4  21
TORSDOF 8
ENDMDL
MODEL 8
REMARK VINA RESULT:    -7.451      3.202      5.524
REMARK INTER + INTRA:         -10.853
REMARK INTER:                  -9.584
REMARK INTRA:                  -1.269
REMARK UNBOUND:                -0.135
REMARK  Name = 
REMARK  8 active torsions:
REMARK  status: ('A' for Active; 'I' for Inactive)
REMARK    1  A    between atoms: C_2  and  CA_27
REMARK    2  A    between atoms: N_3  and  CA_4
REMARK    3  A    between atoms: CA_4  and  C_5
REMARK    4  A    between atoms: CA_4  and  C_7
REMARK    5  A    between atoms: C_5  and  O_6
REMARK    6  A    between atoms: C_10  and  C_11
REMARK    7  A    between atoms: C_11  and  N_12
REMARK    8  A    between atoms: C_13  and  C_15
REMARK                            x       y       z     vdW  Elec       q    Type
REMARK                         _______ _______ _______ _____ _____    ______ ____
ROOT
ATOM      1  C   UNL     1      48.179   7.567  13.892  0.00  0.00    +0.000 A 
ATOM      2  C   UNL     1      48.076   8.785  14.564  0.00  0.00    +0.000 A 
ATOM      3  C   UNL     1      48.540   8.876  15.876  0.00  0.00    +0.000 A 
ATOM      4  C   UNL     1      49.106   7.758  16.492  0.00  0.00    +0.000 A 
ATOM      5  C   UNL     1      49.101   6.571  15.772  0.00  0.00    +0.000 A 
ATOM      6  N   UNL     1      48.648   6.452  14.504  0.00  0.00    +0.000 NA
ENDROOT
BRANCH   1   7
ATOM      7  CA  UNL     1      47.777   7.465  12.429  0.00  0.00    +0.000 C 
BRANCH   7  10
ATOM      8  O   UNL     1      45.024   7.247  12.863  0.00  0.00    +0.000 OA
ATOM      9  C   UNL     1      45.611   6.280  12.379  0.00  0.00    +0.000 C 
ATOM     10  N   UNL     1      46.970   6.279  12.166  0.00  0.00    +0.000 N 
ATOM     11  H   UNL     1      47.384   5.480  11.684  0.00  0.00    +0.000 HD
BRANCH   9  12
ATOM     12  CA  UNL     1      44.866   5.044  12.013  0.00  0.00    +0.000 A 
ATOM     13  C   UNL     1      44.262   4.298  13.017  0.00  0.00    +0.000 A 
ATOM     14  N   UNL     1      43.588   3.144  12.766  0.00  0.00    +0.000 NA
ATOM     15  C   UNL     1      43.544   2.776  11.465  0.00  0.00    +0.000 A 
ATOM     16  C   UNL     1      44.145   3.523  10.459  0.00  0.00    +0.000 A 
ATOM     17  N   UNL     1      44.825   4.671  10.698  0.00  0.00    +0.000 NA
ENDBRANCH   9  12
ENDBRANCH   7  10
BRANCH   7  18
ATOM     18  C   UNL     1      49.016   7.571  11.500  0.00  0.00    +0.000 C 
BRANCH  18  19
ATOM     19  O   UNL     1      50.251   7.221  12.133  0.00  0.00    +0.000 OA
ATOM     20  H   UNL     1      50.467   7.921  12.780  0.00  0.00    +0.000 HD
ENDBRANCH  18  19
ENDBRANCH   7  18
ENDBRANCH   1   7
BRANCH   4  21
ATOM     21  C   UNL     1      49.668   7.799  17.883  0.00  0.00    +0.000 C 
BRANCH  21  22
ATOM     22  N   UNL     1      50.644   6.760  18.074  0.00  0.00    +0.000 N 
ATOM     23  C   UNL     1      50.375   5.632  18.805  0.00  0.00    +0.000 C 
ATOM     24  O   UNL     1      49.272   5.416  19.299  0.00  0.00    +0.000 OA
ATOM     25  H   UNL     1      51.615   7.023  17.934  0.00  0.00    +0.000 HD
BRANCH  23  26
ATOM     26  C   UNL     1      51.471   4.661  18.896  0.00  0.00    +0.000 A 
ATOM     27  C   UNL     1      52.599   4.948  19.652  0.00  0.00    +0.000 A 
ATOM     28  S   UNL     1      53.725   3.666  19.708  0.00  0.00    +0.000 S 
ATOM     29  C   UNL     1      52.771   2.706  18.674  0.00  0.00    +0.000 A 
ATOM     30  N   UNL     1      53.173   1.465  18.295  0.00  0.00    +0.000 NA
ATOM     31  C   UNL     1      52.367   0.867  17.481  0.00  0.00    +0.000 A 
ATOM     32  N   UNL     1      51.193   1.396  17.015  0.00  0.00    +0.000 N 
ATOM     33  C   UNL     1      50.729   2.628  17.400  0.00  0.00    +0.000 A 
ATOM     34  O   UNL     1      49.645   3.051  17.010  0.00  0.00    +0.000 OA
ATOM     35  C   UNL     1      51.604   3.351  18.304  0.00  0.00    +0.000 A 
ATOM     36  H   UNL     1      50.600   0.872  16.387  0.00  0.00    +0.000 HD
ENDBRANCH  23  26
ENDBRANCH  21  22
ENDBRANCH   4  21
TORSDOF 8
ENDMDL
MODEL 9
REMARK VINA RESULT:    -6.995      5.263      8.923
REMARK INTER + INTRA:         -10.197
REMARK INTER:                  -8.991
REMARK INTRA:                  -1.206
REMARK UNBOUND:                -0.135
REMARK  Name = 
REMARK  8 active torsions:
REMARK  status: ('A' for Active; 'I' for Inactive)
REMARK    1  A    between atoms: C_2  and  CA_27
REMARK    2  A    between atoms: N_3  and  CA_4
REMARK    3  A    between atoms: CA_4  and  C_5
REMARK    4  A    between atoms: CA_4  and  C_7
REMARK    5  A    between atoms: C_5  and  O_6
REMARK    6  A    between atoms: C_10  and  C_11
REMARK    7  A    between atoms: C_11  and  N_12
REMARK    8  A    between atoms: C_13  and  C_15
REMARK                            x       y       z     vdW  Elec       q    Type
REMARK                         _______ _______ _______ _____ _____    ______ ____
ROOT
ATOM      1  C   UNL     1      50.941   8.371  12.247  0.00  0.00    +0.000 A 
ATOM      2  C   UNL     1      50.112   7.647  11.389  0.00  0.00    +0.000 A 
ATOM      3  C   UNL     1      48.749   7.568  11.671  0.00  0.00    +0.000 A 
ATOM      4  C   UNL     1      48.232   8.218  12.793  0.00  0.00    +0.000 A 
ATOM      5  C   UNL     1      49.142   8.854  13.628  0.00  0.00    +0.000 A 
ATOM      6  N   UNL     1      50.468   8.936  13.385  0.00  0.00    +0.000 NA
ENDROOT
BRANCH   1   7
ATOM      7  CA  UNL     1      52.411   8.559  11.909  0.00  0.00    +0.000 C 
BRANCH   7  10
ATOM      8  O   UNL     1      52.812   9.110   9.198  0.00  0.00    +0.000 OA
ATOM      9  C   UNL     1      53.071   7.976   9.602  0.00  0.00    +0.000 C 
ATOM     10  N   UNL     1      52.868   7.601  10.909  0.00  0.00    +0.000 N 
ATOM     11  H   UNL     1      53.182   6.674  11.201  0.00  0.00    +0.000 HD
BRANCH   9  12
ATOM     12  CA  UNL     1      53.607   6.943   8.674  0.00  0.00    +0.000 A 
ATOM     13  C   UNL     1      54.135   5.771   9.200  0.00  0.00    +0.000 A 
ATOM     14  N   UNL     1      54.667   4.793   8.420  0.00  0.00    +0.000 NA
ATOM     15  C   UNL     1      54.641   5.042   7.091  0.00  0.00    +0.000 A 
ATOM     16  C   UNL     1      54.109   6.212   6.562  0.00  0.00    +0.000 A 
ATOM     17  N   UNL     1      53.582   7.196   7.330  0.00  0.00    +0.000 NA
ENDBRANCH   9  12
ENDBRANCH   7  10
BRANCH   7  18
ATOM     18  C   UNL     1      53.284   8.554  13.193  0.00  0.00    +0.000 C 
BRANCH  18  19
ATOM     19  O   UNL     1      52.952   7.517  14.121  0.00  0.00    +0.000 OA
ATOM     20  H   UNL     1      53.216   7.813  15.013  0.00  0.00    +0.000 HD
ENDBRANCH  18  19
ENDBRANCH   7  18
ENDBRANCH   1   7
BRANCH   4  21
ATOM     21  C   UNL     1      46.769   8.216  13.128  0.00  0.00    +0.000 C 
BRANCH  21  22
ATOM     22  N   UNL     1      46.180   6.935  12.847  0.00  0.00    +0.000 N 
ATOM     23  C   UNL     1      45.179   6.780  11.921  0.00  0.00    +0.000 C 
ATOM     24  O   UNL     1      44.761   7.713  11.243  0.00  0.00    +0.000 OA
ATOM     25  H   UNL     1      46.289   6.222  13.560  0.00  0.00    +0.000 HD
BRANCH  23  26
ATOM     26  C   UNL     1      44.693   5.407  11.741  0.00  0.00    +0.000 A 
ATOM     27  C   UNL     1      44.001   4.771  12.762  0.00  0.00    +0.000 A 
ATOM     28  S   UNL     1      43.440   3.215  12.337  0.00  0.00    +0.000 S 
ATOM     29  C   UNL     1      44.156   3.315  10.795  0.00  0.00    +0.000 A 
ATOM     30  N   UNL     1      44.067   2.288   9.909  0.00  0.00    +0.000 NA
ATOM     31  C   UNL     1      44.686   2.490   8.793  0.00  0.00    +0.000 A 
ATOM     32  N   UNL     1      45.383   3.627   8.480  0.00  0.00    +0.000 N 
ATOM     33  C   UNL     1      45.467   4.703   9.327  0.00  0.00    +0.000 A 
ATOM     34  O   UNL     1      46.050   5.731   8.996  0.00  0.00    +0.000 OA
ATOM     35  C   UNL     1      44.800   4.524  10.604  0.00  0.00    +0.000 A 
ATOM     36  H   UNL     1      45.838   3.728   7.585  0.00  0.00    +0.000 HD
ENDBRANCH  23  26
ENDBRANCH  21  22
ENDBRANCH   4  21
TORSDOF 8
ENDMDL
