MODEL 1
REMARK VINA RESULT:    -8.663      0.000      0.000
REMARK INTER + INTRA:         -13.623
REMARK INTER:                 -12.208
REMARK INTRA:                  -1.415
REMARK UNBOUND:                -1.415
REMARK  Name = 
REMARK  8 active torsions:
REMARK  status: ('A' for Active; 'I' for Inactive)
REMARK    1  A    between atoms: C_1  and  N_2
REMARK    2  A    between atoms: C_4  and  C_5
REMARK    3  A    between atoms: N_7  and  C_8
REMARK    4  A    between atoms: C_8  and  C_9
REMARK    5  A    between atoms: C_12  and  O_13
REMARK    6  A    between atoms: O_13  and  C_14
REMARK    7  A    between atoms: C_14  and  C_15
REMARK    8  A    between atoms: C_15  and  C_16
REMARK                            x       y       z     vdW  Elec       q    Type
REMARK                         _______ _______ _______ _____ _____    ______ ____
ROOT
ATOM      1  C   UNL     1      46.199   7.187  12.401  0.00  0.00    +0.000 A 
ATOM      2  C   UNL     1      46.631   6.667  11.176  0.00  0.00    +0.000 A 
ATOM      3  C   UNL     1      45.895   5.662  10.548  0.00  0.00    +0.000 A 
ATOM      4  C   UNL     1      44.722   5.236  11.153  0.00  0.00    +0.000 A 
ATOM      5  N   UNL     1      44.280   5.718  12.334  0.00  0.00    +0.000 NA
ATOM      6  C   UNL     1      45.025   6.672  12.931  0.00  0.00    +0.000 A 
ENDROOT
BRANCH   1   7
ATOM      7  C   UNL     1      46.971   8.252  13.117  0.00  0.00    +0.000 C 
BRANCH   7  10
ATOM      8  C   UNL     1      48.534   7.009  14.528  0.00  0.00    +0.000 C 
ATOM      9  O   UNL     1      49.244   6.751  13.562  0.00  0.00    +0.000 OA
ATOM     10  N   UNL     1      47.419   7.814  14.419  0.00  0.00    +0.000 N 
ATOM     11  H   UNL     1      46.779   7.869  15.200  0.00  0.00    +0.000 HD
BRANCH   8  15
ATOM     12  C   UNL     1      50.470   6.610  19.107  0.00  0.00    +0.000 C 
ATOM     13  N   UNL     1      49.701   6.328  17.917  0.00  0.00    +0.000 N 
ATOM     14  C   UNL     1      49.620   7.126  16.809  0.00  0.00    +0.000 A 
ATOM     15  C   UNL     1      48.812   6.496  15.867  0.00  0.00    +0.000 A 
ATOM     16  C   UNL     1      48.379   5.254  16.464  0.00  0.00    +0.000 A 
ATOM     17  C   UNL     1      47.582   4.151  16.163  0.00  0.00    +0.000 A 
ATOM     18 CL   UNL     1      46.716   4.046  14.710  0.00  0.00    +0.000 Cl
ATOM     19  N   UNL     1      47.398   3.138  17.028  0.00  0.00    +0.000 NA
ATOM     20  C   UNL     1      48.024   3.226  18.208  0.00  0.00    +0.000 A 
ATOM     21  N   UNL     1      48.814   4.218  18.640  0.00  0.00    +0.000 NA
ATOM     22  C   UNL     1      48.953   5.199  17.732  0.00  0.00    +0.000 A 
ENDBRANCH   8  15
ENDBRANCH   7  10
ENDBRANCH   1   7
BRANCH   4  23
ATOM     23  O   UNL     1      43.989   4.251  10.519  0.00  0.00    +0.000 OA
BRANCH  23  24
ATOM     24  C   UNL     1      44.670   2.988  10.574  0.00  0.00    +0.000 C 
BRANCH  24  25
ATOM     25  C   UNL     1      44.322   2.149   9.346  0.00  0.00    +0.000 C 
BRANCH  25  26
ATOM     26  C   UNL     1      45.445   2.138   8.336  0.00  0.00    +0.000 A 
ATOM     27  C   UNL     1      46.235   0.995   8.135  0.00  0.00    +0.000 A 
ATOM     28  C   UNL     1      47.258   1.008   7.184  0.00  0.00    +0.000 A 
ATOM     29  C   UNL     1      47.491   2.154   6.433  0.00  0.00    +0.000 A 
ATOM     30  F   UNL     1      48.477   2.162   5.526  0.00  0.00    +0.000 F 
ATOM     31  C   UNL     1      46.714   3.291   6.604  0.00  0.00    +0.000 A 
ATOM     32  C   UNL     1      45.697   3.271   7.551  0.00  0.00    +0.000 A 
ATOM     33  F   UNL     1      44.938   4.366   7.703  0.00  0.00    +0.000 F 
ENDBRANCH  25  26
ENDBRANCH  24  25
ENDBRANCH  23  24
ENDBRANCH   4  23
TORSDOF 7
ENDMDL
MODEL 2
REMARK VINA RESULT:    -8.282      2.225      2.901
REMARK INTER + INTRA:         -13.086
REMARK INTER:                 -12.003
REMARK INTRA:                  -1.083
REMARK UNBOUND:                -1.415
REMARK  Name = 
REMARK  8 active torsions:
REMARK  status: ('A' for Active; 'I' for Inactive)
REMARK    1  A    between atoms: C_1  and  N_2
REMARK    2  A    between atoms: C_4  and  C_5
REMARK    3  A    between atoms: N_7  and  C_8
REMARK    4  A    between atoms: C_8  and  C_9
REMARK    5  A    between atoms: C_12  and  O_13
REMARK    6  A    between atoms: O_13  and  C_14
REMARK    7  A    between atoms: C_14  and  C_15
REMARK    8  A    between atoms: C_15  and  C_16
REMARK                            x       y       z     vdW  Elec       q    Type
REMARK                         _______ _______ _______ _____ _____    ______ ____
ROOT
ATOM      1  C   UNL     1      46.950   5.757  13.083  0.00  0.00    +0.000 A 
ATOM      2  C   UNL     1      46.464   6.169  11.837  0.00  0.00    +0.000 A 
ATOM      3  C   UNL     1      45.426   5.465  11.228  0.00  0.00    +0.000 A 
ATOM      4  C   UNL     1      44.880   4.387  11.908  0.00  0.00    +0.000 A 
ATOM      5  N   UNL     1      45.328   3.965  13.110  0.00  0.00    +0.000 NA
ATOM      6  C   UNL     1      46.349   4.650  13.665  0.00  0.00    +0.000 A 
ENDROOT
BRANCH   1   7
ATOM      7  C   UNL     1      48.077   6.473  13.762  0.00  0.00    +0.000 C 
BRANCH   7  10
ATOM      8  C   UNL     1      49.058   6.483  16.003  0.00  0.00    +0.000 C 
ATOM      9  O   UNL     1      50.183   6.631  15.539  0.00  0.00    +0.000 OA
ATOM     10  N   UNL     1      47.935   6.468  15.200  0.00  0.00    +0.000 N 
ATOM     11  H   UNL     1      47.052   6.186  15.603  0.00  0.00    +0.000 HD
BRANCH   8  15
ATOM     12  C   UNL     1      48.667   4.357  20.497  0.00  0.00    +0.000 C 
ATOM     13  N   UNL     1      48.632   5.344  19.442  0.00  0.00    +0.000 N 
ATOM     14  C   UNL     1      49.032   5.147  18.148  0.00  0.00    +0.000 A 
ATOM     15  C   UNL     1      48.812   6.320  17.432  0.00  0.00    +0.000 A 
ATOM     16  C   UNL     1      48.259   7.272  18.367  0.00  0.00    +0.000 A 
ATOM     17  C   UNL     1      47.819   8.594  18.403  0.00  0.00    +0.000 A 
ATOM     18 CL   UNL     1      47.916   9.603  17.044  0.00  0.00    +0.000 Cl
ATOM     19  N   UNL     1      47.356   9.169  19.526  0.00  0.00    +0.000 NA
ATOM     20  C   UNL     1      47.326   8.410  20.628  0.00  0.00    +0.000 A 
ATOM     21  N   UNL     1      47.714   7.134  20.751  0.00  0.00    +0.000 NA
ATOM     22  C   UNL     1      48.171   6.622  19.595  0.00  0.00    +0.000 A 
ENDBRANCH   8  15
ENDBRANCH   7  10
ENDBRANCH   1   7
BRANCH   4  23
ATOM     23  O   UNL     1      43.842   3.702  11.305  0.00  0.00    +0.000 OA
BRANCH  23  24
ATOM     24  C   UNL     1      44.059   3.579   9.891  0.00  0.00    +0.000 C 
BRANCH  24  25
ATOM     25  C   UNL     1      44.825   2.293   9.588  0.00  0.00    +0.000 C 
BRANCH  25  26
ATOM     26  C   UNL     1      45.679   2.426   8.349  0.00  0.00    +0.000 A 
ATOM     27  C   UNL     1      45.887   3.671   7.737  0.00  0.00    +0.000 A 
ATOM     28  C   UNL     1      46.694   3.767   6.599  0.00  0.00    +0.000 A 
ATOM     29  C   UNL     1      47.294   2.627   6.078  0.00  0.00    +0.000 A 
ATOM     30  F   UNL     1      48.062   2.725   4.985  0.00  0.00    +0.000 F 
ATOM     31  C   UNL     1      47.114   1.388   6.675  0.00  0.00    +0.000 A 
ATOM     32  C   UNL     1      46.311   1.300   7.807  0.00  0.00    +0.000 A 
ATOM     33  F   UNL     1      46.152   0.103   8.391  0.00  0.00    +0.000 F 
ENDBRANCH  25  26
ENDBRANCH  24  25
ENDBRANCH  23  24
ENDBRANCH   4  23
TORSDOF 7
ENDMDL
MODEL 3
REMARK VINA RESULT:    -8.203      2.011      2.408
REMARK INTER + INTRA:         -12.975
REMARK INTER:                 -11.892
REMARK INTRA:                  -1.083
REMARK UNBOUND:                -1.415
REMARK  Name = 
REMARK  8 active torsions:
REMARK  status: ('A' for Active; 'I' for Inactive)
REMARK    1  A    between atoms: C_1  and  N_2
REMARK    2  A    between atoms: C_4  and  C_5
REMARK    3  A    between atoms: N_7  and  C_8
REMARK    4  A    between atoms: C_8  and  C_9
REMARK    5  A    between atoms: C_12  and  O_13
REMARK    6  A    between atoms: O_13  and  C_14
REMARK    7  A    between atoms: C_14  and  C_15
REMARK    8  A    between atoms: C_15  and  C_16
REMARK                            x       y       z     vdW  Elec       q    Type
REMARK                         _______ _______ _______ _____ _____    ______ ____
ROOT
ATOM      1  C   UNL     1      47.191   5.798  13.107  0.00  0.00    +0.000 A 
ATOM      2  C   UNL     1      46.595   6.262  11.929  0.00  0.00    +0.000 A 
ATOM      3  C   UNL     1      45.543   5.549  11.354  0.00  0.00    +0.000 A 
ATOM      4  C   UNL     1      45.095   4.408  12.003  0.00  0.00    +0.000 A 
ATOM      5  N   UNL     1      45.651   3.935  13.139  0.00  0.00    +0.000 NA
ATOM      6  C   UNL     1      46.683   4.631  13.659  0.00  0.00    +0.000 A 
ENDROOT
BRANCH   1   7
ATOM      7  C   UNL     1      48.336   6.523  13.745  0.00  0.00    +0.000 C 
BRANCH   7  10
ATOM      8  C   UNL     1      49.037   6.736  16.078  0.00  0.00    +0.000 C 
ATOM      9  O   UNL     1      50.190   6.436  15.788  0.00  0.00    +0.000 OA
ATOM     10  N   UNL     1      48.057   6.878  15.117  0.00  0.00    +0.000 N 
ATOM     11  H   UNL     1      47.094   6.967  15.413  0.00  0.00    +0.000 HD
BRANCH   8  15
ATOM     12  C   UNL     1      47.461   9.104  20.175  0.00  0.00    +0.000 C 
ATOM     13  N   UNL     1      47.911   8.056  19.287  0.00  0.00    +0.000 N 
ATOM     14  C   UNL     1      48.163   8.194  17.949  0.00  0.00    +0.000 A 
ATOM     15  C   UNL     1      48.609   6.972  17.454  0.00  0.00    +0.000 A 
ATOM     16  C   UNL     1      48.607   6.053  18.568  0.00  0.00    +0.000 A 
ATOM     17  C   UNL     1      48.894   4.718  18.845  0.00  0.00    +0.000 A 
ATOM     18 CL   UNL     1      49.364   3.636  17.629  0.00  0.00    +0.000 Cl
ATOM     19  N   UNL     1      48.750   4.190  20.074  0.00  0.00    +0.000 NA
ATOM     20  C   UNL     1      48.321   5.011  21.040  0.00  0.00    +0.000 A 
ATOM     21  N   UNL     1      48.005   6.308  20.929  0.00  0.00    +0.000 NA
ATOM     22  C   UNL     1      48.165   6.771  19.677  0.00  0.00    +0.000 A 
ENDBRANCH   8  15
ENDBRANCH   7  10
ENDBRANCH   1   7
BRANCH   4  23
ATOM     23  O   UNL     1      44.043   3.714  11.437  0.00  0.00    +0.000 OA
BRANCH  23  24
ATOM     24  C   UNL     1      44.193   3.626  10.011  0.00  0.00    +0.000 C 
BRANCH  24  25
ATOM     25  C   UNL     1      44.873   2.311   9.635  0.00  0.00    +0.000 C 
BRANCH  25  26
ATOM     26  C   UNL     1      45.697   2.445   8.376  0.00  0.00    +0.000 A 
ATOM     27  C   UNL     1      45.916   3.695   7.777  0.00  0.00    +0.000 A 
ATOM     28  C   UNL     1      46.695   3.791   6.620  0.00  0.00    +0.000 A 
ATOM     29  C   UNL     1      47.257   2.646   6.067  0.00  0.00    +0.000 A 
ATOM     30  F   UNL     1      47.999   2.744   4.956  0.00  0.00    +0.000 F 
ATOM     31  C   UNL     1      47.066   1.402   6.651  0.00  0.00    +0.000 A 
ATOM     32  C   UNL     1      46.291   1.314   7.801  0.00  0.00    +0.000 A 
ATOM     33  F   UNL     1      46.120   0.112   8.372  0.00  0.00    +0.000 F 
ENDBRANCH  25  26
ENDBRANCH  24  25
ENDBRANCH  23  24
ENDBRANCH   4  23
TORSDOF 7
ENDMDL
MODEL 4
REMARK VINA RESULT:    -7.509      2.257      2.840
REMARK INTER + INTRA:         -11.998
REMARK INTER:                 -10.572
REMARK INTRA:                  -1.426
REMARK UNBOUND:                -1.415
REMARK  Name = 
REMARK  8 active torsions:
REMARK  status: ('A' for Active; 'I' for Inactive)
REMARK    1  A    between atoms: C_1  and  N_2
REMARK    2  A    between atoms: C_4  and  C_5
REMARK    3  A    between atoms: N_7  and  C_8
REMARK    4  A    between atoms: C_8  and  C_9
REMARK    5  A    between atoms: C_12  and  O_13
REMARK    6  A    between atoms: O_13  and  C_14
REMARK    7  A    between atoms: C_14  and  C_15
REMARK    8  A    between atoms: C_15  and  C_16
REMARK                            x       y       z     vdW  Elec       q    Type
REMARK                         _______ _______ _______ _____ _____    ______ ____
ROOT
ATOM      1  C   UNL     1      47.086   6.703  13.137  0.00  0.00    +0.000 A 
ATOM      2  C   UNL     1      47.095   5.376  13.582  0.00  0.00    +0.000 A 
ATOM      3  C   UNL     1      45.917   4.631  13.574  0.00  0.00    +0.000 A 
ATOM      4  C   UNL     1      44.768   5.230  13.080  0.00  0.00    +0.000 A 
ATOM      5  N   UNL     1      44.727   6.508  12.645  0.00  0.00    +0.000 NA
ATOM      6  C   UNL     1      45.876   7.213  12.688  0.00  0.00    +0.000 A 
ENDROOT
BRANCH   1   7
ATOM      7  C   UNL     1      48.325   7.543  13.149  0.00  0.00    +0.000 C 
BRANCH   7  10
ATOM      8  C   UNL     1      49.660   7.498  15.197  0.00  0.00    +0.000 C 
ATOM      9  O   UNL     1      48.975   8.386  15.696  0.00  0.00    +0.000 OA
ATOM     10  N   UNL     1      49.368   6.960  13.961  0.00  0.00    +0.000 N 
ATOM     11  H   UNL     1      50.045   6.350  13.523  0.00  0.00    +0.000 HD
BRANCH   8  15
ATOM     12  C   UNL     1      54.409   6.695  16.494  0.00  0.00    +0.000 C 
ATOM     13  N   UNL     1      52.969   6.583  16.430  0.00  0.00    +0.000 N 
ATOM     14  C   UNL     1      52.136   7.381  15.695  0.00  0.00    +0.000 A 
ATOM     15  C   UNL     1      50.829   6.937  15.869  0.00  0.00    +0.000 A 
ATOM     16  C   UNL     1      50.895   5.814  16.775  0.00  0.00    +0.000 A 
ATOM     17  C   UNL     1      50.047   4.904  17.404  0.00  0.00    +0.000 A 
ATOM     18 CL   UNL     1      48.364   4.986  17.229  0.00  0.00    +0.000 Cl
ATOM     19  N   UNL     1      50.504   3.952  18.237  0.00  0.00    +0.000 NA
ATOM     20  C   UNL     1      51.825   3.905  18.439  0.00  0.00    +0.000 A 
ATOM     21  N   UNL     1      52.761   4.707  17.913  0.00  0.00    +0.000 NA
ATOM     22  C   UNL     1      52.239   5.638  17.095  0.00  0.00    +0.000 A 
ENDBRANCH   8  15
ENDBRANCH   7  10
ENDBRANCH   1   7
BRANCH   4  23
ATOM     23  O   UNL     1      43.606   4.481  13.060  0.00  0.00    +0.000 OA
BRANCH  23  24
ATOM     24  C   UNL     1      43.106   4.344  11.721  0.00  0.00    +0.000 C 
BRANCH  24  25
ATOM     25  C   UNL     1      43.627   3.052  11.095  0.00  0.00    +0.000 C 
BRANCH  25  26
ATOM     26  C   UNL     1      44.495   3.322   9.889  0.00  0.00    +0.000 A 
ATOM     27  C   UNL     1      45.054   4.590   9.662  0.00  0.00    +0.000 A 
ATOM     28  C   UNL     1      45.866   4.808   8.545  0.00  0.00    +0.000 A 
ATOM     29  C   UNL     1      46.123   3.766   7.662  0.00  0.00    +0.000 A 
ATOM     30  F   UNL     1      46.899   3.982   6.591  0.00  0.00    +0.000 F 
ATOM     31  C   UNL     1      45.595   2.501   7.875  0.00  0.00    +0.000 A 
ATOM     32  C   UNL     1      44.789   2.291   8.989  0.00  0.00    +0.000 A 
ATOM     33  F   UNL     1      44.291   1.064   9.200  0.00  0.00    +0.000 F 
ENDBRANCH  25  26
ENDBRANCH  24  25
ENDBRANCH  23  24
ENDBRANCH   4  23
TORSDOF 7
ENDMDL
MODEL 5
REMARK VINA RESULT:    -7.496      1.954      2.402
REMARK INTER + INTRA:         -11.979
REMARK INTER:                 -11.509
REMARK INTRA:                  -0.470
REMARK UNBOUND:                -1.415
REMARK  Name = 
REMARK  8 active torsions:
REMARK  status: ('A' for Active; 'I' for Inactive)
REMARK    1  A    between atoms: C_1  and  N_2
REMARK    2  A    between atoms: C_4  and  C_5
REMARK    3  A    between atoms: N_7  and  C_8
REMARK    4  A    between atoms: C_8  and  C_9
REMARK    5  A    between atoms: C_12  and  O_13
REMARK    6  A    between atoms: O_13  and  C_14
REMARK    7  A    between atoms: C_14  and  C_15
REMARK    8  A    between atoms: C_15  and  C_16
REMARK                            x       y       z     vdW  Elec       q    Type
REMARK                         _______ _______ _______ _____ _____    ______ ____
ROOT
ATOM      1  C   UNL     1      47.025   5.821  13.469  0.00  0.00    +0.000 A 
ATOM      2  C   UNL     1      46.380   6.153  12.272  0.00  0.00    +0.000 A 
ATOM      3  C   UNL     1      45.517   5.238  11.670  0.00  0.00    +0.000 A 
ATOM      4  C   UNL     1      45.297   4.028  12.311  0.00  0.00    +0.000 A 
ATOM      5  N   UNL     1      45.905   3.679  13.465  0.00  0.00    +0.000 NA
ATOM      6  C   UNL     1      46.753   4.573  14.012  0.00  0.00    +0.000 A 
ENDROOT
BRANCH   1   7
ATOM      7  C   UNL     1      47.975   6.767  14.137  0.00  0.00    +0.000 C 
BRANCH   7  10
ATOM      8  C   UNL     1      49.432   6.940  16.093  0.00  0.00    +0.000 C 
ATOM      9  O   UNL     1      49.796   8.062  15.757  0.00  0.00    +0.000 OA
ATOM     10  N   UNL     1      48.471   6.244  15.389  0.00  0.00    +0.000 N 
ATOM     11  H   UNL     1      48.319   5.268  15.605  0.00  0.00    +0.000 HD
BRANCH   8  15
ATOM     12  C   UNL     1      52.287   3.959  18.893  0.00  0.00    +0.000 C 
ATOM     13  N   UNL     1      51.263   4.901  18.501  0.00  0.00    +0.000 N 
ATOM     14  C   UNL     1      51.084   5.410  17.244  0.00  0.00    +0.000 A 
ATOM     15  C   UNL     1      49.977   6.254  17.261  0.00  0.00    +0.000 A 
ATOM     16  C   UNL     1      49.482   6.252  18.617  0.00  0.00    +0.000 A 
ATOM     17  C   UNL     1      48.470   6.832  19.381  0.00  0.00    +0.000 A 
ATOM     18 CL   UNL     1      47.395   7.965  18.724  0.00  0.00    +0.000 Cl
ATOM     19  N   UNL     1      48.326   6.582  20.695  0.00  0.00    +0.000 NA
ATOM     20  C   UNL     1      49.201   5.736  21.251  0.00  0.00    +0.000 A 
ATOM     21  N   UNL     1      50.221   5.107  20.653  0.00  0.00    +0.000 NA
ATOM     22  C   UNL     1      50.312   5.403  19.345  0.00  0.00    +0.000 A 
ENDBRANCH   8  15
ENDBRANCH   7  10
ENDBRANCH   1   7
BRANCH   4  23
ATOM     23  O   UNL     1      44.429   3.131  11.717  0.00  0.00    +0.000 OA
BRANCH  23  24
ATOM     24  C   UNL     1      44.264   3.422  10.320  0.00  0.00    +0.000 C 
BRANCH  24  25
ATOM     25  C   UNL     1      44.353   2.136   9.501  0.00  0.00    +0.000 C 
BRANCH  25  26
ATOM     26  C   UNL     1      45.453   2.202   8.469  0.00  0.00    +0.000 A 
ATOM     27  C   UNL     1      46.232   1.075   8.161  0.00  0.00    +0.000 A 
ATOM     28  C   UNL     1      47.235   1.161   7.190  0.00  0.00    +0.000 A 
ATOM     29  C   UNL     1      47.456   2.362   6.527  0.00  0.00    +0.000 A 
ATOM     30  F   UNL     1      48.422   2.438   5.601  0.00  0.00    +0.000 F 
ATOM     31  C   UNL     1      46.689   3.484   6.805  0.00  0.00    +0.000 A 
ATOM     32  C   UNL     1      45.693   3.392   7.770  0.00  0.00    +0.000 A 
ATOM     33  F   UNL     1      44.943   4.474   8.026  0.00  0.00    +0.000 F 
ENDBRANCH  25  26
ENDBRANCH  24  25
ENDBRANCH  23  24
ENDBRANCH   4  23
TORSDOF 7
ENDMDL
MODEL 6
REMARK VINA RESULT:    -7.469      2.185      2.535
REMARK INTER + INTRA:         -11.940
REMARK INTER:                 -10.897
REMARK INTRA:                  -1.044
REMARK UNBOUND:                -1.415
REMARK  Name = 
REMARK  8 active torsions:
REMARK  status: ('A' for Active; 'I' for Inactive)
REMARK    1  A    between atoms: C_1  and  N_2
REMARK    2  A    between atoms: C_4  and  C_5
REMARK    3  A    between atoms: N_7  and  C_8
REMARK    4  A    between atoms: C_8  and  C_9
REMARK    5  A    between atoms: C_12  and  O_13
REMARK    6  A    between atoms: O_13  and  C_14
REMARK    7  A    between atoms: C_14  and  C_15
REMARK    8  A    between atoms: C_15  and  C_16
REMARK                            x       y       z     vdW  Elec       q    Type
REMARK                         _______ _______ _______ _____ _____    ______ ____
ROOT
ATOM      1  C   UNL     1      46.548   7.625  12.937  0.00  0.00    +0.000 A 
ATOM      2  C   UNL     1      45.560   7.955  12.004  0.00  0.00    +0.000 A 
ATOM      3  C   UNL     1      44.748   6.956  11.468  0.00  0.00    +0.000 A 
ATOM      4  C   UNL     1      44.929   5.657  11.916  0.00  0.00    +0.000 A 
ATOM      5  N   UNL     1      45.874   5.307  12.814  0.00  0.00    +0.000 NA
ATOM      6  C   UNL     1      46.662   6.290  13.297  0.00  0.00    +0.000 A 
ENDROOT
BRANCH   1   7
ATOM      7  C   UNL     1      47.454   8.665  13.521  0.00  0.00    +0.000 C 
BRANCH   7  10
ATOM      8  C   UNL     1      48.301   9.344  15.713  0.00  0.00    +0.000 C 
ATOM      9  O   UNL     1      49.281   9.874  15.201  0.00  0.00    +0.000 OA
ATOM     10  N   UNL     1      47.296   8.780  14.953  0.00  0.00    +0.000 N 
ATOM     11  H   UNL     1      46.594   8.218  15.414  0.00  0.00    +0.000 HD
BRANCH   8  15
ATOM     12  C   UNL     1      47.527  10.755  20.434  0.00  0.00    +0.000 C 
ATOM     13  N   UNL     1      47.774   9.927  19.275  0.00  0.00    +0.000 N 
ATOM     14  C   UNL     1      47.815  10.358  17.977  0.00  0.00    +0.000 A 
ATOM     15  C   UNL     1      48.112   9.272  17.159  0.00  0.00    +0.000 A 
ATOM     16  C   UNL     1      48.242   8.127  18.029  0.00  0.00    +0.000 A 
ATOM     17  C   UNL     1      48.500   6.759  17.956  0.00  0.00    +0.000 A 
ATOM     18 CL   UNL     1      48.712   5.971  16.471  0.00  0.00    +0.000 Cl
ATOM     19  N   UNL     1      48.528   5.972  19.045  0.00  0.00    +0.000 NA
ATOM     20  C   UNL     1      48.303   6.561  20.225  0.00  0.00    +0.000 A 
ATOM     21  N   UNL     1      48.040   7.854  20.455  0.00  0.00    +0.000 NA
ATOM     22  C   UNL     1      48.021   8.583  19.327  0.00  0.00    +0.000 A 
ENDBRANCH   8  15
ENDBRANCH   7  10
ENDBRANCH   1   7
BRANCH   4  23
ATOM     23  O   UNL     1      44.111   4.673  11.392  0.00  0.00    +0.000 OA
BRANCH  23  24
ATOM     24  C   UNL     1      44.844   3.459  11.169  0.00  0.00    +0.000 C 
BRANCH  24  25
ATOM     25  C   UNL     1      44.290   2.726   9.949  0.00  0.00    +0.000 C 
BRANCH  25  26
ATOM     26  C   UNL     1      45.315   2.615   8.846  0.00  0.00    +0.000 A 
ATOM     27  C   UNL     1      45.909   1.385   8.523  0.00  0.00    +0.000 A 
ATOM     28  C   UNL     1      46.844   1.310   7.487  0.00  0.00    +0.000 A 
ATOM     29  C   UNL     1      47.182   2.453   6.774  0.00  0.00    +0.000 A 
ATOM     30  F   UNL     1      48.083   2.375   5.785  0.00  0.00    +0.000 F 
ATOM     31  C   UNL     1      46.597   3.677   7.065  0.00  0.00    +0.000 A 
ATOM     32  C   UNL     1      45.666   3.745   8.096  0.00  0.00    +0.000 A 
ATOM     33  F   UNL     1      45.092   4.926   8.367  0.00  0.00    +0.000 F 
ENDBRANCH  25  26
ENDBRANCH  24  25
ENDBRANCH  23  24
ENDBRANCH   4  23
TORSDOF 7
ENDMDL
MODEL 7
REMARK VINA RESULT:    -7.265      2.561      3.183
REMARK INTER + INTRA:         -11.653
REMARK INTER:                 -10.809
REMARK INTRA:                  -0.844
REMARK UNBOUND:                -1.415
REMARK  Name = 
REMARK  8 active torsions:
REMARK  status: ('A' for Active; 'I' for Inactive)
REMARK    1  A    between atoms: C_1  and  N_2
REMARK    2  A    between atoms: C_4  and  C_5
REMARK    3  A    between atoms: N_7  and  C_8
REMARK    4  A    between atoms: C_8  and  C_9
REMARK    5  A    between atoms: C_12  and  O_13
REMARK    6  A    between atoms: O_13  and  C_14
REMARK    7  A    between atoms: C_14  and  C_15
REMARK    8  A    between atoms: C_15  and  C_16
REMARK                            x       y       z     vdW  Elec       q    Type
REMARK                         _______ _______ _______ _____ _____    ______ ____
ROOT
ATOM      1  C   UNL     1      48.343   7.203  14.184  0.00  0.00    +0.000 A 
ATOM      2  C   UNL     1      48.262   8.049  13.072  0.00  0.00    +0.000 A 
ATOM      3  C   UNL     1      47.547   7.647  11.943  0.00  0.00    +0.000 A 
ATOM      4  C   UNL     1      46.902   6.421  11.981  0.00  0.00    +0.000 A 
ATOM      5  N   UNL     1      46.963   5.583  13.038  0.00  0.00    +0.000 NA
ATOM      6  C   UNL     1      47.682   5.986  14.106  0.00  0.00    +0.000 A 
ENDROOT
BRANCH   1   7
ATOM      7  C   UNL     1      49.118   7.587  15.407  0.00  0.00    +0.000 C 
BRANCH   7  10
ATOM      8  C   UNL     1      50.116   6.247  17.193  0.00  0.00    +0.000 C 
ATOM      9  O   UNL     1      49.400   6.782  18.032  0.00  0.00    +0.000 OA
ATOM     10  N   UNL     1      49.998   6.529  15.847  0.00  0.00    +0.000 N 
ATOM     11  H   UNL     1      50.709   6.190  15.214  0.00  0.00    +0.000 HD
BRANCH   8  15
ATOM     12  C   UNL     1      54.496   4.324  18.603  0.00  0.00    +0.000 C 
ATOM     13  N   UNL     1      53.122   4.425  18.169  0.00  0.00    +0.000 N 
ATOM     14  C   UNL     1      52.417   5.586  18.005  0.00  0.00    +0.000 A 
ATOM     15  C   UNL     1      51.143   5.270  17.543  0.00  0.00    +0.000 A 
ATOM     16  C   UNL     1      51.089   3.831  17.441  0.00  0.00    +0.000 A 
ATOM     17  C   UNL     1      50.195   2.822  17.087  0.00  0.00    +0.000 A 
ATOM     18 CL   UNL     1      48.593   3.164  16.651  0.00  0.00    +0.000 Cl
ATOM     19  N   UNL     1      50.523   1.519  17.134  0.00  0.00    +0.000 NA
ATOM     20  C   UNL     1      51.764   1.220  17.533  0.00  0.00    +0.000 A 
ATOM     21  N   UNL     1      52.729   2.071  17.906  0.00  0.00    +0.000 NA
ATOM     22  C   UNL     1      52.336   3.355  17.841  0.00  0.00    +0.000 A 
ENDBRANCH   8  15
ENDBRANCH   7  10
ENDBRANCH   1   7
BRANCH   4  23
ATOM     23  O   UNL     1      46.183   6.035  10.865  0.00  0.00    +0.000 OA
BRANCH  23  24
ATOM     24  C   UNL     1      45.067   5.208  11.233  0.00  0.00    +0.000 C 
BRANCH  24  25
ATOM     25  C   UNL     1      44.278   4.807   9.988  0.00  0.00    +0.000 C 
BRANCH  25  26
ATOM     26  C   UNL     1      45.067   3.877   9.098  0.00  0.00    +0.000 A 
ATOM     27  C   UNL     1      45.930   4.372   8.108  0.00  0.00    +0.000 A 
ATOM     28  C   UNL     1      46.660   3.487   7.308  0.00  0.00    +0.000 A 
ATOM     29  C   UNL     1      46.532   2.116   7.498  0.00  0.00    +0.000 A 
ATOM     30  F   UNL     1      47.230   1.274   6.724  0.00  0.00    +0.000 F 
ATOM     31  C   UNL     1      45.696   1.605   8.480  0.00  0.00    +0.000 A 
ATOM     32  C   UNL     1      44.974   2.490   9.272  0.00  0.00    +0.000 A 
ATOM     33  F   UNL     1      44.179   1.993  10.230  0.00  0.00    +0.000 F 
ENDBRANCH  25  26
ENDBRANCH  24  25
ENDBRANCH  23  24
ENDBRANCH   4  23
TORSDOF 7
ENDMDL
MODEL 8
REMARK VINA RESULT:    -6.957      3.595      5.683
REMARK INTER + INTRA:         -11.219
REMARK INTER:                 -10.113
REMARK INTRA:                  -1.107
REMARK UNBOUND:                -1.415
REMARK  Name = 
REMARK  8 active torsions:
REMARK  status: ('A' for Active; 'I' for Inactive)
REMARK    1  A    between atoms: C_1  and  N_2
REMARK    2  A    between atoms: C_4  and  C_5
REMARK    3  A    between atoms: N_7  and  C_8
REMARK    4  A    between atoms: C_8  and  C_9
REMARK    5  A    between atoms: C_12  and  O_13
REMARK    6  A    between atoms: O_13  and  C_14
REMARK    7  A    between atoms: C_14  and  C_15
REMARK    8  A    between atoms: C_15  and  C_16
REMARK                            x       y       z     vdW  Elec       q    Type
REMARK                         _______ _______ _______ _____ _____    ______ ____
ROOT
ATOM      1  C   UNL     1      47.289   6.074  13.365  0.00  0.00    +0.000 A 
ATOM      2  C   UNL     1      46.492   6.511  12.301  0.00  0.00    +0.000 A 
ATOM      3  C   UNL     1      45.459   5.702  11.827  0.00  0.00    +0.000 A 
ATOM      4  C   UNL     1      45.234   4.491  12.463  0.00  0.00    +0.000 A 
ATOM      5  N   UNL     1      45.987   4.041  13.490  0.00  0.00    +0.000 NA
ATOM      6  C   UNL     1      46.993   4.833  13.912  0.00  0.00    +0.000 A 
ENDROOT
BRANCH   1   7
ATOM      7  C   UNL     1      48.420   6.903  13.890  0.00  0.00    +0.000 C 
BRANCH   7  10
ATOM      8  C   UNL     1      48.792   9.186  13.095  0.00  0.00    +0.000 C 
ATOM      9  O   UNL     1      48.376   9.651  14.151  0.00  0.00    +0.000 OA
ATOM     10  N   UNL     1      48.922   7.826  12.898  0.00  0.00    +0.000 N 
ATOM     11  H   UNL     1      49.115   7.485  11.967  0.00  0.00    +0.000 HD
BRANCH   8  15
ATOM     12  C   UNL     1      48.493  12.318   9.225  0.00  0.00    +0.000 C 
ATOM     13  N   UNL     1      49.033  11.426  10.226  0.00  0.00    +0.000 N 
ATOM     14  C   UNL     1      48.327  10.839  11.240  0.00  0.00    +0.000 A 
ATOM     15  C   UNL     1      49.189  10.026  11.969  0.00  0.00    +0.000 A 
ATOM     16  C   UNL     1      50.489  10.152  11.352  0.00  0.00    +0.000 A 
ATOM     17  C   UNL     1      51.792   9.683  11.513  0.00  0.00    +0.000 A 
ATOM     18 CL   UNL     1      52.223   8.672  12.803  0.00  0.00    +0.000 Cl
ATOM     19  N   UNL     1      52.796  10.056  10.700  0.00  0.00    +0.000 NA
ATOM     20  C   UNL     1      52.493  10.902   9.709  0.00  0.00    +0.000 A 
ATOM     21  N   UNL     1      51.297  11.438   9.431  0.00  0.00    +0.000 NA
ATOM     22  C   UNL     1      50.340  11.030  10.281  0.00  0.00    +0.000 A 
ENDBRANCH   8  15
ENDBRANCH   7  10
ENDBRANCH   1   7
BRANCH   4  23
ATOM     23  O   UNL     1      44.200   3.700  11.998  0.00  0.00    +0.000 OA
BRANCH  23  24
ATOM     24  C   UNL     1      44.692   2.671  11.125  0.00  0.00    +0.000 C 
BRANCH  24  25
ATOM     25  C   UNL     1      44.245   2.943   9.690  0.00  0.00    +0.000 C 
BRANCH  25  26
ATOM     26  C   UNL     1      45.352   2.677   8.697  0.00  0.00    +0.000 A 
ATOM     27  C   UNL     1      45.786   1.371   8.421  0.00  0.00    +0.000 A 
ATOM     28  C   UNL     1      46.802   1.154   7.486  0.00  0.00    +0.000 A 
ATOM     29  C   UNL     1      47.379   2.233   6.827  0.00  0.00    +0.000 A 
ATOM     30  F   UNL     1      48.356   2.018   5.935  0.00  0.00    +0.000 F 
ATOM     31  C   UNL     1      46.956   3.531   7.073  0.00  0.00    +0.000 A 
ATOM     32  C   UNL     1      45.944   3.740   8.003  0.00  0.00    +0.000 A 
ATOM     33  F   UNL     1      45.526   4.994   8.228  0.00  0.00    +0.000 F 
ENDBRANCH  25  26
ENDBRANCH  24  25
ENDBRANCH  23  24
ENDBRANCH   4  23
TORSDOF 7
ENDMDL
MODEL 9
REMARK VINA RESULT:    -6.682      4.203      6.086
REMARK INTER + INTRA:         -10.832
REMARK INTER:                  -9.682
REMARK INTRA:                  -1.150
REMARK UNBOUND:                -1.415
REMARK  Name = 
REMARK  8 active torsions:
REMARK  status: ('A' for Active; 'I' for Inactive)
REMARK    1  A    between atoms: C_1  and  N_2
REMARK    2  A    between atoms: C_4  and  C_5
REMARK    3  A    between atoms: N_7  and  C_8
REMARK    4  A    between atoms: C_8  and  C_9
REMARK    5  A    between atoms: C_12  and  O_13
REMARK    6  A    between atoms: O_13  and  C_14
REMARK    7  A    between atoms: C_14  and  C_15
REMARK    8  A    between atoms: C_15  and  C_16
REMARK                            x       y       z     vdW  Elec       q    Type
REMARK                         _______ _______ _______ _____ _____    ______ ____
ROOT
ATOM      1  C   UNL     1      47.388   6.446  13.478  0.00  0.00    +0.000 A 
ATOM      2  C   UNL     1      47.005   5.126  13.744  0.00  0.00    +0.000 A 
ATOM      3  C   UNL     1      45.710   4.704  13.443  0.00  0.00    +0.000 A 
ATOM      4  C   UNL     1      44.849   5.612  12.846  0.00  0.00    +0.000 A 
ATOM      5  N   UNL     1      45.189   6.891  12.579  0.00  0.00    +0.000 NA
ATOM      6  C   UNL     1      46.439   7.279  12.904  0.00  0.00    +0.000 A 
ENDROOT
BRANCH   1   7
ATOM      7  C   UNL     1      48.762   6.945  13.806  0.00  0.00    +0.000 C 
BRANCH   7  10
ATOM      8  C   UNL     1      50.662   7.986  12.671  0.00  0.00    +0.000 C 
ATOM      9  O   UNL     1      51.073   8.452  13.729  0.00  0.00    +0.000 OA
ATOM     10  N   UNL     1      49.558   7.159  12.619  0.00  0.00    +0.000 N 
ATOM     11  H   UNL     1      49.163   6.930  11.718  0.00  0.00    +0.000 HD
BRANCH   8  15
ATOM     12  C   UNL     1      53.218   7.289   8.446  0.00  0.00    +0.000 C 
ATOM     13  N   UNL     1      52.465   7.928   9.501  0.00  0.00    +0.000 N 
ATOM     14  C   UNL     1      51.920   7.302  10.588  0.00  0.00    +0.000 A 
ATOM     15  C   UNL     1      51.305   8.259  11.389  0.00  0.00    +0.000 A 
ATOM     16  C   UNL     1      51.489   9.528  10.726  0.00  0.00    +0.000 A 
ATOM     17  C   UNL     1      51.164  10.873  10.893  0.00  0.00    +0.000 A 
ATOM     18 CL   UNL     1      50.216  11.405  12.193  0.00  0.00    +0.000 Cl
ATOM     19  N   UNL     1      51.520  11.817  10.004  0.00  0.00    +0.000 NA
ATOM     20  C   UNL     1      52.218  11.412   8.937  0.00  0.00    +0.000 A 
ATOM     21  N   UNL     1      52.602  10.163   8.637  0.00  0.00    +0.000 NA
ATOM     22  C   UNL     1      52.210   9.270   9.562  0.00  0.00    +0.000 A 
ENDBRANCH   8  15
ENDBRANCH   7  10
ENDBRANCH   1   7
BRANCH   4  23
ATOM     23  O   UNL     1      43.572   5.183  12.536  0.00  0.00    +0.000 OA
BRANCH  23  24
ATOM     24  C   UNL     1      43.412   5.026  11.118  0.00  0.00    +0.000 C 
BRANCH  24  25
ATOM     25  C   UNL     1      43.743   3.593  10.707  0.00  0.00    +0.000 C 
BRANCH  25  26
ATOM     26  C   UNL     1      44.704   3.549   9.543  0.00  0.00    +0.000 A 
ATOM     27  C   UNL     1      45.376   4.703   9.108  0.00  0.00    +0.000 A 
ATOM     28  C   UNL     1      46.271   4.630   8.037  0.00  0.00    +0.000 A 
ATOM     29  C   UNL     1      46.500   3.412   7.407  0.00  0.00    +0.000 A 
ATOM     30  F   UNL     1      47.356   3.350   6.378  0.00  0.00    +0.000 F 
ATOM     31  C   UNL     1      45.860   2.257   7.830  0.00  0.00    +0.000 A 
ATOM     32  C   UNL     1      44.971   2.336   8.896  0.00  0.00    +0.000 A 
ATOM     33  F   UNL     1      44.364   1.215   9.312  0.00  0.00    +0.000 F 
ENDBRANCH  25  26
ENDBRANCH  24  25
ENDBRANCH  23  24
ENDBRANCH   4  23
TORSDOF 7
ENDMDL
