MODEL 1
REMARK VINA RESULT:    -7.809      0.000      0.000
REMARK INTER + INTRA:         -12.393
REMARK INTER:                 -11.005
REMARK INTRA:                  -1.389
REMARK UNBOUND:                -1.389
REMARK  Name = 
REMARK  7 active torsions:
REMARK  status: ('A' for Active; 'I' for Inactive)
REMARK    1  A    between atoms: C_2  and  C_20
REMARK    2  A    between atoms: N_3  and  C_4
REMARK    3  A    between atoms: C_4  and  C_5
REMARK    4  A    between atoms: C_8  and  C_9
REMARK    5  A    between atoms: C_9  and  O_10
REMARK    6  A    between atoms: O_10  and  C_11
REMARK    7  A    between atoms: C_11  and  C_12
REMARK                            x       y       z     vdW  Elec       q    Type
REMARK                         _______ _______ _______ _____ _____    ______ ____
ROOT
ATOM      1  C   UNL     1      47.408   8.504  13.011  0.00  0.00    +0.000 C 
ENDROOT
BRANCH   1   2
ATOM      2  C   UNL     1      46.475   7.501  12.400  0.00  0.00    +0.000 A 
ATOM      3  C   UNL     1      46.885   6.641  11.380  0.00  0.00    +0.000 A 
ATOM      4  C   UNL     1      45.998   5.692  10.874  0.00  0.00    +0.000 A 
ATOM      5  C   UNL     1      44.719   5.618  11.417  0.00  0.00    +0.000 A 
ATOM      6  N   UNL     1      44.308   6.421  12.429  0.00  0.00    +0.000 NA
ATOM      7  C   UNL     1      45.185   7.337  12.894  0.00  0.00    +0.000 A 
BRANCH   5   8
ATOM      8  C   UNL     1      43.758   4.546  10.952  0.00  0.00    +0.000 C 
BRANCH   8   9
ATOM      9  O   UNL     1      44.033   4.109   9.616  0.00  0.00    +0.000 OA
BRANCH   9  10
ATOM     10  C   UNL     1      44.337   2.715   9.552  0.00  0.00    +0.000 C 
BRANCH  10  11
ATOM     11  C   UNL     1      45.435   2.488   8.542  0.00  0.00    +0.000 A 
ATOM     12  C   UNL     1      45.859   3.533   7.737  0.00  0.00    +0.000 A 
ATOM     13  C   UNL     1      46.870   3.244   6.849  0.00  0.00    +0.000 A 
ATOM     14  N   UNL     1      47.441   2.032   6.742  0.00  0.00    +0.000 NA
ATOM     15  C   UNL     1      46.966   1.092   7.569  0.00  0.00    +0.000 A 
ATOM     16  N   UNL     1      45.976   1.249   8.463  0.00  0.00    +0.000 NA
ENDBRANCH  10  11
ENDBRANCH   9  10
ENDBRANCH   8   9
ENDBRANCH   5   8
ENDBRANCH   1   2
BRANCH   1  19
ATOM     17  O   UNL     1      49.589   6.896  13.907  0.00  0.00    +0.000 OA
ATOM     18  C   UNL     1      48.728   7.269  14.689  0.00  0.00    +0.000 C 
ATOM     19  N   UNL     1      47.701   8.129  14.368  0.00  0.00    +0.000 N 
ATOM     20  H   UNL     1      46.926   8.185  15.011  0.00  0.00    +0.000 HD
BRANCH  18  21
ATOM     21  C   UNL     1      48.518   6.685  16.006  0.00  0.00    +0.000 A 
ATOM     22  C   UNL     1      48.896   7.318  17.178  0.00  0.00    +0.000 A 
ATOM     23  S   UNL     1      49.130   6.187  18.449  0.00  0.00    +0.000 S 
ATOM     24  C   UNL     1      48.561   4.898  17.486  0.00  0.00    +0.000 A 
ATOM     25  N   UNL     1      48.643   3.598  17.873  0.00  0.00    +0.000 NA
ATOM     26  C   UNL     1      48.114   2.762  17.035  0.00  0.00    +0.000 A 
ATOM     27  N   UNL     1      47.473   3.109  15.873  0.00  0.00    +0.000 N 
ATOM     28  C   UNL     1      47.370   4.413  15.439  0.00  0.00    +0.000 A 
ATOM     29  O   UNL     1      46.750   4.712  14.427  0.00  0.00    +0.000 OA
ATOM     30  C   UNL     1      48.059   5.354  16.280  0.00  0.00    +0.000 A 
ATOM     31  H   UNL     1      47.008   2.412  15.304  0.00  0.00    +0.000 HD
ENDBRANCH  18  21
ENDBRANCH   1  19
TORSDOF 7
ENDMDL
MODEL 2
REMARK VINA RESULT:    -7.618      1.576      1.681
REMARK INTER + INTRA:         -12.124
REMARK INTER:                 -11.104
REMARK INTRA:                  -1.020
REMARK UNBOUND:                -1.389
REMARK  Name = 
REMARK  7 active torsions:
REMARK  status: ('A' for Active; 'I' for Inactive)
REMARK    1  A    between atoms: C_2  and  C_20
REMARK    2  A    between atoms: N_3  and  C_4
REMARK    3  A    between atoms: C_4  and  C_5
REMARK    4  A    between atoms: C_8  and  C_9
REMARK    5  A    between atoms: C_9  and  O_10
REMARK    6  A    between atoms: O_10  and  C_11
REMARK    7  A    between atoms: C_11  and  C_12
REMARK                            x       y       z     vdW  Elec       q    Type
REMARK                         _______ _______ _______ _____ _____    ______ ____
ROOT
ATOM      1  C   UNL     1      47.901   6.885  13.499  0.00  0.00    +0.000 C 
ENDROOT
BRANCH   1   2
ATOM      2  C   UNL     1      46.795   6.056  12.913  0.00  0.00    +0.000 A 
ATOM      3  C   UNL     1      46.256   6.334  11.656  0.00  0.00    +0.000 A 
ATOM      4  C   UNL     1      45.262   5.509  11.131  0.00  0.00    +0.000 A 
ATOM      5  C   UNL     1      44.841   4.412  11.877  0.00  0.00    +0.000 A 
ATOM      6  N   UNL     1      45.372   4.105  13.086  0.00  0.00    +0.000 NA
ATOM      7  C   UNL     1      46.328   4.926  13.574  0.00  0.00    +0.000 A 
BRANCH   5   8
ATOM      8  C   UNL     1      43.827   3.448  11.303  0.00  0.00    +0.000 C 
BRANCH   8   9
ATOM      9  O   UNL     1      43.947   3.311   9.882  0.00  0.00    +0.000 OA
BRANCH   9  10
ATOM     10  C   UNL     1      44.446   2.028   9.501  0.00  0.00    +0.000 C 
BRANCH  10  11
ATOM     11  C   UNL     1      45.568   2.204   8.506  0.00  0.00    +0.000 A 
ATOM     12  C   UNL     1      45.824   3.454   7.967  0.00  0.00    +0.000 A 
ATOM     13  C   UNL     1      46.869   3.528   7.076  0.00  0.00    +0.000 A 
ATOM     14  N   UNL     1      47.625   2.474   6.725  0.00  0.00    +0.000 NA
ATOM     15  C   UNL     1      47.302   1.311   7.308  0.00  0.00    +0.000 A 
ATOM     16  N   UNL     1      46.299   1.112   8.177  0.00  0.00    +0.000 NA
ENDBRANCH  10  11
ENDBRANCH   9  10
ENDBRANCH   8   9
ENDBRANCH   5   8
ENDBRANCH   1   2
BRANCH   1  19
ATOM     17  O   UNL     1      48.531   8.221  15.940  0.00  0.00    +0.000 OA
ATOM     18  C   UNL     1      48.733   7.022  15.816  0.00  0.00    +0.000 C 
ATOM     19  N   UNL     1      48.366   6.278  14.717  0.00  0.00    +0.000 N 
ATOM     20  H   UNL     1      48.781   5.365  14.616  0.00  0.00    +0.000 HD
BRANCH  18  21
ATOM     21  C   UNL     1      49.593   6.247  16.699  0.00  0.00    +0.000 A 
ATOM     22  C   UNL     1      50.797   6.727  17.186  0.00  0.00    +0.000 A 
ATOM     23  S   UNL     1      51.849   5.441  17.621  0.00  0.00    +0.000 S 
ATOM     24  C   UNL     1      50.642   4.273  17.324  0.00  0.00    +0.000 A 
ATOM     25  N   UNL     1      50.893   2.938  17.325  0.00  0.00    +0.000 NA
ATOM     26  C   UNL     1      49.844   2.201  17.129  0.00  0.00    +0.000 A 
ATOM     27  N   UNL     1      48.565   2.674  16.981  0.00  0.00    +0.000 N 
ATOM     28  C   UNL     1      48.264   4.019  16.969  0.00  0.00    +0.000 A 
ATOM     29  O   UNL     1      47.112   4.425  16.887  0.00  0.00    +0.000 OA
ATOM     30  C   UNL     1      49.422   4.868  17.053  0.00  0.00    +0.000 A 
ATOM     31  H   UNL     1      47.778   2.041  16.915  0.00  0.00    +0.000 HD
ENDBRANCH  18  21
ENDBRANCH   1  19
TORSDOF 7
ENDMDL
MODEL 3
REMARK VINA RESULT:    -7.366      2.305      2.951
REMARK INTER + INTRA:         -11.768
REMARK INTER:                 -10.832
REMARK INTRA:                  -0.936
REMARK UNBOUND:                -1.389
REMARK  Name = 
REMARK  7 active torsions:
REMARK  status: ('A' for Active; 'I' for Inactive)
REMARK    1  A    between atoms: C_2  and  C_20
REMARK    2  A    between atoms: N_3  and  C_4
REMARK    3  A    between atoms: C_4  and  C_5
REMARK    4  A    between atoms: C_8  and  C_9
REMARK    5  A    between atoms: C_9  and  O_10
REMARK    6  A    between atoms: O_10  and  C_11
REMARK    7  A    between atoms: C_11  and  C_12
REMARK                            x       y       z     vdW  Elec       q    Type
REMARK                         _______ _______ _______ _____ _____    ______ ____
ROOT
ATOM      1  C   UNL     1      47.686   4.521  15.173  0.00  0.00    +0.000 C 
ENDROOT
BRANCH   1   2
ATOM      2  C   UNL     1      46.842   4.742  13.952  0.00  0.00    +0.000 A 
ATOM      3  C   UNL     1      46.858   5.952  13.256  0.00  0.00    +0.000 A 
ATOM      4  C   UNL     1      46.093   6.095  12.099  0.00  0.00    +0.000 A 
ATOM      5  C   UNL     1      45.338   5.013  11.658  0.00  0.00    +0.000 A 
ATOM      6  N   UNL     1      45.331   3.819  12.300  0.00  0.00    +0.000 NA
ATOM      7  C   UNL     1      46.074   3.710  13.423  0.00  0.00    +0.000 A 
BRANCH   5   8
ATOM      8  C   UNL     1      44.563   5.106  10.363  0.00  0.00    +0.000 C 
BRANCH   8   9
ATOM      9  O   UNL     1      45.296   4.579   9.250  0.00  0.00    +0.000 OA
BRANCH   9  10
ATOM     10  C   UNL     1      44.808   3.301   8.835  0.00  0.00    +0.000 C 
BRANCH  10  11
ATOM     11  C   UNL     1      45.894   2.573   8.082  0.00  0.00    +0.000 A 
ATOM     12  C   UNL     1      46.715   3.267   7.209  0.00  0.00    +0.000 A 
ATOM     13  C   UNL     1      47.685   2.529   6.570  0.00  0.00    +0.000 A 
ATOM     14  N   UNL     1      47.860   1.210   6.758  0.00  0.00    +0.000 NA
ATOM     15  C   UNL     1      47.020   0.632   7.628  0.00  0.00    +0.000 A 
ATOM     16  N   UNL     1      46.029   1.242   8.297  0.00  0.00    +0.000 NA
ENDBRANCH  10  11
ENDBRANCH   9  10
ENDBRANCH   8   9
ENDBRANCH   5   8
ENDBRANCH   1   2
BRANCH   1  19
ATOM     17  O   UNL     1      50.027   5.429  16.529  0.00  0.00    +0.000 OA
ATOM     18  C   UNL     1      48.988   6.069  16.585  0.00  0.00    +0.000 C 
ATOM     19  N   UNL     1      47.844   5.763  15.882  0.00  0.00    +0.000 N 
ATOM     20  H   UNL     1      46.988   6.208  16.173  0.00  0.00    +0.000 HD
BRANCH  18  21
ATOM     21  C   UNL     1      48.723   7.106  17.572  0.00  0.00    +0.000 A 
ATOM     22  C   UNL     1      49.260   8.379  17.486  0.00  0.00    +0.000 A 
ATOM     23  S   UNL     1      49.326   9.132  19.028  0.00  0.00    +0.000 S 
ATOM     24  C   UNL     1      48.488   7.839  19.761  0.00  0.00    +0.000 A 
ATOM     25  N   UNL     1      48.339   7.727  21.107  0.00  0.00    +0.000 NA
ATOM     26  C   UNL     1      47.630   6.706  21.478  0.00  0.00    +0.000 A 
ATOM     27  N   UNL     1      47.021   5.818  20.628  0.00  0.00    +0.000 N 
ATOM     28  C   UNL     1      47.148   5.891  19.258  0.00  0.00    +0.000 A 
ATOM     29  O   UNL     1      46.557   5.122  18.511  0.00  0.00    +0.000 OA
ATOM     30  C   UNL     1      48.034   6.934  18.818  0.00  0.00    +0.000 A 
ATOM     31  H   UNL     1      46.412   5.090  20.981  0.00  0.00    +0.000 HD
ENDBRANCH  18  21
ENDBRANCH   1  19
TORSDOF 7
ENDMDL
MODEL 4
REMARK VINA RESULT:    -7.221      3.134      7.510
REMARK INTER + INTRA:         -11.564
REMARK INTER:                 -10.320
REMARK INTRA:                  -1.244
REMARK UNBOUND:                -1.389
REMARK  Name = 
REMARK  7 active torsions:
REMARK  status: ('A' for Active; 'I' for Inactive)
REMARK    1  A    between atoms: C_2  and  C_20
REMARK    2  A    between atoms: N_3  and  C_4
REMARK    3  A    between atoms: C_4  and  C_5
REMARK    4  A    between atoms: C_8  and  C_9
REMARK    5  A    between atoms: C_9  and  O_10
REMARK    6  A    between atoms: O_10  and  C_11
REMARK    7  A    between atoms: C_11  and  C_12
REMARK                            x       y       z     vdW  Elec       q    Type
REMARK                         _______ _______ _______ _____ _____    ______ ____
ROOT
ATOM      1  C   UNL     1      46.758   8.390  12.851  0.00  0.00    +0.000 C 
ENDROOT
BRANCH   1   2
ATOM      2  C   UNL     1      47.698   7.959  13.939  0.00  0.00    +0.000 A 
ATOM      3  C   UNL     1      48.151   8.850  14.913  0.00  0.00    +0.000 A 
ATOM      4  C   UNL     1      48.986   8.395  15.932  0.00  0.00    +0.000 A 
ATOM      5  C   UNL     1      49.336   7.049  15.959  0.00  0.00    +0.000 A 
ATOM      6  N   UNL     1      48.884   6.159  15.042  0.00  0.00    +0.000 NA
ATOM      7  C   UNL     1      48.082   6.628  14.060  0.00  0.00    +0.000 A 
BRANCH   5   8
ATOM      8  C   UNL     1      50.171   6.504  17.096  0.00  0.00    +0.000 C 
BRANCH   8   9
ATOM      9  O   UNL     1      49.375   6.142  18.232  0.00  0.00    +0.000 OA
BRANCH   9  10
ATOM     10  C   UNL     1      49.859   4.964  18.880  0.00  0.00    +0.000 C 
BRANCH  10  11
ATOM     11  C   UNL     1      49.723   3.788  17.945  0.00  0.00    +0.000 A 
ATOM     12  C   UNL     1      50.810   2.961  17.711  0.00  0.00    +0.000 A 
ATOM     13  C   UNL     1      50.598   1.907  16.852  0.00  0.00    +0.000 A 
ATOM     14  N   UNL     1      49.419   1.657  16.258  0.00  0.00    +0.000 NA
ATOM     15  C   UNL     1      48.428   2.510  16.555  0.00  0.00    +0.000 A 
ATOM     16  N   UNL     1      48.518   3.578  17.362  0.00  0.00    +0.000 NA
ENDBRANCH  10  11
ENDBRANCH   9  10
ENDBRANCH   8   9
ENDBRANCH   5   8
ENDBRANCH   1   2
BRANCH   1  19
ATOM     17  O   UNL     1      44.441   7.773  11.303  0.00  0.00    +0.000 OA
ATOM     18  C   UNL     1      45.432   7.060  11.252  0.00  0.00    +0.000 C 
ATOM     19  N   UNL     1      46.626   7.336  11.881  0.00  0.00    +0.000 N 
ATOM     20  H   UNL     1      47.290   6.582  11.967  0.00  0.00    +0.000 HD
BRANCH  18  21
ATOM     21  C   UNL     1      45.433   5.705  10.718  0.00  0.00    +0.000 A 
ATOM     22  C   UNL     1      45.780   5.414   9.410  0.00  0.00    +0.000 A 
ATOM     23  S   UNL     1      45.087   3.927   8.899  0.00  0.00    +0.000 S 
ATOM     24  C   UNL     1      44.483   3.603  10.462  0.00  0.00    +0.000 A 
ATOM     25  N   UNL     1      43.635   2.575  10.724  0.00  0.00    +0.000 NA
ATOM     26  C   UNL     1      43.322   2.453  11.977  0.00  0.00    +0.000 A 
ATOM     27  N   UNL     1      43.815   3.234  12.992  0.00  0.00    +0.000 N 
ATOM     28  C   UNL     1      44.674   4.289  12.772  0.00  0.00    +0.000 A 
ATOM     29  O   UNL     1      45.145   4.943  13.693  0.00  0.00    +0.000 OA
ATOM     30  C   UNL     1      44.938   4.533  11.380  0.00  0.00    +0.000 A 
ATOM     31  H   UNL     1      43.595   3.033  13.960  0.00  0.00    +0.000 HD
ENDBRANCH  18  21
ENDBRANCH   1  19
TORSDOF 7
ENDMDL
MODEL 5
REMARK VINA RESULT:    -6.965      1.955      2.726
REMARK INTER + INTRA:         -11.204
REMARK INTER:                 -10.221
REMARK INTRA:                  -0.983
REMARK UNBOUND:                -1.389
REMARK  Name = 
REMARK  7 active torsions:
REMARK  status: ('A' for Active; 'I' for Inactive)
REMARK    1  A    between atoms: C_2  and  C_20
REMARK    2  A    between atoms: N_3  and  C_4
REMARK    3  A    between atoms: C_4  and  C_5
REMARK    4  A    between atoms: C_8  and  C_9
REMARK    5  A    between atoms: C_9  and  O_10
REMARK    6  A    between atoms: O_10  and  C_11
REMARK    7  A    between atoms: C_11  and  C_12
REMARK                            x       y       z     vdW  Elec       q    Type
REMARK                         _______ _______ _______ _____ _____    ______ ____
ROOT
ATOM      1  C   UNL     1      47.874   7.031  13.391  0.00  0.00    +0.000 C 
ENDROOT
BRANCH   1   2
ATOM      2  C   UNL     1      46.731   6.301  12.749  0.00  0.00    +0.000 A 
ATOM      3  C   UNL     1      46.342   6.557  11.433  0.00  0.00    +0.000 A 
ATOM      4  C   UNL     1      45.305   5.821  10.862  0.00  0.00    +0.000 A 
ATOM      5  C   UNL     1      44.690   4.831  11.622  0.00  0.00    +0.000 A 
ATOM      6  N   UNL     1      45.071   4.544  12.891  0.00  0.00    +0.000 NA
ATOM      7  C   UNL     1      46.073   5.278  13.423  0.00  0.00    +0.000 A 
BRANCH   5   8
ATOM      8  C   UNL     1      43.620   3.957  11.008  0.00  0.00    +0.000 C 
BRANCH   8   9
ATOM      9  O   UNL     1      43.942   3.559   9.670  0.00  0.00    +0.000 OA
BRANCH   9  10
ATOM     10  C   UNL     1      44.640   2.313   9.628  0.00  0.00    +0.000 C 
BRANCH  10  11
ATOM     11  C   UNL     1      45.645   2.342   8.502  0.00  0.00    +0.000 A 
ATOM     12  C   UNL     1      46.272   1.172   8.104  0.00  0.00    +0.000 A 
ATOM     13  C   UNL     1      47.167   1.285   7.066  0.00  0.00    +0.000 A 
ATOM     14  N   UNL     1      47.441   2.444   6.443  0.00  0.00    +0.000 NA
ATOM     15  C   UNL     1      46.777   3.516   6.896  0.00  0.00    +0.000 A 
ATOM     16  N   UNL     1      45.896   3.533   7.908  0.00  0.00    +0.000 NA
ENDBRANCH  10  11
ENDBRANCH   9  10
ENDBRANCH   8   9
ENDBRANCH   5   8
ENDBRANCH   1   2
BRANCH   1  19
ATOM     17  O   UNL     1      50.167   6.806  15.075  0.00  0.00    +0.000 OA
ATOM     18  C   UNL     1      49.048   6.586  15.514  0.00  0.00    +0.000 C 
ATOM     19  N   UNL     1      47.882   6.769  14.805  0.00  0.00    +0.000 N 
ATOM     20  H   UNL     1      47.045   6.343  15.172  0.00  0.00    +0.000 HD
BRANCH  18  21
ATOM     21  C   UNL     1      48.788   5.879  16.760  0.00  0.00    +0.000 A 
ATOM     22  C   UNL     1      48.429   4.543  16.805  0.00  0.00    +0.000 A 
ATOM     23  S   UNL     1      47.584   4.174  18.253  0.00  0.00    +0.000 S 
ATOM     24  C   UNL     1      47.854   5.738  18.879  0.00  0.00    +0.000 A 
ATOM     25  N   UNL     1      47.261   6.188  20.016  0.00  0.00    +0.000 NA
ATOM     26  C   UNL     1      47.625   7.383  20.365  0.00  0.00    +0.000 A 
ATOM     27  N   UNL     1      48.557   8.146  19.710  0.00  0.00    +0.000 N 
ATOM     28  C   UNL     1      49.180   7.732  18.552  0.00  0.00    +0.000 A 
ATOM     29  O   UNL     1      50.047   8.403  18.007  0.00  0.00    +0.000 OA
ATOM     30  C   UNL     1      48.704   6.466  18.065  0.00  0.00    +0.000 A 
ATOM     31  H   UNL     1      48.857   9.039  20.082  0.00  0.00    +0.000 HD
ENDBRANCH  18  21
ENDBRANCH   1  19
TORSDOF 7
ENDMDL
MODEL 6
REMARK VINA RESULT:    -6.724      2.045      3.499
REMARK INTER + INTRA:         -10.865
REMARK INTER:                 -10.261
REMARK INTRA:                  -0.604
REMARK UNBOUND:                -1.389
REMARK  Name = 
REMARK  7 active torsions:
REMARK  status: ('A' for Active; 'I' for Inactive)
REMARK    1  A    between atoms: C_2  and  C_20
REMARK    2  A    between atoms: N_3  and  C_4
REMARK    3  A    between atoms: C_4  and  C_5
REMARK    4  A    between atoms: C_8  and  C_9
REMARK    5  A    between atoms: C_9  and  O_10
REMARK    6  A    between atoms: O_10  and  C_11
REMARK    7  A    between atoms: C_11  and  C_12
REMARK                            x       y       z     vdW  Elec       q    Type
REMARK                         _______ _______ _______ _____ _____    ______ ____
ROOT
ATOM      1  C   UNL     1      47.448   4.232  15.185  0.00  0.00    +0.000 C 
ENDROOT
BRANCH   1   2
ATOM      2  C   UNL     1      46.690   4.565  13.934  0.00  0.00    +0.000 A 
ATOM      3  C   UNL     1      46.736   5.840  13.365  0.00  0.00    +0.000 A 
ATOM      4  C   UNL     1      46.054   6.091  12.176  0.00  0.00    +0.000 A 
ATOM      5  C   UNL     1      45.351   5.052  11.575  0.00  0.00    +0.000 A 
ATOM      6  N   UNL     1      45.317   3.799  12.093  0.00  0.00    +0.000 NA
ATOM      7  C   UNL     1      45.980   3.584  13.251  0.00  0.00    +0.000 A 
BRANCH   5   8
ATOM      8  C   UNL     1      44.669   5.266  10.242  0.00  0.00    +0.000 C 
BRANCH   8   9
ATOM      9  O   UNL     1      45.403   4.689   9.155  0.00  0.00    +0.000 OA
BRANCH   9  10
ATOM     10  C   UNL     1      44.870   3.426   8.751  0.00  0.00    +0.000 C 
BRANCH  10  11
ATOM     11  C   UNL     1      45.927   2.656   7.999  0.00  0.00    +0.000 A 
ATOM     12  C   UNL     1      46.722   3.302   7.067  0.00  0.00    +0.000 A 
ATOM     13  C   UNL     1      47.667   2.529   6.433  0.00  0.00    +0.000 A 
ATOM     14  N   UNL     1      47.842   1.220   6.678  0.00  0.00    +0.000 NA
ATOM     15  C   UNL     1      47.029   0.689   7.602  0.00  0.00    +0.000 A 
ATOM     16  N   UNL     1      46.064   1.336   8.273  0.00  0.00    +0.000 NA
ENDBRANCH  10  11
ENDBRANCH   9  10
ENDBRANCH   8   9
ENDBRANCH   5   8
ENDBRANCH   1   2
BRANCH   1  19
ATOM     17  O   UNL     1      49.600   6.086  15.457  0.00  0.00    +0.000 OA
ATOM     18  C   UNL     1      48.615   6.166  16.175  0.00  0.00    +0.000 C 
ATOM     19  N   UNL     1      47.490   5.383  16.047  0.00  0.00    +0.000 N 
ATOM     20  H   UNL     1      46.844   5.369  16.821  0.00  0.00    +0.000 HD
BRANCH  18  21
ATOM     21  C   UNL     1      48.571   6.932  17.413  0.00  0.00    +0.000 A 
ATOM     22  C   UNL     1      48.394   6.344  18.654  0.00  0.00    +0.000 A 
ATOM     23  S   UNL     1      47.748   7.462  19.786  0.00  0.00    +0.000 S 
ATOM     24  C   UNL     1      47.873   8.750  18.674  0.00  0.00    +0.000 A 
ATOM     25  N   UNL     1      47.340   9.978  18.907  0.00  0.00    +0.000 NA
ATOM     26  C   UNL     1      47.577  10.845  17.972  0.00  0.00    +0.000 A 
ATOM     27  N   UNL     1      48.335  10.610  16.853  0.00  0.00    +0.000 N 
ATOM     28  C   UNL     1      48.891   9.380  16.574  0.00  0.00    +0.000 A 
ATOM     29  O   UNL     1      49.607   9.199  15.598  0.00  0.00    +0.000 OA
ATOM     30  C   UNL     1      48.538   8.361  17.525  0.00  0.00    +0.000 A 
ATOM     31  H   UNL     1      48.551  11.354  16.202  0.00  0.00    +0.000 HD
ENDBRANCH  18  21
ENDBRANCH   1  19
TORSDOF 7
ENDMDL
MODEL 7
REMARK VINA RESULT:    -6.542      2.184      2.756
REMARK INTER + INTRA:         -10.607
REMARK INTER:                  -9.586
REMARK INTRA:                  -1.021
REMARK UNBOUND:                -1.389
REMARK  Name = 
REMARK  7 active torsions:
REMARK  status: ('A' for Active; 'I' for Inactive)
REMARK    1  A    between atoms: C_2  and  C_20
REMARK    2  A    between atoms: N_3  and  C_4
REMARK    3  A    between atoms: C_4  and  C_5
REMARK    4  A    between atoms: C_8  and  C_9
REMARK    5  A    between atoms: C_9  and  O_10
REMARK    6  A    between atoms: O_10  and  C_11
REMARK    7  A    between atoms: C_11  and  C_12
REMARK                            x       y       z     vdW  Elec       q    Type
REMARK                         _______ _______ _______ _____ _____    ______ ____
ROOT
ATOM      1  C   UNL     1      48.948   7.279  14.872  0.00  0.00    +0.000 C 
ENDROOT
BRANCH   1   2
ATOM      2  C   UNL     1      47.895   6.860  13.888  0.00  0.00    +0.000 A 
ATOM      3  C   UNL     1      47.393   5.557  13.859  0.00  0.00    +0.000 A 
ATOM      4  C   UNL     1      46.382   5.225  12.960  0.00  0.00    +0.000 A 
ATOM      5  C   UNL     1      45.885   6.214  12.117  0.00  0.00    +0.000 A 
ATOM      6  N   UNL     1      46.335   7.492  12.149  0.00  0.00    +0.000 NA
ATOM      7  C   UNL     1      47.321   7.786  13.024  0.00  0.00    +0.000 A 
BRANCH   5   8
ATOM      8  C   UNL     1      44.730   5.911  11.189  0.00  0.00    +0.000 C 
BRANCH   8   9
ATOM      9  O   UNL     1      44.500   4.504  11.046  0.00  0.00    +0.000 OA
BRANCH   9  10
ATOM     10  C   UNL     1      43.939   4.172   9.774  0.00  0.00    +0.000 C 
BRANCH  10  11
ATOM     11  C   UNL     1      44.993   3.509   8.921  0.00  0.00    +0.000 A 
ATOM     12  C   UNL     1      45.203   2.144   9.017  0.00  0.00    +0.000 A 
ATOM     13  C   UNL     1      46.176   1.619   8.199  0.00  0.00    +0.000 A 
ATOM     14  N   UNL     1      46.900   2.355   7.339  0.00  0.00    +0.000 NA
ATOM     15  C   UNL     1      46.617   3.664   7.315  0.00  0.00    +0.000 A 
ATOM     16  N   UNL     1      45.704   4.291   8.074  0.00  0.00    +0.000 NA
ENDBRANCH  10  11
ENDBRANCH   9  10
ENDBRANCH   8   9
ENDBRANCH   5   8
ENDBRANCH   1   2
BRANCH   1  19
ATOM     17  O   UNL     1      50.262   8.190  17.235  0.00  0.00    +0.000 OA
ATOM     18  C   UNL     1      49.079   7.885  17.259  0.00  0.00    +0.000 C 
ATOM     19  N   UNL     1      48.341   7.535  16.150  0.00  0.00    +0.000 N 
ATOM     20  H   UNL     1      47.454   7.083  16.308  0.00  0.00    +0.000 HD
BRANCH  18  21
ATOM     21  C   UNL     1      48.332   7.617  18.480  0.00  0.00    +0.000 A 
ATOM     22  C   UNL     1      47.755   8.618  19.242  0.00  0.00    +0.000 A 
ATOM     23  S   UNL     1      47.535   8.113  20.869  0.00  0.00    +0.000 S 
ATOM     24  C   UNL     1      48.042   6.525  20.507  0.00  0.00    +0.000 A 
ATOM     25  N   UNL     1      48.267   5.588  21.464  0.00  0.00    +0.000 NA
ATOM     26  C   UNL     1      48.598   4.423  20.998  0.00  0.00    +0.000 A 
ATOM     27  N   UNL     1      48.678   4.101  19.667  0.00  0.00    +0.000 N 
ATOM     28  C   UNL     1      48.462   5.019  18.663  0.00  0.00    +0.000 A 
ATOM     29  O   UNL     1      48.488   4.704  17.480  0.00  0.00    +0.000 OA
ATOM     30  C   UNL     1      48.222   6.352  19.145  0.00  0.00    +0.000 A 
ATOM     31  H   UNL     1      48.861   3.150  19.370  0.00  0.00    +0.000 HD
ENDBRANCH  18  21
ENDBRANCH   1  19
TORSDOF 7
ENDMDL
MODEL 8
REMARK VINA RESULT:    -6.432      3.192      4.904
REMARK INTER + INTRA:         -10.453
REMARK INTER:                  -9.657
REMARK INTRA:                  -0.795
REMARK UNBOUND:                -1.389
REMARK  Name = 
REMARK  7 active torsions:
REMARK  status: ('A' for Active; 'I' for Inactive)
REMARK    1  A    between atoms: C_2  and  C_20
REMARK    2  A    between atoms: N_3  and  C_4
REMARK    3  A    between atoms: C_4  and  C_5
REMARK    4  A    between atoms: C_8  and  C_9
REMARK    5  A    between atoms: C_9  and  O_10
REMARK    6  A    between atoms: O_10  and  C_11
REMARK    7  A    between atoms: C_11  and  C_12
REMARK                            x       y       z     vdW  Elec       q    Type
REMARK                         _______ _______ _______ _____ _____    ______ ____
ROOT
ATOM      1  C   UNL     1      47.862   5.897  14.124  0.00  0.00    +0.000 C 
ENDROOT
BRANCH   1   2
ATOM      2  C   UNL     1      46.747   5.352  13.280  0.00  0.00    +0.000 A 
ATOM      3  C   UNL     1      46.081   6.144  12.342  0.00  0.00    +0.000 A 
ATOM      4  C   UNL     1      45.083   5.583  11.547  0.00  0.00    +0.000 A 
ATOM      5  C   UNL     1      44.786   4.233  11.701  0.00  0.00    +0.000 A 
ATOM      6  N   UNL     1      45.440   3.437  12.582  0.00  0.00    +0.000 NA
ATOM      7  C   UNL     1      46.397   4.008  13.347  0.00  0.00    +0.000 A 
BRANCH   5   8
ATOM      8  C   UNL     1      43.769   3.572  10.797  0.00  0.00    +0.000 C 
BRANCH   8   9
ATOM      9  O   UNL     1      44.380   2.736   9.807  0.00  0.00    +0.000 OA
BRANCH   9  10
ATOM     10  C   UNL     1      44.836   3.480   8.675  0.00  0.00    +0.000 C 
BRANCH  10  11
ATOM     11  C   UNL     1      45.956   2.726   8.001  0.00  0.00    +0.000 A 
ATOM     12  C   UNL     1      46.069   1.356   8.171  0.00  0.00    +0.000 A 
ATOM     13  C   UNL     1      47.113   0.746   7.515  0.00  0.00    +0.000 A 
ATOM     14  N   UNL     1      47.991   1.405   6.741  0.00  0.00    +0.000 NA
ATOM     15  C   UNL     1      47.792   2.726   6.633  0.00  0.00    +0.000 A 
ATOM     16  N   UNL     1      46.822   3.433   7.236  0.00  0.00    +0.000 NA
ENDBRANCH  10  11
ENDBRANCH   9  10
ENDBRANCH   8   9
ENDBRANCH   5   8
ENDBRANCH   1   2
BRANCH   1  19
ATOM     17  O   UNL     1      49.887   7.645  15.119  0.00  0.00    +0.000 OA
ATOM     18  C   UNL     1      49.504   7.730  13.961  0.00  0.00    +0.000 C 
ATOM     19  N   UNL     1      48.611   6.866  13.369  0.00  0.00    +0.000 N 
ATOM     20  H   UNL     1      48.191   7.157  12.500  0.00  0.00    +0.000 HD
BRANCH  18  21
ATOM     21  C   UNL     1      49.749   8.883  13.107  0.00  0.00    +0.000 A 
ATOM     22  C   UNL     1      48.747   9.756  12.718  0.00  0.00    +0.000 A 
ATOM     23  S   UNL     1      49.164  10.575  11.267  0.00  0.00    +0.000 S 
ATOM     24  C   UNL     1      50.730   9.898  11.265  0.00  0.00    +0.000 A 
ATOM     25  N   UNL     1      51.586  10.026  10.218  0.00  0.00    +0.000 NA
ATOM     26  C   UNL     1      52.750   9.488  10.416  0.00  0.00    +0.000 A 
ATOM     27  N   UNL     1      53.149   8.878  11.577  0.00  0.00    +0.000 N 
ATOM     28  C   UNL     1      52.314   8.722  12.663  0.00  0.00    +0.000 A 
ATOM     29  O   UNL     1      52.700   8.221  13.710  0.00  0.00    +0.000 OA
ATOM     30  C   UNL     1      50.975   9.191  12.429  0.00  0.00    +0.000 A 
ATOM     31  H   UNL     1      54.100   8.552  11.697  0.00  0.00    +0.000 HD
ENDBRANCH  18  21
ENDBRANCH   1  19
TORSDOF 7
ENDMDL
MODEL 9
REMARK VINA RESULT:    -6.415      2.651      3.892
REMARK INTER + INTRA:         -10.429
REMARK INTER:                  -9.447
REMARK INTRA:                  -0.982
REMARK UNBOUND:                -1.389
REMARK  Name = 
REMARK  7 active torsions:
REMARK  status: ('A' for Active; 'I' for Inactive)
REMARK    1  A    between atoms: C_2  and  C_20
REMARK    2  A    between atoms: N_3  and  C_4
REMARK    3  A    between atoms: C_4  and  C_5
REMARK    4  A    between atoms: C_8  and  C_9
REMARK    5  A    between atoms: C_9  and  O_10
REMARK    6  A    between atoms: O_10  and  C_11
REMARK    7  A    between atoms: C_11  and  C_12
REMARK                            x       y       z     vdW  Elec       q    Type
REMARK                         _______ _______ _______ _____ _____    ______ ____
ROOT
ATOM      1  C   UNL     1      47.731   6.013  14.476  0.00  0.00    +0.000 C 
ENDROOT
BRANCH   1   2
ATOM      2  C   UNL     1      46.728   5.753  13.390  0.00  0.00    +0.000 A 
ATOM      3  C   UNL     1      46.738   6.473  12.193  0.00  0.00    +0.000 A 
ATOM      4  C   UNL     1      45.817   6.165  11.193  0.00  0.00    +0.000 A 
ATOM      5  C   UNL     1      44.915   5.129  11.411  0.00  0.00    +0.000 A 
ATOM      6  N   UNL     1      44.907   4.396  12.551  0.00  0.00    +0.000 NA
ATOM      7  C   UNL     1      45.804   4.721  13.508  0.00  0.00    +0.000 A 
BRANCH   5   8
ATOM      8  C   UNL     1      43.958   4.712  10.316  0.00  0.00    +0.000 C 
BRANCH   8   9
ATOM      9  O   UNL     1      44.639   4.205   9.161  0.00  0.00    +0.000 OA
BRANCH   9  10
ATOM     10  C   UNL     1      44.638   2.777   9.114  0.00  0.00    +0.000 C 
BRANCH  10  11
ATOM     11  C   UNL     1      45.785   2.306   8.254  0.00  0.00    +0.000 A 
ATOM     12  C   UNL     1      46.496   3.216   7.490  0.00  0.00    +0.000 A 
ATOM     13  C   UNL     1      47.531   2.705   6.741  0.00  0.00    +0.000 A 
ATOM     14  N   UNL     1      47.868   1.404   6.729  0.00  0.00    +0.000 NA
ATOM     15  C   UNL     1      47.125   0.606   7.508  0.00  0.00    +0.000 A 
ATOM     16  N   UNL     1      46.084   0.985   8.267  0.00  0.00    +0.000 NA
ENDBRANCH  10  11
ENDBRANCH   9  10
ENDBRANCH   8   9
ENDBRANCH   5   8
ENDBRANCH   1   2
BRANCH   1  19
ATOM     17  O   UNL     1      50.413   6.744  15.119  0.00  0.00    +0.000 OA
ATOM     18  C   UNL     1      49.624   7.578  14.699  0.00  0.00    +0.000 C 
ATOM     19  N   UNL     1      48.347   7.296  14.268  0.00  0.00    +0.000 N 
ATOM     20  H   UNL     1      47.711   8.071  14.165  0.00  0.00    +0.000 HD
BRANCH  18  21
ATOM     21  C   UNL     1      49.825   9.016  14.808  0.00  0.00    +0.000 A 
ATOM     22  C   UNL     1      50.388   9.775  13.797  0.00  0.00    +0.000 A 
ATOM     23  S   UNL     1      51.078  11.221  14.414  0.00  0.00    +0.000 S 
ATOM     24  C   UNL     1      50.475  10.911  15.980  0.00  0.00    +0.000 A 
ATOM     25  N   UNL     1      50.827  11.649  17.064  0.00  0.00    +0.000 NA
ATOM     26  C   UNL     1      50.230  11.298  18.161  0.00  0.00    +0.000 A 
ATOM     27  N   UNL     1      49.282  10.311  18.261  0.00  0.00    +0.000 N 
ATOM     28  C   UNL     1      48.898   9.535  17.190  0.00  0.00    +0.000 A 
ATOM     29  O   UNL     1      48.015   8.693  17.284  0.00  0.00    +0.000 OA
ATOM     30  C   UNL     1      49.635   9.810  15.987  0.00  0.00    +0.000 A 
ATOM     31  H   UNL     1      48.794  10.143  19.132  0.00  0.00    +0.000 HD
ENDBRANCH  18  21
ENDBRANCH   1  19
TORSDOF 7
ENDMDL
