MODEL 1
REMARK VINA RESULT:    -8.308      0.000      0.000
REMARK INTER + INTRA:         -13.396
REMARK INTER:                 -12.679
REMARK INTRA:                  -0.717
REMARK UNBOUND:                -0.717
REMARK  Name = 
REMARK  9 active torsions:
REMARK  status: ('A' for Active; 'I' for Inactive)
REMARK    1  A    between atoms: C_2  and  C_3
REMARK    2  A    between atoms: C_3  and  C_4
REMARK    3  A    between atoms: C_3  and  N_11
REMARK    4  A    between atoms: C_4  and  C_5
REMARK    5  A    between atoms: N_11  and  C_12
REMARK    6  A    between atoms: C_12  and  C_13
REMARK    7  A    between atoms: C_16  and  C_17
REMARK    8  A    between atoms: C_17  and  N_18
REMARK    9  A    between atoms: C_19  and  C_21
REMARK                            x       y       z     vdW  Elec       q    Type
REMARK                         _______ _______ _______ _____ _____    ______ ____
ROOT
ATOM      1  C   UNL     1      44.247   6.304  11.727  0.00  0.00    +0.000 A 
ATOM      2  C   UNL     1      44.419   7.652  11.392  0.00  0.00    +0.000 A 
ATOM      3  C   UNL     1      45.435   8.403  11.984  0.00  0.00    +0.000 A 
ATOM      4  C   UNL     1      46.291   7.819  12.925  0.00  0.00    +0.000 A 
ATOM      5  C   UNL     1      46.069   6.494  13.320  0.00  0.00    +0.000 A 
ATOM      6  C   UNL     1      45.063   5.738  12.716  0.00  0.00    +0.000 A 
ENDROOT
BRANCH   1   7
ATOM      7  C   UNL     1      43.207   5.463  11.028  0.00  0.00    +0.000 C 
BRANCH   7   8
ATOM      8  N   UNL     1      43.793   4.751   9.889  0.00  0.00    +0.000 NA
ATOM      9  H   UNL     1      43.052   4.514   9.231  0.00  0.00    +0.000 HD
BRANCH   8  10
ATOM     10  C   UNL     1      44.488   3.508  10.286  0.00  0.00    +0.000 C 
BRANCH  10  12
ATOM     11  N   UNL     1      43.289   2.394  12.534  0.00  0.00    +0.000 NA
ATOM     12  C   UNL     1      43.832   2.900  11.514  0.00  0.00    +0.000 C 
ENDBRANCH  10  12
BRANCH  10  13
ATOM     13  C   UNL     1      44.414   2.453   9.155  0.00  0.00    +0.000 C 
BRANCH  13  14
ATOM     14  C   UNL     1      45.623   2.455   8.258  0.00  0.00    +0.000 A 
ATOM     15  C   UNL     1      46.338   1.282   8.031  0.00  0.00    +0.000 A 
ATOM     16  C   UNL     1      47.422   1.320   7.160  0.00  0.00    +0.000 A 
ATOM     17  C   UNL     1      47.756   2.518   6.542  0.00  0.00    +0.000 A 
ATOM     18  C   UNL     1      46.991   3.637   6.825  0.00  0.00    +0.000 A 
ATOM     19  N   UNL     1      45.934   3.632   7.667  0.00  0.00    +0.000 NA
ENDBRANCH  13  14
ENDBRANCH  10  13
ENDBRANCH   8  10
ENDBRANCH   7   8
ENDBRANCH   1   7
BRANCH   4  20
ATOM     20  C   UNL     1      47.413   8.613  13.536  0.00  0.00    +0.000 C 
BRANCH  20  21
ATOM     21  N   UNL     1      47.802   8.048  14.797  0.00  0.00    +0.000 N 
ATOM     22  C   UNL     1      48.828   7.146  14.890  0.00  0.00    +0.000 C 
ATOM     23  O   UNL     1      49.527   6.843  13.927  0.00  0.00    +0.000 OA
ATOM     24  H   UNL     1      47.113   8.094  15.540  0.00  0.00    +0.000 HD
BRANCH  22  25
ATOM     25  C   UNL     1      49.088   6.612  16.231  0.00  0.00    +0.000 A 
ATOM     26  C   UNL     1      49.800   7.366  17.152  0.00  0.00    +0.000 A 
ATOM     27  S   UNL     1      49.931   6.620  18.682  0.00  0.00    +0.000 S 
ATOM     28  C   UNL     1      49.085   5.242  18.146  0.00  0.00    +0.000 A 
ATOM     29  N   UNL     1      48.842   4.198  18.981  0.00  0.00    +0.000 NA
ATOM     30  C   UNL     1      48.212   3.213  18.436  0.00  0.00    +0.000 A 
ATOM     31  N   UNL     1      47.805   3.174  17.126  0.00  0.00    +0.000 N 
ATOM     32  C   UNL     1      48.013   4.209  16.251  0.00  0.00    +0.000 A 
ATOM     33  O   UNL     1      47.621   4.149  15.093  0.00  0.00    +0.000 OA
ATOM     34  C   UNL     1      48.708   5.351  16.820  0.00  0.00    +0.000 A 
ATOM     35  H   UNL     1      47.317   2.371  16.759  0.00  0.00    +0.000 HD
ENDBRANCH  22  25
ENDBRANCH  20  21
ENDBRANCH   4  20
TORSDOF 9
ENDMDL
MODEL 2
REMARK VINA RESULT:    -8.270      2.755      3.490
REMARK INTER + INTRA:         -13.339
REMARK INTER:                 -12.136
REMARK INTRA:                  -1.203
REMARK UNBOUND:                -0.717
REMARK  Name = 
REMARK  9 active torsions:
REMARK  status: ('A' for Active; 'I' for Inactive)
REMARK    1  A    between atoms: C_2  and  C_3
REMARK    2  A    between atoms: C_3  and  C_4
REMARK    3  A    between atoms: C_3  and  N_11
REMARK    4  A    between atoms: C_4  and  C_5
REMARK    5  A    between atoms: N_11  and  C_12
REMARK    6  A    between atoms: C_12  and  C_13
REMARK    7  A    between atoms: C_16  and  C_17
REMARK    8  A    between atoms: C_17  and  N_18
REMARK    9  A    between atoms: C_19  and  C_21
REMARK                            x       y       z     vdW  Elec       q    Type
REMARK                         _______ _______ _______ _____ _____    ______ ____
ROOT
ATOM      1  C   UNL     1      46.639   4.605  13.626  0.00  0.00    +0.000 A 
ATOM      2  C   UNL     1      47.254   5.793  13.215  0.00  0.00    +0.000 A 
ATOM      3  C   UNL     1      48.112   6.480  14.075  0.00  0.00    +0.000 A 
ATOM      4  C   UNL     1      48.362   5.992  15.364  0.00  0.00    +0.000 A 
ATOM      5  C   UNL     1      47.685   4.849  15.803  0.00  0.00    +0.000 A 
ATOM      6  C   UNL     1      46.840   4.153  14.938  0.00  0.00    +0.000 A 
ENDROOT
BRANCH   1   7
ATOM      7  C   UNL     1      45.779   3.812  12.673  0.00  0.00    +0.000 C 
BRANCH   7   8
ATOM      8  N   UNL     1      45.470   4.599  11.475  0.00  0.00    +0.000 NA
ATOM      9  H   UNL     1      45.380   5.579  11.738  0.00  0.00    +0.000 HD
BRANCH   8  10
ATOM     10  C   UNL     1      44.218   4.171  10.815  0.00  0.00    +0.000 C 
BRANCH  10  12
ATOM     11  N   UNL     1      42.055   5.620  11.793  0.00  0.00    +0.000 NA
ATOM     12  C   UNL     1      43.036   4.963  11.350  0.00  0.00    +0.000 C 
ENDBRANCH  10  12
BRANCH  10  13
ATOM     13  C   UNL     1      44.288   4.421   9.289  0.00  0.00    +0.000 C 
BRANCH  13  14
ATOM     14  C   UNL     1      45.288   3.543   8.587  0.00  0.00    +0.000 A 
ATOM     15  C   UNL     1      45.333   2.175   8.842  0.00  0.00    +0.000 A 
ATOM     16  C   UNL     1      46.242   1.395   8.137  0.00  0.00    +0.000 A 
ATOM     17  C   UNL     1      47.073   1.997   7.201  0.00  0.00    +0.000 A 
ATOM     18  C   UNL     1      46.963   3.364   7.010  0.00  0.00    +0.000 A 
ATOM     19  N   UNL     1      46.090   4.149   7.680  0.00  0.00    +0.000 NA
ENDBRANCH  13  14
ENDBRANCH  10  13
ENDBRANCH   8  10
ENDBRANCH   7   8
ENDBRANCH   1   7
BRANCH   4  20
ATOM     20  C   UNL     1      49.317   6.707  16.280  0.00  0.00    +0.000 C 
BRANCH  20  21
ATOM     21  N   UNL     1      50.351   5.815  16.724  0.00  0.00    +0.000 N 
ATOM     22  C   UNL     1      50.465   5.452  18.039  0.00  0.00    +0.000 C 
ATOM     23  O   UNL     1      49.644   5.787  18.888  0.00  0.00    +0.000 OA
ATOM     24  H   UNL     1      51.154   5.721  16.112  0.00  0.00    +0.000 HD
BRANCH  22  25
ATOM     25  C   UNL     1      51.596   4.575  18.362  0.00  0.00    +0.000 A 
ATOM     26  C   UNL     1      52.674   5.070  19.081  0.00  0.00    +0.000 A 
ATOM     27  S   UNL     1      53.853   3.887  19.435  0.00  0.00    +0.000 S 
ATOM     28  C   UNL     1      52.984   2.687  18.594  0.00  0.00    +0.000 A 
ATOM     29  N   UNL     1      53.448   1.412  18.510  0.00  0.00    +0.000 NA
ATOM     30  C   UNL     1      52.700   0.616  17.824  0.00  0.00    +0.000 A 
ATOM     31  N   UNL     1      51.530   0.979  17.207  0.00  0.00    +0.000 N 
ATOM     32  C   UNL     1      51.014   2.248  17.277  0.00  0.00    +0.000 A 
ATOM     33  O   UNL     1      49.957   2.534  16.730  0.00  0.00    +0.000 OA
ATOM     34  C   UNL     1      51.812   3.183  18.051  0.00  0.00    +0.000 A 
ATOM     35  H   UNL     1      50.990   0.308  16.682  0.00  0.00    +0.000 HD
ENDBRANCH  22  25
ENDBRANCH  20  21
ENDBRANCH   4  20
TORSDOF 9
ENDMDL
MODEL 3
REMARK VINA RESULT:    -8.084      1.390      1.672
REMARK INTER + INTRA:         -13.054
REMARK INTER:                 -12.399
REMARK INTRA:                  -0.655
REMARK UNBOUND:                -0.717
REMARK  Name = 
REMARK  9 active torsions:
REMARK  status: ('A' for Active; 'I' for Inactive)
REMARK    1  A    between atoms: C_2  and  C_3
REMARK    2  A    between atoms: C_3  and  C_4
REMARK    3  A    between atoms: C_3  and  N_11
REMARK    4  A    between atoms: C_4  and  C_5
REMARK    5  A    between atoms: N_11  and  C_12
REMARK    6  A    between atoms: C_12  and  C_13
REMARK    7  A    between atoms: C_16  and  C_17
REMARK    8  A    between atoms: C_17  and  N_18
REMARK    9  A    between atoms: C_19  and  C_21
REMARK                            x       y       z     vdW  Elec       q    Type
REMARK                         _______ _______ _______ _____ _____    ______ ____
ROOT
ATOM      1  C   UNL     1      44.749   5.981  11.533  0.00  0.00    +0.000 A 
ATOM      2  C   UNL     1      45.824   6.460  10.776  0.00  0.00    +0.000 A 
ATOM      3  C   UNL     1      47.001   6.874  11.401  0.00  0.00    +0.000 A 
ATOM      4  C   UNL     1      47.118   6.820  12.795  0.00  0.00    +0.000 A 
ATOM      5  C   UNL     1      46.016   6.417  13.557  0.00  0.00    +0.000 A 
ATOM      6  C   UNL     1      44.844   5.989  12.932  0.00  0.00    +0.000 A 
ENDROOT
BRANCH   1   7
ATOM      7  C   UNL     1      43.506   5.452  10.860  0.00  0.00    +0.000 C 
BRANCH   7   8
ATOM      8  N   UNL     1      43.856   4.566   9.746  0.00  0.00    +0.000 NA
ATOM      9  H   UNL     1      43.005   4.307   9.250  0.00  0.00    +0.000 HD
BRANCH   8  10
ATOM     10  C   UNL     1      44.538   3.331  10.189  0.00  0.00    +0.000 C 
BRANCH  10  12
ATOM     11  N   UNL     1      43.358   2.341  12.504  0.00  0.00    +0.000 NA
ATOM     12  C   UNL     1      43.894   2.790  11.454  0.00  0.00    +0.000 C 
ENDBRANCH  10  12
BRANCH  10  13
ATOM     13  C   UNL     1      44.431   2.227   9.109  0.00  0.00    +0.000 C 
BRANCH  13  14
ATOM     14  C   UNL     1      45.575   2.236   8.131  0.00  0.00    +0.000 A 
ATOM     15  C   UNL     1      45.803   3.344   7.318  0.00  0.00    +0.000 A 
ATOM     16  C   UNL     1      46.898   3.328   6.462  0.00  0.00    +0.000 A 
ATOM     17  C   UNL     1      47.731   2.216   6.443  0.00  0.00    +0.000 A 
ATOM     18  C   UNL     1      47.430   1.158   7.284  0.00  0.00    +0.000 A 
ATOM     19  N   UNL     1      46.374   1.143   8.126  0.00  0.00    +0.000 NA
ENDBRANCH  13  14
ENDBRANCH  10  13
ENDBRANCH   8  10
ENDBRANCH   7   8
ENDBRANCH   1   7
BRANCH   4  20
ATOM     20  C   UNL     1      48.399   7.227  13.470  0.00  0.00    +0.000 C 
BRANCH  20  21
ATOM     21  N   UNL     1      48.222   7.282  14.895  0.00  0.00    +0.000 N 
ATOM     22  C   UNL     1      49.233   6.943  15.754  0.00  0.00    +0.000 C 
ATOM     23  O   UNL     1      50.364   6.666  15.363  0.00  0.00    +0.000 OA
ATOM     24  H   UNL     1      47.265   7.272  15.227  0.00  0.00    +0.000 HD
BRANCH  22  25
ATOM     25  C   UNL     1      48.901   6.997  17.181  0.00  0.00    +0.000 A 
ATOM     26  C   UNL     1      48.470   8.187  17.749  0.00  0.00    +0.000 A 
ATOM     27  S   UNL     1      48.050   8.039  19.397  0.00  0.00    +0.000 S 
ATOM     28  C   UNL     1      48.481   6.391  19.418  0.00  0.00    +0.000 A 
ATOM     29  N   UNL     1      48.359   5.647  20.549  0.00  0.00    +0.000 NA
ATOM     30  C   UNL     1      48.743   4.422  20.426  0.00  0.00    +0.000 A 
ATOM     31  N   UNL     1      49.243   3.871  19.273  0.00  0.00    +0.000 N 
ATOM     32  C   UNL     1      49.369   4.576  18.104  0.00  0.00    +0.000 A 
ATOM     33  O   UNL     1      49.802   4.049  17.088  0.00  0.00    +0.000 OA
ATOM     34  C   UNL     1      48.937   5.961  18.185  0.00  0.00    +0.000 A 
ATOM     35  H   UNL     1      49.529   2.903  19.243  0.00  0.00    +0.000 HD
ENDBRANCH  22  25
ENDBRANCH  20  21
ENDBRANCH   4  20
TORSDOF 9
ENDMDL
MODEL 4
REMARK VINA RESULT:    -7.873      2.057      2.628
REMARK INTER + INTRA:         -12.732
REMARK INTER:                 -11.782
REMARK INTRA:                  -0.950
REMARK UNBOUND:                -0.717
REMARK  Name = 
REMARK  9 active torsions:
REMARK  status: ('A' for Active; 'I' for Inactive)
REMARK    1  A    between atoms: C_2  and  C_3
REMARK    2  A    between atoms: C_3  and  C_4
REMARK    3  A    between atoms: C_3  and  N_11
REMARK    4  A    between atoms: C_4  and  C_5
REMARK    5  A    between atoms: N_11  and  C_12
REMARK    6  A    between atoms: C_12  and  C_13
REMARK    7  A    between atoms: C_16  and  C_17
REMARK    8  A    between atoms: C_17  and  N_18
REMARK    9  A    between atoms: C_19  and  C_21
REMARK                            x       y       z     vdW  Elec       q    Type
REMARK                         _______ _______ _______ _____ _____    ______ ____
ROOT
ATOM      1  C   UNL     1      44.759   5.980  12.462  0.00  0.00    +0.000 A 
ATOM      2  C   UNL     1      45.512   7.150  12.304  0.00  0.00    +0.000 A 
ATOM      3  C   UNL     1      46.727   7.305  12.972  0.00  0.00    +0.000 A 
ATOM      4  C   UNL     1      47.207   6.294  13.813  0.00  0.00    +0.000 A 
ATOM      5  C   UNL     1      46.417   5.159  14.033  0.00  0.00    +0.000 A 
ATOM      6  C   UNL     1      45.209   4.997  13.354  0.00  0.00    +0.000 A 
ENDROOT
BRANCH   1   7
ATOM      7  C   UNL     1      43.488   5.770  11.678  0.00  0.00    +0.000 C 
BRANCH   7   8
ATOM      8  N   UNL     1      43.784   5.528  10.262  0.00  0.00    +0.000 NA
ATOM      9  H   UNL     1      42.917   5.581   9.730  0.00  0.00    +0.000 HD
BRANCH   8  10
ATOM     10  C   UNL     1      44.404   4.207  10.024  0.00  0.00    +0.000 C 
BRANCH  10  12
ATOM     11  N   UNL     1      43.085   2.234  11.473  0.00  0.00    +0.000 NA
ATOM     12  C   UNL     1      43.683   3.129  10.816  0.00  0.00    +0.000 C 
ENDBRANCH  10  12
BRANCH  10  13
ATOM     13  C   UNL     1      44.311   3.819   8.528  0.00  0.00    +0.000 C 
BRANCH  13  14
ATOM     14  C   UNL     1      45.536   3.106   8.020  0.00  0.00    +0.000 A 
ATOM     15  C   UNL     1      45.743   1.760   8.309  0.00  0.00    +0.000 A 
ATOM     16  C   UNL     1      46.864   1.130   7.782  0.00  0.00    +0.000 A 
ATOM     17  C   UNL     1      47.740   1.855   6.984  0.00  0.00    +0.000 A 
ATOM     18  C   UNL     1      47.459   3.190   6.749  0.00  0.00    +0.000 A 
ATOM     19  N   UNL     1      46.378   3.831   7.247  0.00  0.00    +0.000 NA
ENDBRANCH  13  14
ENDBRANCH  10  13
ENDBRANCH   8  10
ENDBRANCH   7   8
ENDBRANCH   1   7
BRANCH   4  20
ATOM     20  C   UNL     1      48.535   6.439  14.502  0.00  0.00    +0.000 C 
BRANCH  20  21
ATOM     21  N   UNL     1      48.383   6.303  15.924  0.00  0.00    +0.000 N 
ATOM     22  C   UNL     1      49.461   6.100  16.742  0.00  0.00    +0.000 C 
ATOM     23  O   UNL     1      50.616   6.116  16.325  0.00  0.00    +0.000 OA
ATOM     24  H   UNL     1      47.457   6.052  16.253  0.00  0.00    +0.000 HD
BRANCH  22  25
ATOM     25  C   UNL     1      49.157   5.929  18.167  0.00  0.00    +0.000 A 
ATOM     26  C   UNL     1      49.487   4.746  18.811  0.00  0.00    +0.000 A 
ATOM     27  S   UNL     1      49.136   4.762  20.480  0.00  0.00    +0.000 S 
ATOM     28  C   UNL     1      48.482   6.332  20.387  0.00  0.00    +0.000 A 
ATOM     29  N   UNL     1      47.990   6.956  21.490  0.00  0.00    +0.000 NA
ATOM     30  C   UNL     1      47.507   8.131  21.268  0.00  0.00    +0.000 A 
ATOM     31  N   UNL     1      47.464   8.740  20.039  0.00  0.00    +0.000 N 
ATOM     32  C   UNL     1      47.962   8.157  18.902  0.00  0.00    +0.000 A 
ATOM     33  O   UNL     1      47.926   8.737  17.824  0.00  0.00    +0.000 OA
ATOM     34  C   UNL     1      48.533   6.836  19.100  0.00  0.00    +0.000 A 
ATOM     35  H   UNL     1      47.069   9.662  19.931  0.00  0.00    +0.000 HD
ENDBRANCH  22  25
ENDBRANCH  20  21
ENDBRANCH   4  20
TORSDOF 9
ENDMDL
MODEL 5
REMARK VINA RESULT:    -7.791      1.226      1.701
REMARK INTER + INTRA:         -12.607
REMARK INTER:                 -11.560
REMARK INTRA:                  -1.047
REMARK UNBOUND:                -0.717
REMARK  Name = 
REMARK  9 active torsions:
REMARK  status: ('A' for Active; 'I' for Inactive)
REMARK    1  A    between atoms: C_2  and  C_3
REMARK    2  A    between atoms: C_3  and  C_4
REMARK    3  A    between atoms: C_3  and  N_11
REMARK    4  A    between atoms: C_4  and  C_5
REMARK    5  A    between atoms: N_11  and  C_12
REMARK    6  A    between atoms: C_12  and  C_13
REMARK    7  A    between atoms: C_16  and  C_17
REMARK    8  A    between atoms: C_17  and  N_18
REMARK    9  A    between atoms: C_19  and  C_21
REMARK                            x       y       z     vdW  Elec       q    Type
REMARK                         _______ _______ _______ _____ _____    ______ ____
ROOT
ATOM      1  C   UNL     1      45.455   6.563  12.478  0.00  0.00    +0.000 A 
ATOM      2  C   UNL     1      46.614   5.861  12.829  0.00  0.00    +0.000 A 
ATOM      3  C   UNL     1      47.716   6.535  13.356  0.00  0.00    +0.000 A 
ATOM      4  C   UNL     1      47.680   7.923  13.533  0.00  0.00    +0.000 A 
ATOM      5  C   UNL     1      46.552   8.635  13.107  0.00  0.00    +0.000 A 
ATOM      6  C   UNL     1      45.443   7.960  12.595  0.00  0.00    +0.000 A 
ENDROOT
BRANCH   1   7
ATOM      7  C   UNL     1      44.228   5.832  11.989  0.00  0.00    +0.000 C 
BRANCH   7   8
ATOM      8  N   UNL     1      44.304   5.600  10.544  0.00  0.00    +0.000 NA
ATOM      9  H   UNL     1      43.399   5.814  10.128  0.00  0.00    +0.000 HD
BRANCH   8  10
ATOM     10  C   UNL     1      44.660   4.205  10.205  0.00  0.00    +0.000 C 
BRANCH  10  12
ATOM     11  N   UNL     1      43.053   2.419  11.603  0.00  0.00    +0.000 NA
ATOM     12  C   UNL     1      43.782   3.229  10.969  0.00  0.00    +0.000 C 
ENDBRANCH  10  12
BRANCH  10  13
ATOM     13  C   UNL     1      44.444   3.935   8.696  0.00  0.00    +0.000 C 
BRANCH  13  14
ATOM     14  C   UNL     1      45.569   3.161   8.062  0.00  0.00    +0.000 A 
ATOM     15  C   UNL     1      45.788   1.827   8.396  0.00  0.00    +0.000 A 
ATOM     16  C   UNL     1      46.810   1.138   7.753  0.00  0.00    +0.000 A 
ATOM     17  C   UNL     1      47.577   1.793   6.799  0.00  0.00    +0.000 A 
ATOM     18  C   UNL     1      47.292   3.121   6.529  0.00  0.00    +0.000 A 
ATOM     19  N   UNL     1      46.307   3.818   7.137  0.00  0.00    +0.000 NA
ENDBRANCH  13  14
ENDBRANCH  10  13
ENDBRANCH   8  10
ENDBRANCH   7   8
ENDBRANCH   1   7
BRANCH   4  20
ATOM     20  C   UNL     1      48.850   8.648  14.137  0.00  0.00    +0.000 C 
BRANCH  20  21
ATOM     21  N   UNL     1      48.956   8.354  15.539  0.00  0.00    +0.000 N 
ATOM     22  C   UNL     1      49.989   7.607  16.036  0.00  0.00    +0.000 C 
ATOM     23  O   UNL     1      50.924   7.228  15.336  0.00  0.00    +0.000 OA
ATOM     24  H   UNL     1      48.104   8.445  16.080  0.00  0.00    +0.000 HD
BRANCH  22  25
ATOM     25  C   UNL     1      49.948   7.342  17.478  0.00  0.00    +0.000 A 
ATOM     26  C   UNL     1      50.394   8.302  18.373  0.00  0.00    +0.000 A 
ATOM     27  S   UNL     1      50.191   7.852  20.007  0.00  0.00    +0.000 S 
ATOM     28  C   UNL     1      49.549   6.336  19.570  0.00  0.00    +0.000 A 
ATOM     29  N   UNL     1      49.158   5.440  20.514  0.00  0.00    +0.000 NA
ATOM     30  C   UNL     1      48.713   4.326  20.040  0.00  0.00    +0.000 A 
ATOM     31  N   UNL     1      48.627   4.022  18.705  0.00  0.00    +0.000 N 
ATOM     32  C   UNL     1      48.994   4.899  17.717  0.00  0.00    +0.000 A 
ATOM     33  O   UNL     1      48.887   4.603  16.534  0.00  0.00    +0.000 OA
ATOM     34  C   UNL     1      49.490   6.177  18.197  0.00  0.00    +0.000 A 
ATOM     35  H   UNL     1      48.271   3.129  18.398  0.00  0.00    +0.000 HD
ENDBRANCH  22  25
ENDBRANCH  20  21
ENDBRANCH   4  20
TORSDOF 9
ENDMDL
MODEL 6
REMARK VINA RESULT:    -7.700      1.961      2.195
REMARK INTER + INTRA:         -12.469
REMARK INTER:                 -11.315
REMARK INTRA:                  -1.154
REMARK UNBOUND:                -0.717
REMARK  Name = 
REMARK  9 active torsions:
REMARK  status: ('A' for Active; 'I' for Inactive)
REMARK    1  A    between atoms: C_2  and  C_3
REMARK    2  A    between atoms: C_3  and  C_4
REMARK    3  A    between atoms: C_3  and  N_11
REMARK    4  A    between atoms: C_4  and  C_5
REMARK    5  A    between atoms: N_11  and  C_12
REMARK    6  A    between atoms: C_12  and  C_13
REMARK    7  A    between atoms: C_16  and  C_17
REMARK    8  A    between atoms: C_17  and  N_18
REMARK    9  A    between atoms: C_19  and  C_21
REMARK                            x       y       z     vdW  Elec       q    Type
REMARK                         _______ _______ _______ _____ _____    ______ ____
ROOT
ATOM      1  C   UNL     1      45.804   6.654  12.231  0.00  0.00    +0.000 A 
ATOM      2  C   UNL     1      46.018   8.029  12.080  0.00  0.00    +0.000 A 
ATOM      3  C   UNL     1      47.288   8.573  12.279  0.00  0.00    +0.000 A 
ATOM      4  C   UNL     1      48.362   7.750  12.638  0.00  0.00    +0.000 A 
ATOM      5  C   UNL     1      48.132   6.389  12.867  0.00  0.00    +0.000 A 
ATOM      6  C   UNL     1      46.866   5.842  12.653  0.00  0.00    +0.000 A 
ENDROOT
BRANCH   1   7
ATOM      7  C   UNL     1      44.455   6.047  11.934  0.00  0.00    +0.000 C 
BRANCH   7   8
ATOM      8  N   UNL     1      44.344   5.695  10.515  0.00  0.00    +0.000 NA
ATOM      9  H   UNL     1      43.386   5.856  10.209  0.00  0.00    +0.000 HD
BRANCH   8  10
ATOM     10  C   UNL     1      44.695   4.284  10.246  0.00  0.00    +0.000 C 
BRANCH  10  12
ATOM     11  N   UNL     1      43.161   2.580  11.819  0.00  0.00    +0.000 NA
ATOM     12  C   UNL     1      43.857   3.353  11.105  0.00  0.00    +0.000 C 
ENDBRANCH  10  12
BRANCH  10  13
ATOM     13  C   UNL     1      44.415   3.922   8.767  0.00  0.00    +0.000 C 
BRANCH  13  14
ATOM     14  C   UNL     1      45.565   3.218   8.098  0.00  0.00    +0.000 A 
ATOM     15  C   UNL     1      45.790   1.862   8.317  0.00  0.00    +0.000 A 
ATOM     16  C   UNL     1      46.837   1.242   7.644  0.00  0.00    +0.000 A 
ATOM     17  C   UNL     1      47.622   1.987   6.773  0.00  0.00    +0.000 A 
ATOM     18  C   UNL     1      47.329   3.331   6.615  0.00  0.00    +0.000 A 
ATOM     19  N   UNL     1      46.320   3.962   7.255  0.00  0.00    +0.000 NA
ENDBRANCH  13  14
ENDBRANCH  10  13
ENDBRANCH   8  10
ENDBRANCH   7   8
ENDBRANCH   1   7
BRANCH   4  20
ATOM     20  C   UNL     1      49.741   8.326  12.814  0.00  0.00    +0.000 C 
BRANCH  20  21
ATOM     21  N   UNL     1      50.505   7.531  13.734  0.00  0.00    +0.000 N 
ATOM     22  C   UNL     1      50.720   7.939  15.023  0.00  0.00    +0.000 C 
ATOM     23  O   UNL     1      50.201   8.950  15.489  0.00  0.00    +0.000 OA
ATOM     24  H   UNL     1      51.123   6.841  13.323  0.00  0.00    +0.000 HD
BRANCH  22  25
ATOM     25  C   UNL     1      51.559   7.056  15.840  0.00  0.00    +0.000 A 
ATOM     26  C   UNL     1      52.940   7.151  15.772  0.00  0.00    +0.000 A 
ATOM     27  S   UNL     1      53.746   6.105  16.853  0.00  0.00    +0.000 S 
ATOM     28  C   UNL     1      52.275   5.452  17.409  0.00  0.00    +0.000 A 
ATOM     29  N   UNL     1      52.251   4.486  18.364  0.00  0.00    +0.000 NA
ATOM     30  C   UNL     1      51.070   4.068  18.672  0.00  0.00    +0.000 A 
ATOM     31  N   UNL     1      49.907   4.526  18.107  0.00  0.00    +0.000 N 
ATOM     32  C   UNL     1      49.879   5.510  17.152  0.00  0.00    +0.000 A 
ATOM     33  O   UNL     1      48.822   5.908  16.682  0.00  0.00    +0.000 OA
ATOM     34  C   UNL     1      51.185   6.025  16.779  0.00  0.00    +0.000 A 
ATOM     35  H   UNL     1      49.012   4.155  18.391  0.00  0.00    +0.000 HD
ENDBRANCH  22  25
ENDBRANCH  20  21
ENDBRANCH   4  20
TORSDOF 9
ENDMDL
MODEL 7
REMARK VINA RESULT:    -7.328      2.876      8.428
REMARK INTER + INTRA:         -11.901
REMARK INTER:                  -9.882
REMARK INTRA:                  -2.019
REMARK UNBOUND:                -0.717
REMARK  Name = 
REMARK  9 active torsions:
REMARK  status: ('A' for Active; 'I' for Inactive)
REMARK    1  A    between atoms: C_2  and  C_3
REMARK    2  A    between atoms: C_3  and  C_4
REMARK    3  A    between atoms: C_3  and  N_11
REMARK    4  A    between atoms: C_4  and  C_5
REMARK    5  A    between atoms: N_11  and  C_12
REMARK    6  A    between atoms: C_12  and  C_13
REMARK    7  A    between atoms: C_16  and  C_17
REMARK    8  A    between atoms: C_17  and  N_18
REMARK    9  A    between atoms: C_19  and  C_21
REMARK                            x       y       z     vdW  Elec       q    Type
REMARK                         _______ _______ _______ _____ _____    ______ ____
ROOT
ATOM      1  C   UNL     1      49.097   7.957  16.189  0.00  0.00    +0.000 A 
ATOM      2  C   UNL     1      49.463   6.897  15.351  0.00  0.00    +0.000 A 
ATOM      3  C   UNL     1      48.992   6.838  14.039  0.00  0.00    +0.000 A 
ATOM      4  C   UNL     1      48.143   7.836  13.546  0.00  0.00    +0.000 A 
ATOM      5  C   UNL     1      47.713   8.853  14.407  0.00  0.00    +0.000 A 
ATOM      6  C   UNL     1      48.196   8.921  15.715  0.00  0.00    +0.000 A 
ENDROOT
BRANCH   1   7
ATOM      7  C   UNL     1      49.670   8.073  17.580  0.00  0.00    +0.000 C 
BRANCH   7   8
ATOM      8  N   UNL     1      48.599   8.142  18.579  0.00  0.00    +0.000 NA
ATOM      9  H   UNL     1      48.806   8.893  19.235  0.00  0.00    +0.000 HD
BRANCH   8  10
ATOM     10  C   UNL     1      48.442   6.883  19.338  0.00  0.00    +0.000 C 
BRANCH  10  12
ATOM     11  N   UNL     1      47.700   7.413  21.965  0.00  0.00    +0.000 NA
ATOM     12  C   UNL     1      48.036   7.172  20.774  0.00  0.00    +0.000 C 
ENDBRANCH  10  12
BRANCH  10  13
ATOM     13  C   UNL     1      47.331   6.001  18.716  0.00  0.00    +0.000 C 
BRANCH  13  14
ATOM     14  C   UNL     1      47.862   4.770  18.031  0.00  0.00    +0.000 A 
ATOM     15  C   UNL     1      47.213   4.244  16.917  0.00  0.00    +0.000 A 
ATOM     16  C   UNL     1      47.763   3.133  16.288  0.00  0.00    +0.000 A 
ATOM     17  C   UNL     1      48.940   2.584  16.783  0.00  0.00    +0.000 A 
ATOM     18  C   UNL     1      49.518   3.170  17.896  0.00  0.00    +0.000 A 
ATOM     19  N   UNL     1      49.008   4.249  18.529  0.00  0.00    +0.000 NA
ENDBRANCH  13  14
ENDBRANCH  10  13
ENDBRANCH   8  10
ENDBRANCH   7   8
ENDBRANCH   1   7
BRANCH   4  20
ATOM     20  C   UNL     1      47.666   7.799  12.120  0.00  0.00    +0.000 C 
BRANCH  20  21
ATOM     21  N   UNL     1      46.959   6.577  11.857  0.00  0.00    +0.000 N 
ATOM     22  C   UNL     1      45.592   6.519  11.899  0.00  0.00    +0.000 C 
ATOM     23  O   UNL     1      44.896   7.517  12.069  0.00  0.00    +0.000 OA
ATOM     24  H   UNL     1      47.494   5.721  11.951  0.00  0.00    +0.000 HD
BRANCH  22  25
ATOM     25  C   UNL     1      45.002   5.198  11.659  0.00  0.00    +0.000 A 
ATOM     26  C   UNL     1      44.336   4.539  12.681  0.00  0.00    +0.000 A 
ATOM     27  S   UNL     1      43.645   3.056  12.195  0.00  0.00    +0.000 S 
ATOM     28  C   UNL     1      44.258   3.223  10.615  0.00  0.00    +0.000 A 
ATOM     29  N   UNL     1      44.023   2.278   9.666  0.00  0.00    +0.000 NA
ATOM     30  C   UNL     1      44.566   2.524   8.522  0.00  0.00    +0.000 A 
ATOM     31  N   UNL     1      45.329   3.627   8.239  0.00  0.00    +0.000 N 
ATOM     32  C   UNL     1      45.581   4.614   9.158  0.00  0.00    +0.000 A 
ATOM     33  O   UNL     1      46.251   5.596   8.867  0.00  0.00    +0.000 OA
ATOM     34  C   UNL     1      44.979   4.393  10.461  0.00  0.00    +0.000 A 
ATOM     35  H   UNL     1      45.729   3.760   7.322  0.00  0.00    +0.000 HD
ENDBRANCH  22  25
ENDBRANCH  20  21
ENDBRANCH   4  20
TORSDOF 9
ENDMDL
MODEL 8
REMARK VINA RESULT:    -7.176      3.664      9.468
REMARK INTER + INTRA:         -11.669
REMARK INTER:                  -8.994
REMARK INTRA:                  -2.675
REMARK UNBOUND:                -0.717
REMARK  Name = 
REMARK  9 active torsions:
REMARK  status: ('A' for Active; 'I' for Inactive)
REMARK    1  A    between atoms: C_2  and  C_3
REMARK    2  A    between atoms: C_3  and  C_4
REMARK    3  A    between atoms: C_3  and  N_11
REMARK    4  A    between atoms: C_4  and  C_5
REMARK    5  A    between atoms: N_11  and  C_12
REMARK    6  A    between atoms: C_12  and  C_13
REMARK    7  A    between atoms: C_16  and  C_17
REMARK    8  A    between atoms: C_17  and  N_18
REMARK    9  A    between atoms: C_19  and  C_21
REMARK                            x       y       z     vdW  Elec       q    Type
REMARK                         _______ _______ _______ _____ _____    ______ ____
ROOT
ATOM      1  C   UNL     1      48.502   5.748  20.315  0.00  0.00    +0.000 A 
ATOM      2  C   UNL     1      49.244   4.646  19.873  0.00  0.00    +0.000 A 
ATOM      3  C   UNL     1      48.860   3.949  18.727  0.00  0.00    +0.000 A 
ATOM      4  C   UNL     1      47.724   4.340  18.008  0.00  0.00    +0.000 A 
ATOM      5  C   UNL     1      46.937   5.391  18.494  0.00  0.00    +0.000 A 
ATOM      6  C   UNL     1      47.329   6.098  19.631  0.00  0.00    +0.000 A 
ENDROOT
BRANCH   1   7
ATOM      7  C   UNL     1      48.959   6.559  21.503  0.00  0.00    +0.000 C 
BRANCH   7   8
ATOM      8  N   UNL     1      49.117   7.970  21.139  0.00  0.00    +0.000 NA
ATOM      9  H   UNL     1      48.808   8.099  20.177  0.00  0.00    +0.000 HD
BRANCH   8  10
ATOM     10  C   UNL     1      50.515   8.437  21.253  0.00  0.00    +0.000 C 
BRANCH  10  12
ATOM     11  N   UNL     1      52.230   6.292  21.690  0.00  0.00    +0.000 NA
ATOM     12  C   UNL     1      51.452   7.265  21.492  0.00  0.00    +0.000 C 
ENDBRANCH  10  12
BRANCH  10  13
ATOM     13  C   UNL     1      50.970   9.131  19.946  0.00  0.00    +0.000 C 
BRANCH  13  14
ATOM     14  C   UNL     1      50.265   8.614  18.721  0.00  0.00    +0.000 A 
ATOM     15  C   UNL     1      50.781   7.535  18.008  0.00  0.00    +0.000 A 
ATOM     16  C   UNL     1      50.073   7.062  16.909  0.00  0.00    +0.000 A 
ATOM     17  C   UNL     1      48.876   7.672  16.557  0.00  0.00    +0.000 A 
ATOM     18  C   UNL     1      48.436   8.740  17.320  0.00  0.00    +0.000 A 
ATOM     19  N   UNL     1      49.102   9.223  18.392  0.00  0.00    +0.000 NA
ENDBRANCH  13  14
ENDBRANCH  10  13
ENDBRANCH   8  10
ENDBRANCH   7   8
ENDBRANCH   1   7
BRANCH   4  20
ATOM     20  C   UNL     1      47.329   3.617  16.750  0.00  0.00    +0.000 C 
BRANCH  20  21
ATOM     21  N   UNL     1      46.800   4.539  15.784  0.00  0.00    +0.000 N 
ATOM     22  C   UNL     1      46.823   4.261  14.444  0.00  0.00    +0.000 C 
ATOM     23  O   UNL     1      47.207   3.181  14.002  0.00  0.00    +0.000 OA
ATOM     24  H   UNL     1      46.704   5.500  16.089  0.00  0.00    +0.000 HD
BRANCH  22  25
ATOM     25  C   UNL     1      46.295   5.310  13.566  0.00  0.00    +0.000 A 
ATOM     26  C   UNL     1      47.061   6.432  13.285  0.00  0.00    +0.000 A 
ATOM     27  S   UNL     1      46.318   7.502  12.182  0.00  0.00    +0.000 S 
ATOM     28  C   UNL     1      44.926   6.526  12.085  0.00  0.00    +0.000 A 
ATOM     29  N   UNL     1      43.878   6.874  11.292  0.00  0.00    +0.000 NA
ATOM     30  C   UNL     1      42.882   6.054  11.333  0.00  0.00    +0.000 A 
ATOM     31  N   UNL     1      42.835   4.918  12.100  0.00  0.00    +0.000 N 
ATOM     32  C   UNL     1      43.873   4.518  12.903  0.00  0.00    +0.000 A 
ATOM     33  O   UNL     1      43.806   3.488  13.560  0.00  0.00    +0.000 OA
ATOM     34  C   UNL     1      45.027   5.400  12.882  0.00  0.00    +0.000 A 
ATOM     35  H   UNL     1      42.024   4.319  12.090  0.00  0.00    +0.000 HD
ENDBRANCH  22  25
ENDBRANCH  20  21
ENDBRANCH   4  20
TORSDOF 9
ENDMDL
MODEL 9
REMARK VINA RESULT:    -7.131      5.184      7.138
REMARK INTER + INTRA:         -11.600
REMARK INTER:                 -10.256
REMARK INTRA:                  -1.343
REMARK UNBOUND:                -0.717
REMARK  Name = 
REMARK  9 active torsions:
REMARK  status: ('A' for Active; 'I' for Inactive)
REMARK    1  A    between atoms: C_2  and  C_3
REMARK    2  A    between atoms: C_3  and  C_4
REMARK    3  A    between atoms: C_3  and  N_11
REMARK    4  A    between atoms: C_4  and  C_5
REMARK    5  A    between atoms: N_11  and  C_12
REMARK    6  A    between atoms: C_12  and  C_13
REMARK    7  A    between atoms: C_16  and  C_17
REMARK    8  A    between atoms: C_17  and  N_18
REMARK    9  A    between atoms: C_19  and  C_21
REMARK                            x       y       z     vdW  Elec       q    Type
REMARK                         _______ _______ _______ _____ _____    ______ ____
ROOT
ATOM      1  C   UNL     1      47.180   7.545  12.710  0.00  0.00    +0.000 A 
ATOM      2  C   UNL     1      48.014   7.917  13.771  0.00  0.00    +0.000 A 
ATOM      3  C   UNL     1      49.365   8.185  13.548  0.00  0.00    +0.000 A 
ATOM      4  C   UNL     1      49.906   8.079  12.261  0.00  0.00    +0.000 A 
ATOM      5  C   UNL     1      49.091   7.629  11.215  0.00  0.00    +0.000 A 
ATOM      6  C   UNL     1      47.737   7.376  11.433  0.00  0.00    +0.000 A 
ENDROOT
BRANCH   1   7
ATOM      7  C   UNL     1      45.702   7.337  12.927  0.00  0.00    +0.000 C 
BRANCH   7   8
ATOM      8  N   UNL     1      45.449   6.052  13.585  0.00  0.00    +0.000 NA
ATOM      9  H   UNL     1      45.910   6.051  14.494  0.00  0.00    +0.000 HD
BRANCH   8  10
ATOM     10  C   UNL     1      45.944   4.900  12.803  0.00  0.00    +0.000 C 
BRANCH  10  12
ATOM     11  N   UNL     1      47.408   3.177  14.422  0.00  0.00    +0.000 NA
ATOM     12  C   UNL     1      46.744   3.959  13.688  0.00  0.00    +0.000 C 
ENDBRANCH  10  12
BRANCH  10  13
ATOM     13  C   UNL     1      44.764   4.087  12.216  0.00  0.00    +0.000 C 
BRANCH  13  14
ATOM     14  C   UNL     1      44.882   3.852  10.734  0.00  0.00    +0.000 A 
ATOM     15  C   UNL     1      45.388   4.843   9.897  0.00  0.00    +0.000 A 
ATOM     16  C   UNL     1      45.522   4.567   8.541  0.00  0.00    +0.000 A 
ATOM     17  C   UNL     1      45.153   3.316   8.062  0.00  0.00    +0.000 A 
ATOM     18  C   UNL     1      44.659   2.389   8.964  0.00  0.00    +0.000 A 
ATOM     19  N   UNL     1      44.516   2.628  10.286  0.00  0.00    +0.000 NA
ENDBRANCH  13  14
ENDBRANCH  10  13
ENDBRANCH   8  10
ENDBRANCH   7   8
ENDBRANCH   1   7
BRANCH   4  20
ATOM     20  C   UNL     1      51.352   8.406  12.009  0.00  0.00    +0.000 C 
BRANCH  20  21
ATOM     21  N   UNL     1      51.722   8.052  10.668  0.00  0.00    +0.000 N 
ATOM     22  C   UNL     1      52.785   8.644  10.040  0.00  0.00    +0.000 C 
ATOM     23  O   UNL     1      53.531   9.433  10.613  0.00  0.00    +0.000 OA
ATOM     24  H   UNL     1      51.006   7.601  10.110  0.00  0.00    +0.000 HD
BRANCH  22  25
ATOM     25  C   UNL     1      53.022   8.225   8.655  0.00  0.00    +0.000 A 
ATOM     26  C   UNL     1      52.911   9.144   7.623  0.00  0.00    +0.000 A 
ATOM     27  S   UNL     1      53.304   8.497   6.093  0.00  0.00    +0.000 S 
ATOM     28  C   UNL     1      53.584   6.953   6.754  0.00  0.00    +0.000 A 
ATOM     29  N   UNL     1      53.963   5.910   5.969  0.00  0.00    +0.000 NA
ATOM     30  C   UNL     1      54.118   4.795   6.600  0.00  0.00    +0.000 A 
ATOM     31  N   UNL     1      53.921   4.625   7.947  0.00  0.00    +0.000 N 
ATOM     32  C   UNL     1      53.554   5.650   8.782  0.00  0.00    +0.000 A 
ATOM     33  O   UNL     1      53.406   5.467   9.983  0.00  0.00    +0.000 OA
ATOM     34  C   UNL     1      53.381   6.933   8.123  0.00  0.00    +0.000 A 
ATOM     35  H   UNL     1      54.057   3.724   8.381  0.00  0.00    +0.000 HD
ENDBRANCH  22  25
ENDBRANCH  20  21
ENDBRANCH   4  20
TORSDOF 9
ENDMDL
