MODEL 1
REMARK VINA RESULT:    -8.189      0.000      0.000
REMARK INTER + INTRA:         -11.418
REMARK INTER:                 -10.343
REMARK INTRA:                  -1.075
REMARK UNBOUND:                -1.075
REMARK  Name = 
REMARK  5 active torsions:
REMARK  status: ('A' for Active; 'I' for Inactive)
REMARK    1  A    between atoms: C_2  and  C_3
REMARK    2  A    between atoms: C_8  and  O_9
REMARK    3  A    between atoms: O_9  and  C_10
REMARK    4  A    between atoms: C_10  and  C_11
REMARK    5  A    between atoms: C_22  and  O_23
REMARK                            x       y       z     vdW  Elec       q    Type
REMARK                         _______ _______ _______ _____ _____    ______ ____
ROOT
ATOM      1  C   UNL     1      44.192   5.496  11.468  0.00  0.00    +0.000 A 
ATOM      2  N   UNL     1      44.611   4.893  10.315  0.00  0.00    +0.000 NA
ATOM      3  C   UNL     1      44.338   3.583  10.101  0.00  0.00    +0.000 A 
ATOM      4  N   UNL     1      44.735   3.004   8.914  0.00  0.00    +0.000 N 
ATOM      5  C   UNL     1      44.972   1.574   8.746  0.00  0.00    +0.000 C 
ATOM      6  C   UNL     1      46.396   1.342   8.240  0.00  0.00    +0.000 C 
ATOM      7  C   UNL     1      46.699   2.172   6.995  0.00  0.00    +0.000 C 
ATOM      8  C   UNL     1      46.394   3.650   7.237  0.00  0.00    +0.000 C 
ATOM      9  C   UNL     1      44.966   3.844   7.741  0.00  0.00    +0.000 C 
ATOM     10  C   UNL     1      43.635   2.859  11.065  0.00  0.00    +0.000 A 
ATOM     11  C   UNL     1      43.199   3.468  12.241  0.00  0.00    +0.000 A 
ATOM     12  C   UNL     1      43.479   4.807  12.444  0.00  0.00    +0.000 A 
ENDROOT
BRANCH  12  13
ATOM     13  O   UNL     1      43.017   5.448  13.556  0.00  0.00    +0.000 OA
ATOM     14  H   UNL     1      43.156   6.404  13.447  0.00  0.00    +0.000 HD
ENDBRANCH  12  13
BRANCH   1  15
ATOM     15  C   UNL     1      44.444   6.983  11.611  0.00  0.00    +0.000 C 
BRANCH  15  16
ATOM     16  O   UNL     1      45.210   7.290  12.780  0.00  0.00    +0.000 OA
BRANCH  16  22
ATOM     17  C   UNL     1      47.383   6.094  13.239  0.00  0.00    +0.000 A 
ATOM     18  N   UNL     1      48.745   6.084  13.117  0.00  0.00    +0.000 NA
ATOM     19  C   UNL     1      49.328   7.129  12.499  0.00  0.00    +0.000 A 
ATOM     20  C   UNL     1      48.620   8.196  11.990  0.00  0.00    +0.000 A 
ATOM     21  C   UNL     1      47.231   8.187  12.122  0.00  0.00    +0.000 A 
ATOM     22  C   UNL     1      46.570   7.124  12.753  0.00  0.00    +0.000 A 
BRANCH  17  24
ATOM     23  N   UNL     1      46.528   3.963  14.458  0.00  0.00    +0.000 NA
ATOM     24  C   UNL     1      46.907   4.925  13.921  0.00  0.00    +0.000 C 
ENDBRANCH  17  24
ENDBRANCH  16  22
ENDBRANCH  15  16
ENDBRANCH   1  15
TORSDOF 5
ENDMDL
MODEL 2
REMARK VINA RESULT:    -7.054      1.540      2.252
REMARK INTER + INTRA:          -9.985
REMARK INTER:                  -9.233
REMARK INTRA:                  -0.752
REMARK UNBOUND:                -1.075
REMARK  Name = 
REMARK  5 active torsions:
REMARK  status: ('A' for Active; 'I' for Inactive)
REMARK    1  A    between atoms: C_2  and  C_3
REMARK    2  A    between atoms: C_8  and  O_9
REMARK    3  A    between atoms: O_9  and  C_10
REMARK    4  A    between atoms: C_10  and  C_11
REMARK    5  A    between atoms: C_22  and  O_23
REMARK                            x       y       z     vdW  Elec       q    Type
REMARK                         _______ _______ _______ _____ _____    ______ ____
ROOT
ATOM      1  C   UNL     1      44.195   5.499  11.455  0.00  0.00    +0.000 A 
ATOM      2  N   UNL     1      44.626   4.902  10.304  0.00  0.00    +0.000 NA
ATOM      3  C   UNL     1      44.357   3.593  10.081  0.00  0.00    +0.000 A 
ATOM      4  N   UNL     1      44.766   3.020   8.895  0.00  0.00    +0.000 N 
ATOM      5  C   UNL     1      45.006   1.592   8.723  0.00  0.00    +0.000 C 
ATOM      6  C   UNL     1      46.436   1.364   8.228  0.00  0.00    +0.000 C 
ATOM      7  C   UNL     1      46.749   2.201   6.991  0.00  0.00    +0.000 C 
ATOM      8  C   UNL     1      46.439   3.677   7.236  0.00  0.00    +0.000 C 
ATOM      9  C   UNL     1      45.007   3.866   7.728  0.00  0.00    +0.000 C 
ATOM     10  C   UNL     1      43.645   2.863  11.034  0.00  0.00    +0.000 A 
ATOM     11  C   UNL     1      43.198   3.466  12.209  0.00  0.00    +0.000 A 
ATOM     12  C   UNL     1      43.474   4.805  12.422  0.00  0.00    +0.000 A 
ENDROOT
BRANCH  12  13
ATOM     13  O   UNL     1      43.000   5.440  13.532  0.00  0.00    +0.000 OA
ATOM     14  H   UNL     1      42.483   6.214  13.254  0.00  0.00    +0.000 HD
ENDBRANCH  12  13
BRANCH   1  15
ATOM     15  C   UNL     1      44.444   6.986  11.608  0.00  0.00    +0.000 C 
BRANCH  15  16
ATOM     16  O   UNL     1      45.276   7.280  12.734  0.00  0.00    +0.000 OA
BRANCH  16  22
ATOM     17  C   UNL     1      47.080   8.957  12.188  0.00  0.00    +0.000 A 
ATOM     18  N   UNL     1      48.414   9.207  12.025  0.00  0.00    +0.000 NA
ATOM     19  C   UNL     1      49.271   8.183  12.196  0.00  0.00    +0.000 A 
ATOM     20  C   UNL     1      48.866   6.906  12.524  0.00  0.00    +0.000 A 
ATOM     21  C   UNL     1      47.501   6.671  12.688  0.00  0.00    +0.000 A 
ATOM     22  C   UNL     1      46.563   7.701  12.525  0.00  0.00    +0.000 A 
BRANCH  17  24
ATOM     23  N   UNL     1      45.634  11.081  11.793  0.00  0.00    +0.000 NA
ATOM     24  C   UNL     1      46.292  10.136  11.969  0.00  0.00    +0.000 C 
ENDBRANCH  17  24
ENDBRANCH  16  22
ENDBRANCH  15  16
ENDBRANCH   1  15
TORSDOF 5
ENDMDL
MODEL 3
REMARK VINA RESULT:    -7.013      1.147      1.518
REMARK INTER + INTRA:          -9.933
REMARK INTER:                  -9.301
REMARK INTRA:                  -0.632
REMARK UNBOUND:                -1.075
REMARK  Name = 
REMARK  5 active torsions:
REMARK  status: ('A' for Active; 'I' for Inactive)
REMARK    1  A    between atoms: C_2  and  C_3
REMARK    2  A    between atoms: C_8  and  O_9
REMARK    3  A    between atoms: O_9  and  C_10
REMARK    4  A    between atoms: C_10  and  C_11
REMARK    5  A    between atoms: C_22  and  O_23
REMARK                            x       y       z     vdW  Elec       q    Type
REMARK                         _______ _______ _______ _____ _____    ______ ____
ROOT
ATOM      1  C   UNL     1      44.217   5.463  11.448  0.00  0.00    +0.000 A 
ATOM      2  N   UNL     1      44.648   4.867  10.296  0.00  0.00    +0.000 NA
ATOM      3  C   UNL     1      44.375   3.559  10.071  0.00  0.00    +0.000 A 
ATOM      4  N   UNL     1      44.784   2.986   8.884  0.00  0.00    +0.000 N 
ATOM      5  C   UNL     1      45.019   1.557   8.710  0.00  0.00    +0.000 C 
ATOM      6  C   UNL     1      46.449   1.325   8.218  0.00  0.00    +0.000 C 
ATOM      7  C   UNL     1      46.768   2.163   6.983  0.00  0.00    +0.000 C 
ATOM      8  C   UNL     1      46.463   3.640   7.230  0.00  0.00    +0.000 C 
ATOM      9  C   UNL     1      45.030   3.833   7.720  0.00  0.00    +0.000 C 
ATOM     10  C   UNL     1      43.659   2.830  11.021  0.00  0.00    +0.000 A 
ATOM     11  C   UNL     1      43.211   3.433  12.196  0.00  0.00    +0.000 A 
ATOM     12  C   UNL     1      43.491   4.770  12.412  0.00  0.00    +0.000 A 
ENDROOT
BRANCH  12  13
ATOM     13  O   UNL     1      43.018   5.404  13.522  0.00  0.00    +0.000 OA
ATOM     14  H   UNL     1      42.969   6.358  13.341  0.00  0.00    +0.000 HD
ENDBRANCH  12  13
BRANCH   1  15
ATOM     15  C   UNL     1      44.470   6.949  11.603  0.00  0.00    +0.000 C 
BRANCH  15  16
ATOM     16  O   UNL     1      45.165   7.253  12.816  0.00  0.00    +0.000 OA
BRANCH  16  22
ATOM     17  C   UNL     1      47.478   8.131  13.309  0.00  0.00    +0.000 A 
ATOM     18  N   UNL     1      48.375   9.156  13.190  0.00  0.00    +0.000 NA
ATOM     19  C   UNL     1      47.975  10.269  12.548  0.00  0.00    +0.000 A 
ATOM     20  C   UNL     1      46.714  10.419  12.010  0.00  0.00    +0.000 A 
ATOM     21  C   UNL     1      45.813   9.361  12.140  0.00  0.00    +0.000 A 
ATOM     22  C   UNL     1      46.177   8.177  12.796  0.00  0.00    +0.000 A 
BRANCH  17  24
ATOM     23  N   UNL     1      48.496   6.127  14.615  0.00  0.00    +0.000 NA
ATOM     24  C   UNL     1      48.041   7.018  14.019  0.00  0.00    +0.000 C 
ENDBRANCH  17  24
ENDBRANCH  16  22
ENDBRANCH  15  16
ENDBRANCH   1  15
TORSDOF 5
ENDMDL
MODEL 4
REMARK VINA RESULT:    -6.736      2.653      3.682
REMARK INTER + INTRA:          -9.584
REMARK INTER:                  -8.976
REMARK INTRA:                  -0.607
REMARK UNBOUND:                -1.075
REMARK  Name = 
REMARK  5 active torsions:
REMARK  status: ('A' for Active; 'I' for Inactive)
REMARK    1  A    between atoms: C_2  and  C_3
REMARK    2  A    between atoms: C_8  and  O_9
REMARK    3  A    between atoms: O_9  and  C_10
REMARK    4  A    between atoms: C_10  and  C_11
REMARK    5  A    between atoms: C_22  and  O_23
REMARK                            x       y       z     vdW  Elec       q    Type
REMARK                         _______ _______ _______ _____ _____    ______ ____
ROOT
ATOM      1  C   UNL     1      44.789   5.603  11.241  0.00  0.00    +0.000 A 
ATOM      2  N   UNL     1      45.157   4.922  10.115  0.00  0.00    +0.000 NA
ATOM      3  C   UNL     1      44.680   3.672   9.897  0.00  0.00    +0.000 A 
ATOM      4  N   UNL     1      45.031   3.017   8.735  0.00  0.00    +0.000 N 
ATOM      5  C   UNL     1      45.034   1.566   8.589  0.00  0.00    +0.000 C 
ATOM      6  C   UNL     1      46.422   1.092   8.157  0.00  0.00    +0.000 C 
ATOM      7  C   UNL     1      46.920   1.841   6.923  0.00  0.00    +0.000 C 
ATOM      8  C   UNL     1      46.854   3.353   7.139  0.00  0.00    +0.000 C 
ATOM      9  C   UNL     1      45.456   3.789   7.569  0.00  0.00    +0.000 C 
ATOM     10  C   UNL     1      43.819   3.090  10.829  0.00  0.00    +0.000 A 
ATOM     11  C   UNL     1      43.435   3.781  11.977  0.00  0.00    +0.000 A 
ATOM     12  C   UNL     1      43.924   5.058  12.185  0.00  0.00    +0.000 A 
ENDROOT
BRANCH  12  13
ATOM     13  O   UNL     1      43.522   5.784  13.267  0.00  0.00    +0.000 OA
ATOM     14  H   UNL     1      43.405   5.183  14.022  0.00  0.00    +0.000 HD
ENDBRANCH  12  13
BRANCH   1  15
ATOM     15  C   UNL     1      45.278   7.030  11.386  0.00  0.00    +0.000 C 
BRANCH  15  16
ATOM     16  O   UNL     1      44.205   7.975  11.340  0.00  0.00    +0.000 OA
BRANCH  16  22
ATOM     17  C   UNL     1      43.677  10.440  11.244  0.00  0.00    +0.000 A 
ATOM     18  N   UNL     1      44.122  11.724  11.394  0.00  0.00    +0.000 NA
ATOM     19  C   UNL     1      45.411  11.906  11.739  0.00  0.00    +0.000 A 
ATOM     20  C   UNL     1      46.291  10.865  11.947  0.00  0.00    +0.000 A 
ATOM     21  C   UNL     1      45.818   9.562  11.792  0.00  0.00    +0.000 A 
ATOM     22  C   UNL     1      44.484   9.313  11.436  0.00  0.00    +0.000 A 
BRANCH  17  24
ATOM     23  N   UNL     1      41.163  10.381  10.587  0.00  0.00    +0.000 NA
ATOM     24  C   UNL     1      42.292  10.403  10.870  0.00  0.00    +0.000 C 
ENDBRANCH  17  24
ENDBRANCH  16  22
ENDBRANCH  15  16
ENDBRANCH   1  15
TORSDOF 5
ENDMDL
MODEL 5
REMARK VINA RESULT:    -6.088      2.511      3.559
REMARK INTER + INTRA:          -8.765
REMARK INTER:                  -8.195
REMARK INTRA:                  -0.569
REMARK UNBOUND:                -1.075
REMARK  Name = 
REMARK  5 active torsions:
REMARK  status: ('A' for Active; 'I' for Inactive)
REMARK    1  A    between atoms: C_2  and  C_3
REMARK    2  A    between atoms: C_8  and  O_9
REMARK    3  A    between atoms: O_9  and  C_10
REMARK    4  A    between atoms: C_10  and  C_11
REMARK    5  A    between atoms: C_22  and  O_23
REMARK                            x       y       z     vdW  Elec       q    Type
REMARK                         _______ _______ _______ _____ _____    ______ ____
ROOT
ATOM      1  C   UNL     1      45.084   5.803  11.477  0.00  0.00    +0.000 A 
ATOM      2  N   UNL     1      45.351   5.107  10.332  0.00  0.00    +0.000 NA
ATOM      3  C   UNL     1      44.755   3.909  10.115  0.00  0.00    +0.000 A 
ATOM      4  N   UNL     1      45.007   3.242   8.934  0.00  0.00    +0.000 N 
ATOM      5  C   UNL     1      44.872   1.799   8.771  0.00  0.00    +0.000 C 
ATOM      6  C   UNL     1      46.197   1.208   8.286  0.00  0.00    +0.000 C 
ATOM      7  C   UNL     1      46.719   1.927   7.044  0.00  0.00    +0.000 C 
ATOM      8  C   UNL     1      46.798   3.436   7.280  0.00  0.00    +0.000 C 
ATOM      9  C   UNL     1      45.461   3.990   7.764  0.00  0.00    +0.000 C 
ATOM     10  C   UNL     1      43.877   3.394  11.069  0.00  0.00    +0.000 A 
ATOM     11  C   UNL     1      43.595   4.100  12.238  0.00  0.00    +0.000 A 
ATOM     12  C   UNL     1      44.205   5.324  12.444  0.00  0.00    +0.000 A 
ENDROOT
BRANCH  12  13
ATOM     13  O   UNL     1      43.907   6.066  13.548  0.00  0.00    +0.000 OA
ATOM     14  H   UNL     1      44.506   5.811  14.269  0.00  0.00    +0.000 HD
ENDBRANCH  12  13
BRANCH   1  15
ATOM     15  C   UNL     1      45.706   7.177  11.622  0.00  0.00    +0.000 C 
BRANCH  15  16
ATOM     16  O   UNL     1      44.762   8.149  12.082  0.00  0.00    +0.000 OA
BRANCH  16  22
ATOM     17  C   UNL     1      45.492  10.443  11.327  0.00  0.00    +0.000 A 
ATOM     18  N   UNL     1      45.214  11.559  10.589  0.00  0.00    +0.000 NA
ATOM     19  C   UNL     1      44.052  11.590   9.910  0.00  0.00    +0.000 A 
ATOM     20  C   UNL     1      43.140  10.556   9.926  0.00  0.00    +0.000 A 
ATOM     21  C   UNL     1      43.442   9.424  10.683  0.00  0.00    +0.000 A 
ATOM     22  C   UNL     1      44.639   9.336  11.408  0.00  0.00    +0.000 A 
BRANCH  17  24
ATOM     23  N   UNL     1      47.771  10.643  12.562  0.00  0.00    +0.000 NA
ATOM     24  C   UNL     1      46.756  10.556  11.998  0.00  0.00    +0.000 C 
ENDBRANCH  17  24
ENDBRANCH  16  22
ENDBRANCH  15  16
ENDBRANCH   1  15
TORSDOF 5
ENDMDL
MODEL 6
REMARK VINA RESULT:    -6.025      2.715      7.133
REMARK INTER + INTRA:          -8.685
REMARK INTER:                  -8.139
REMARK INTRA:                  -0.546
REMARK UNBOUND:                -1.075
REMARK  Name = 
REMARK  5 active torsions:
REMARK  status: ('A' for Active; 'I' for Inactive)
REMARK    1  A    between atoms: C_2  and  C_3
REMARK    2  A    between atoms: C_8  and  O_9
REMARK    3  A    between atoms: O_9  and  C_10
REMARK    4  A    between atoms: C_10  and  C_11
REMARK    5  A    between atoms: C_22  and  O_23
REMARK                            x       y       z     vdW  Elec       q    Type
REMARK                         _______ _______ _______ _____ _____    ______ ____
ROOT
ATOM      1  C   UNL     1      47.973   6.926  13.399  0.00  0.00    +0.000 A 
ATOM      2  N   UNL     1      47.981   5.989  14.393  0.00  0.00    +0.000 NA
ATOM      3  C   UNL     1      48.524   6.287  15.598  0.00  0.00    +0.000 A 
ATOM      4  N   UNL     1      48.485   5.340  16.601  0.00  0.00    +0.000 N 
ATOM      5  C   UNL     1      49.421   5.301  17.718  0.00  0.00    +0.000 C 
ATOM      6  C   UNL     1      50.122   3.942  17.759  0.00  0.00    +0.000 C 
ATOM      7  C   UNL     1      49.123   2.787  17.745  0.00  0.00    +0.000 C 
ATOM      8  C   UNL     1      48.156   2.916  16.568  0.00  0.00    +0.000 C 
ATOM      9  C   UNL     1      47.477   4.283  16.559  0.00  0.00    +0.000 C 
ATOM     10  C   UNL     1      49.076   7.550  15.812  0.00  0.00    +0.000 A 
ATOM     11  C   UNL     1      49.067   8.515  14.805  0.00  0.00    +0.000 A 
ATOM     12  C   UNL     1      48.505   8.199  13.581  0.00  0.00    +0.000 A 
ENDROOT
BRANCH  12  13
ATOM     13  O   UNL     1      48.428   9.138  12.595  0.00  0.00    +0.000 OA
ATOM     14  H   UNL     1      47.498   9.400  12.484  0.00  0.00    +0.000 HD
ENDBRANCH  12  13
BRANCH   1  15
ATOM     15  C   UNL     1      47.271   6.569  12.105  0.00  0.00    +0.000 C 
BRANCH  15  16
ATOM     16  O   UNL     1      46.604   5.305  12.186  0.00  0.00    +0.000 OA
BRANCH  16  22
ATOM     17  C   UNL     1      44.587   5.034  10.696  0.00  0.00    +0.000 A 
ATOM     18  N   UNL     1      43.224   4.979  10.593  0.00  0.00    +0.000 NA
ATOM     19  C   UNL     1      42.503   5.134  11.719  0.00  0.00    +0.000 A 
ATOM     20  C   UNL     1      43.072   5.342  12.958  0.00  0.00    +0.000 A 
ATOM     21  C   UNL     1      44.464   5.392  13.043  0.00  0.00    +0.000 A 
ATOM     22  C   UNL     1      45.265   5.234  11.903  0.00  0.00    +0.000 A 
BRANCH  17  24
ATOM     23  N   UNL     1      45.751   4.717   8.393  0.00  0.00    +0.000 NA
ATOM     24  C   UNL     1      45.219   4.859   9.419  0.00  0.00    +0.000 C 
ENDBRANCH  17  24
ENDBRANCH  16  22
ENDBRANCH  15  16
ENDBRANCH   1  15
TORSDOF 5
ENDMDL
MODEL 7
REMARK VINA RESULT:    -5.968      4.567      8.453
REMARK INTER + INTRA:          -8.613
REMARK INTER:                  -7.994
REMARK INTRA:                  -0.619
REMARK UNBOUND:                -1.075
REMARK  Name = 
REMARK  5 active torsions:
REMARK  status: ('A' for Active; 'I' for Inactive)
REMARK    1  A    between atoms: C_2  and  C_3
REMARK    2  A    between atoms: C_8  and  O_9
REMARK    3  A    between atoms: O_9  and  C_10
REMARK    4  A    between atoms: C_10  and  C_11
REMARK    5  A    between atoms: C_22  and  O_23
REMARK                            x       y       z     vdW  Elec       q    Type
REMARK                         _______ _______ _______ _____ _____    ______ ____
ROOT
ATOM      1  C   UNL     1      47.696   4.578  16.319  0.00  0.00    +0.000 A 
ATOM      2  N   UNL     1      47.836   5.338  17.446  0.00  0.00    +0.000 NA
ATOM      3  C   UNL     1      48.261   4.765  18.598  0.00  0.00    +0.000 A 
ATOM      4  N   UNL     1      48.434   5.557  19.714  0.00  0.00    +0.000 N 
ATOM      5  C   UNL     1      48.386   5.055  21.082  0.00  0.00    +0.000 C 
ATOM      6  C   UNL     1      47.320   5.814  21.874  0.00  0.00    +0.000 C 
ATOM      7  C   UNL     1      47.506   7.326  21.773  0.00  0.00    +0.000 C 
ATOM      8  C   UNL     1      47.583   7.770  20.313  0.00  0.00    +0.000 C 
ATOM      9  C   UNL     1      48.655   6.993  19.554  0.00  0.00    +0.000 C 
ATOM     10  C   UNL     1      48.548   3.399  18.624  0.00  0.00    +0.000 A 
ATOM     11  C   UNL     1      48.413   2.618  17.476  0.00  0.00    +0.000 A 
ATOM     12  C   UNL     1      47.984   3.216  16.306  0.00  0.00    +0.000 A 
ENDROOT
BRANCH  12  13
ATOM     13  O   UNL     1      47.898   2.494  15.153  0.00  0.00    +0.000 OA
ATOM     14  H   UNL     1      48.523   2.861  14.505  0.00  0.00    +0.000 HD
ENDBRANCH  12  13
BRANCH   1  15
ATOM     15  C   UNL     1      47.307   5.289  15.039  0.00  0.00    +0.000 C 
BRANCH  15  16
ATOM     16  O   UNL     1      46.214   4.647  14.376  0.00  0.00    +0.000 OA
BRANCH  16  22
ATOM     17  C   UNL     1      45.026   4.421  12.163  0.00  0.00    +0.000 A 
ATOM     18  N   UNL     1      44.875   4.871  10.880  0.00  0.00    +0.000 NA
ATOM     19  C   UNL     1      45.659   5.888  10.475  0.00  0.00    +0.000 A 
ATOM     20  C   UNL     1      46.596   6.489  11.289  0.00  0.00    +0.000 A 
ATOM     21  C   UNL     1      46.733   6.018  12.594  0.00  0.00    +0.000 A 
ATOM     22  C   UNL     1      45.941   4.963  13.071  0.00  0.00    +0.000 A 
BRANCH  17  24
ATOM     23  N   UNL     1      43.423   2.438  12.673  0.00  0.00    +0.000 NA
ATOM     24  C   UNL     1      44.132   3.335  12.448  0.00  0.00    +0.000 C 
ENDBRANCH  17  24
ENDBRANCH  16  22
ENDBRANCH  15  16
ENDBRANCH   1  15
TORSDOF 5
ENDMDL
MODEL 8
REMARK VINA RESULT:    -5.898      3.337      7.438
REMARK INTER + INTRA:          -8.524
REMARK INTER:                  -8.011
REMARK INTRA:                  -0.513
REMARK UNBOUND:                -1.075
REMARK  Name = 
REMARK  5 active torsions:
REMARK  status: ('A' for Active; 'I' for Inactive)
REMARK    1  A    between atoms: C_2  and  C_3
REMARK    2  A    between atoms: C_8  and  O_9
REMARK    3  A    between atoms: O_9  and  C_10
REMARK    4  A    between atoms: C_10  and  C_11
REMARK    5  A    between atoms: C_22  and  O_23
REMARK                            x       y       z     vdW  Elec       q    Type
REMARK                         _______ _______ _______ _____ _____    ______ ____
ROOT
ATOM      1  C   UNL     1      47.627   4.550  16.014  0.00  0.00    +0.000 A 
ATOM      2  N   UNL     1      48.506   5.574  15.800  0.00  0.00    +0.000 NA
ATOM      3  C   UNL     1      49.051   6.226  16.855  0.00  0.00    +0.000 A 
ATOM      4  N   UNL     1      49.968   7.230  16.618  0.00  0.00    +0.000 N 
ATOM      5  C   UNL     1      50.243   8.317  17.551  0.00  0.00    +0.000 C 
ATOM      6  C   UNL     1      50.011   9.662  16.862  0.00  0.00    +0.000 C 
ATOM      7  C   UNL     1      50.776   9.765  15.545  0.00  0.00    +0.000 C 
ATOM      8  C   UNL     1      50.464   8.576  14.637  0.00  0.00    +0.000 C 
ATOM      9  C   UNL     1      50.706   7.252  15.357  0.00  0.00    +0.000 C 
ATOM     10  C   UNL     1      48.705   5.850  18.153  0.00  0.00    +0.000 A 
ATOM     11  C   UNL     1      47.812   4.803  18.380  0.00  0.00    +0.000 A 
ATOM     12  C   UNL     1      47.267   4.141  17.294  0.00  0.00    +0.000 A 
ENDROOT
BRANCH  12  13
ATOM     13  O   UNL     1      46.437   3.075  17.481  0.00  0.00    +0.000 OA
ATOM     14  H   UNL     1      45.544   3.318  17.186  0.00  0.00    +0.000 HD
ENDBRANCH  12  13
BRANCH   1  15
ATOM     15  C   UNL     1      47.121   3.797  14.800  0.00  0.00    +0.000 C 
BRANCH  15  16
ATOM     16  O   UNL     1      45.859   4.293  14.346  0.00  0.00    +0.000 OA
BRANCH  16  22
ATOM     17  C   UNL     1      44.925   4.284  12.002  0.00  0.00    +0.000 A 
ATOM     18  N   UNL     1      44.921   4.849  10.757  0.00  0.00    +0.000 NA
ATOM     19  C   UNL     1      45.751   5.886  10.535  0.00  0.00    +0.000 A 
ATOM     20  C   UNL     1      46.594   6.398  11.499  0.00  0.00    +0.000 A 
ATOM     21  C   UNL     1      46.581   5.810  12.764  0.00  0.00    +0.000 A 
ATOM     22  C   UNL     1      45.736   4.729  13.052  0.00  0.00    +0.000 A 
BRANCH  17  24
ATOM     23  N   UNL     1      43.242   2.307  12.134  0.00  0.00    +0.000 NA
ATOM     24  C   UNL     1      43.999   3.191  12.087  0.00  0.00    +0.000 C 
ENDBRANCH  17  24
ENDBRANCH  16  22
ENDBRANCH  15  16
ENDBRANCH   1  15
TORSDOF 5
ENDMDL
MODEL 9
REMARK VINA RESULT:    -5.872      2.878      7.267
REMARK INTER + INTRA:          -8.491
REMARK INTER:                  -7.743
REMARK INTRA:                  -0.748
REMARK UNBOUND:                -1.075
REMARK  Name = 
REMARK  5 active torsions:
REMARK  status: ('A' for Active; 'I' for Inactive)
REMARK    1  A    between atoms: C_2  and  C_3
REMARK    2  A    between atoms: C_8  and  O_9
REMARK    3  A    between atoms: O_9  and  C_10
REMARK    4  A    between atoms: C_10  and  C_11
REMARK    5  A    between atoms: C_22  and  O_23
REMARK                            x       y       z     vdW  Elec       q    Type
REMARK                         _______ _______ _______ _____ _____    ______ ____
ROOT
ATOM      1  C   UNL     1      47.996   7.278  13.530  0.00  0.00    +0.000 A 
ATOM      2  N   UNL     1      48.232   6.654  14.723  0.00  0.00    +0.000 NA
ATOM      3  C   UNL     1      49.436   6.791  15.330  0.00  0.00    +0.000 A 
ATOM      4  N   UNL     1      49.639   6.186  16.553  0.00  0.00    +0.000 N 
ATOM      5  C   UNL     1      50.953   5.817  17.068  0.00  0.00    +0.000 C 
ATOM      6  C   UNL     1      50.981   4.322  17.388  0.00  0.00    +0.000 C 
ATOM      7  C   UNL     1      49.821   3.912  18.292  0.00  0.00    +0.000 C 
ATOM      8  C   UNL     1      48.485   4.363  17.704  0.00  0.00    +0.000 C 
ATOM      9  C   UNL     1      48.493   5.858  17.397  0.00  0.00    +0.000 C 
ATOM     10  C   UNL     1      50.428   7.565  14.727  0.00  0.00    +0.000 A 
ATOM     11  C   UNL     1      50.194   8.208  13.512  0.00  0.00    +0.000 A 
ATOM     12  C   UNL     1      48.959   8.066  12.906  0.00  0.00    +0.000 A 
ENDROOT
BRANCH  12  13
ATOM     13  O   UNL     1      48.677   8.729  11.749  0.00  0.00    +0.000 OA
ATOM     14  H   UNL     1      49.492   9.141  11.417  0.00  0.00    +0.000 HD
ENDBRANCH  12  13
BRANCH   1  15
ATOM     15  C   UNL     1      46.603   7.166  12.946  0.00  0.00    +0.000 C 
BRANCH  15  16
ATOM     16  O   UNL     1      46.545   6.223  11.870  0.00  0.00    +0.000 OA
BRANCH  16  22
ATOM     17  C   UNL     1      45.588   4.028  12.663  0.00  0.00    +0.000 A 
ATOM     18  N   UNL     1      44.570   3.117  12.592  0.00  0.00    +0.000 NA
ATOM     19  C   UNL     1      43.552   3.378  11.750  0.00  0.00    +0.000 A 
ATOM     20  C   UNL     1      43.491   4.510  10.966  0.00  0.00    +0.000 A 
ATOM     21  C   UNL     1      44.538   5.429  11.054  0.00  0.00    +0.000 A 
ATOM     22  C   UNL     1      45.622   5.210  11.916  0.00  0.00    +0.000 A 
BRANCH  17  24
ATOM     23  N   UNL     1      47.419   3.257  14.339  0.00  0.00    +0.000 NA
ATOM     24  C   UNL     1      46.601   3.614  13.592  0.00  0.00    +0.000 C 
ENDBRANCH  17  24
ENDBRANCH  16  22
ENDBRANCH  15  16
ENDBRANCH   1  15
TORSDOF 5
ENDMDL
