MODEL 1
REMARK VINA RESULT:    -8.212      0.000      0.000
REMARK INTER + INTRA:         -10.211
REMARK INTER:                  -9.652
REMARK INTRA:                  -0.559
REMARK UNBOUND:                -0.559
REMARK  Name = 
REMARK  3 active torsions:
REMARK  status: ('A' for Active; 'I' for Inactive)
REMARK    1  A    between atoms: N_6  and  C_7
REMARK    2  A    between atoms: C_7  and  C_8
REMARK    3  A    between atoms: C_13  and  C_14
REMARK                            x       y       z     vdW  Elec       q    Type
REMARK                         _______ _______ _______ _____ _____    ______ ____
ROOT
ATOM      1  C   UNL     1      44.722   4.092  11.318  0.00  0.00    +0.000 A 
ATOM      2  C   UNL     1      45.463   3.514  12.360  0.00  0.00    +0.000 A 
ATOM      3  C   UNL     1      46.154   4.326  13.258  0.00  0.00    +0.000 A 
ATOM      4  F   UNL     1      46.876   3.756  14.232  0.00  0.00    +0.000 F 
ATOM      5  C   UNL     1      46.113   5.712  13.159  0.00  0.00    +0.000 A 
ATOM      6  C   UNL     1      45.361   6.306  12.144  0.00  0.00    +0.000 A 
ATOM      7  C   UNL     1      44.667   5.493  11.231  0.00  0.00    +0.000 A 
ENDROOT
BRANCH   6   8
ATOM      8  C   UNL     1      45.312   7.766  11.993  0.00  0.00    +0.000 C 
ATOM      9  C   UNL     1      44.353   8.356  11.259  0.00  0.00    +0.000 C 
ATOM     10  C   UNL     1      44.210   9.849  11.175  0.00  0.00    +0.000 C 
ATOM     11  O   UNL     1      44.979  10.528  12.173  0.00  0.00    +0.000 OA
ATOM     12  C   UNL     1      46.319  10.038  12.238  0.00  0.00    +0.000 C 
ATOM     13  C   UNL     1      46.331   8.589  12.731  0.00  0.00    +0.000 C 
ENDBRANCH   6   8
BRANCH   1  14
ATOM     14  C   UNL     1      44.014   3.217  10.305  0.00  0.00    +0.000 C 
BRANCH  14  20
ATOM     15  F   UNL     1      47.839   2.456   5.350  0.00  0.00    +0.000 F 
ATOM     16  C   UNL     1      47.076   2.380   6.445  0.00  0.00    +0.000 A 
ATOM     17  C   UNL     1      46.326   3.439   6.886  0.00  0.00    +0.000 A 
ATOM     18  N   UNL     1      45.572   3.399   8.010  0.00  0.00    +0.000 NA
ATOM     19  C   UNL     1      45.562   2.248   8.699  0.00  0.00    +0.000 A 
ATOM     20  N   UNL     1      44.875   2.143   9.885  0.00  0.00    +0.000 N 
ATOM     21  N   UNL     1      46.234   1.146   8.318  0.00  0.00    +0.000 NA
ATOM     22  C   UNL     1      46.998   1.245   7.204  0.00  0.00    +0.000 A 
ATOM     23  H   UNL     1      44.669   1.190  10.142  0.00  0.00    +0.000 HD
ENDBRANCH  14  20
ENDBRANCH   1  14
TORSDOF 3
ENDMDL
MODEL 2
REMARK VINA RESULT:    -7.790      1.566      2.222
REMARK INTER + INTRA:          -9.715
REMARK INTER:                  -9.151
REMARK INTRA:                  -0.565
REMARK UNBOUND:                -0.559
REMARK  Name = 
REMARK  3 active torsions:
REMARK  status: ('A' for Active; 'I' for Inactive)
REMARK    1  A    between atoms: N_6  and  C_7
REMARK    2  A    between atoms: C_7  and  C_8
REMARK    3  A    between atoms: C_13  and  C_14
REMARK                            x       y       z     vdW  Elec       q    Type
REMARK                         _______ _______ _______ _____ _____    ______ ____
ROOT
ATOM      1  C   UNL     1      45.123   4.876  11.480  0.00  0.00    +0.000 A 
ATOM      2  C   UNL     1      45.511   4.019  12.522  0.00  0.00    +0.000 A 
ATOM      3  C   UNL     1      46.516   4.407  13.406  0.00  0.00    +0.000 A 
ATOM      4  F   UNL     1      46.891   3.565  14.379  0.00  0.00    +0.000 F 
ATOM      5  C   UNL     1      47.141   5.643  13.294  0.00  0.00    +0.000 A 
ATOM      6  C   UNL     1      46.750   6.520  12.280  0.00  0.00    +0.000 A 
ATOM      7  C   UNL     1      45.742   6.133  11.381  0.00  0.00    +0.000 A 
ENDROOT
BRANCH   6   8
ATOM      8  C   UNL     1      47.403   7.826  12.116  0.00  0.00    +0.000 C 
ATOM      9  C   UNL     1      48.712   7.916  11.826  0.00  0.00    +0.000 C 
ATOM     10  C   UNL     1      49.383   9.229  11.542  0.00  0.00    +0.000 C 
ATOM     11  O   UNL     1      48.444  10.286  11.317  0.00  0.00    +0.000 OA
ATOM     12  C   UNL     1      47.425  10.315  12.318  0.00  0.00    +0.000 C 
ATOM     13  C   UNL     1      46.553   9.061  12.223  0.00  0.00    +0.000 C 
ENDBRANCH   6   8
BRANCH   1  14
ATOM     14  C   UNL     1      44.071   4.441  10.482  0.00  0.00    +0.000 C 
BRANCH  14  20
ATOM     15  F   UNL     1      47.305   0.905   6.383  0.00  0.00    +0.000 F 
ATOM     16  C   UNL     1      46.652   1.834   7.088  0.00  0.00    +0.000 A 
ATOM     17  C   UNL     1      46.139   1.579   8.333  0.00  0.00    +0.000 A 
ATOM     18  N   UNL     1      45.445   2.492   9.052  0.00  0.00    +0.000 NA
ATOM     19  C   UNL     1      45.281   3.706   8.503  0.00  0.00    +0.000 A 
ATOM     20  N   UNL     1      44.534   4.671   9.138  0.00  0.00    +0.000 N 
ATOM     21  N   UNL     1      45.786   4.057   7.306  0.00  0.00    +0.000 NA
ATOM     22  C   UNL     1      46.446   3.100   6.612  0.00  0.00    +0.000 A 
ATOM     23  H   UNL     1      44.737   5.605   8.818  0.00  0.00    +0.000 HD
ENDBRANCH  14  20
ENDBRANCH   1  14
TORSDOF 3
ENDMDL
MODEL 3
REMARK VINA RESULT:    -7.699      1.840      2.144
REMARK INTER + INTRA:          -9.609
REMARK INTER:                  -9.064
REMARK INTRA:                  -0.545
REMARK UNBOUND:                -0.559
REMARK  Name = 
REMARK  3 active torsions:
REMARK  status: ('A' for Active; 'I' for Inactive)
REMARK    1  A    between atoms: N_6  and  C_7
REMARK    2  A    between atoms: C_7  and  C_8
REMARK    3  A    between atoms: C_13  and  C_14
REMARK                            x       y       z     vdW  Elec       q    Type
REMARK                         _______ _______ _______ _____ _____    ______ ____
ROOT
ATOM      1  C   UNL     1      44.202   4.675  10.521  0.00  0.00    +0.000 A 
ATOM      2  C   UNL     1      43.303   4.405  11.564  0.00  0.00    +0.000 A 
ATOM      3  C   UNL     1      43.454   5.037  12.797  0.00  0.00    +0.000 A 
ATOM      4  F   UNL     1      42.601   4.748  13.789  0.00  0.00    +0.000 F 
ATOM      5  C   UNL     1      44.476   5.953  13.020  0.00  0.00    +0.000 A 
ATOM      6  C   UNL     1      45.365   6.253  11.987  0.00  0.00    +0.000 A 
ATOM      7  C   UNL     1      45.222   5.615  10.743  0.00  0.00    +0.000 A 
ENDROOT
BRANCH   6   8
ATOM      8  C   UNL     1      46.471   7.199  12.191  0.00  0.00    +0.000 C 
ATOM      9  C   UNL     1      47.688   6.966  11.669  0.00  0.00    +0.000 C 
ATOM     10  C   UNL     1      48.807   7.963  11.765  0.00  0.00    +0.000 C 
ATOM     11  O   UNL     1      48.353   9.256  12.178  0.00  0.00    +0.000 OA
ATOM     12  C   UNL     1      47.493   9.180  13.317  0.00  0.00    +0.000 C 
ATOM     13  C   UNL     1      46.190   8.465  12.949  0.00  0.00    +0.000 C 
ENDBRANCH   6   8
BRANCH   1  14
ATOM     14  C   UNL     1      44.079   3.953   9.197  0.00  0.00    +0.000 C 
BRANCH  14  20
ATOM     15  F   UNL     1      48.418   2.065   5.029  0.00  0.00    +0.000 F 
ATOM     16  C   UNL     1      47.540   2.249   6.020  0.00  0.00    +0.000 A 
ATOM     17  C   UNL     1      46.749   3.365   6.097  0.00  0.00    +0.000 A 
ATOM     18  N   UNL     1      45.877   3.590   7.108  0.00  0.00    +0.000 NA
ATOM     19  C   UNL     1      45.791   2.650   8.061  0.00  0.00    +0.000 A 
ATOM     20  N   UNL     1      44.978   2.829   9.155  0.00  0.00    +0.000 N 
ATOM     21  N   UNL     1      46.498   1.504   8.044  0.00  0.00    +0.000 NA
ATOM     22  C   UNL     1      47.378   1.340   7.029  0.00  0.00    +0.000 A 
ATOM     23  H   UNL     1      44.743   1.967   9.621  0.00  0.00    +0.000 HD
ENDBRANCH  14  20
ENDBRANCH   1  14
TORSDOF 3
ENDMDL
MODEL 4
REMARK VINA RESULT:    -7.541      2.618      3.841
REMARK INTER + INTRA:          -9.422
REMARK INTER:                  -8.957
REMARK INTRA:                  -0.466
REMARK UNBOUND:                -0.559
REMARK  Name = 
REMARK  3 active torsions:
REMARK  status: ('A' for Active; 'I' for Inactive)
REMARK    1  A    between atoms: N_6  and  C_7
REMARK    2  A    between atoms: C_7  and  C_8
REMARK    3  A    between atoms: C_13  and  C_14
REMARK                            x       y       z     vdW  Elec       q    Type
REMARK                         _______ _______ _______ _____ _____    ______ ____
ROOT
ATOM      1  C   UNL     1      44.661   4.537  11.540  0.00  0.00    +0.000 A 
ATOM      2  C   UNL     1      44.553   5.857  11.075  0.00  0.00    +0.000 A 
ATOM      3  C   UNL     1      45.239   6.882  11.723  0.00  0.00    +0.000 A 
ATOM      4  F   UNL     1      45.105   8.140  11.280  0.00  0.00    +0.000 F 
ATOM      5  C   UNL     1      46.051   6.628  12.822  0.00  0.00    +0.000 A 
ATOM      6  C   UNL     1      46.191   5.318  13.284  0.00  0.00    +0.000 A 
ATOM      7  C   UNL     1      45.497   4.279  12.639  0.00  0.00    +0.000 A 
ENDROOT
BRANCH   6   8
ATOM      8  C   UNL     1      47.022   5.013  14.456  0.00  0.00    +0.000 C 
ATOM      9  C   UNL     1      46.939   3.822  15.074  0.00  0.00    +0.000 C 
ATOM     10  C   UNL     1      47.851   3.438  16.204  0.00  0.00    +0.000 C 
ATOM     11  O   UNL     1      48.971   4.322  16.326  0.00  0.00    +0.000 OA
ATOM     12  C   UNL     1      48.573   5.694  16.291  0.00  0.00    +0.000 C 
ATOM     13  C   UNL     1      48.012   6.048  14.911  0.00  0.00    +0.000 C 
ENDBRANCH   6   8
BRANCH   1  14
ATOM     14  C   UNL     1      43.877   3.424  10.876  0.00  0.00    +0.000 C 
BRANCH  14  20
ATOM     15  F   UNL     1      47.197   2.684   5.566  0.00  0.00    +0.000 F 
ATOM     16  C   UNL     1      46.564   2.611   6.741  0.00  0.00    +0.000 A 
ATOM     17  C   UNL     1      45.785   3.634   7.215  0.00  0.00    +0.000 A 
ATOM     18  N   UNL     1      45.161   3.599   8.416  0.00  0.00    +0.000 NA
ATOM     19  C   UNL     1      45.316   2.487   9.152  0.00  0.00    +0.000 A 
ATOM     20  N   UNL     1      44.770   2.395  10.411  0.00  0.00    +0.000 N 
ATOM     21  N   UNL     1      46.027   1.419   8.748  0.00  0.00    +0.000 NA
ATOM     22  C   UNL     1      46.657   1.515   7.553  0.00  0.00    +0.000 A 
ATOM     23  H   UNL     1      44.668   1.444  10.731  0.00  0.00    +0.000 HD
ENDBRANCH  14  20
ENDBRANCH   1  14
TORSDOF 3
ENDMDL
MODEL 5
REMARK VINA RESULT:    -7.243      4.083      6.957
REMARK INTER + INTRA:          -9.072
REMARK INTER:                  -8.491
REMARK INTRA:                  -0.581
REMARK UNBOUND:                -0.559
REMARK  Name = 
REMARK  3 active torsions:
REMARK  status: ('A' for Active; 'I' for Inactive)
REMARK    1  A    between atoms: N_6  and  C_7
REMARK    2  A    between atoms: C_7  and  C_8
REMARK    3  A    between atoms: C_13  and  C_14
REMARK                            x       y       z     vdW  Elec       q    Type
REMARK                         _______ _______ _______ _____ _____    ______ ____
ROOT
ATOM      1  C   UNL     1      44.890   5.190  10.651  0.00  0.00    +0.000 A 
ATOM      2  C   UNL     1      43.976   4.400  11.365  0.00  0.00    +0.000 A 
ATOM      3  C   UNL     1      43.725   3.090  10.964  0.00  0.00    +0.000 A 
ATOM      4  F   UNL     1      42.830   2.359  11.643  0.00  0.00    +0.000 F 
ATOM      5  C   UNL     1      44.376   2.530   9.870  0.00  0.00    +0.000 A 
ATOM      6  C   UNL     1      45.307   3.292   9.162  0.00  0.00    +0.000 A 
ATOM      7  C   UNL     1      45.562   4.616   9.558  0.00  0.00    +0.000 A 
ENDROOT
BRANCH   6   8
ATOM      8  C   UNL     1      45.998   2.743   7.988  0.00  0.00    +0.000 C 
ATOM      9  C   UNL     1      46.206   3.493   6.892  0.00  0.00    +0.000 C 
ATOM     10  C   UNL     1      47.005   2.999   5.721  0.00  0.00    +0.000 C 
ATOM     11  O   UNL     1      47.748   1.814   6.027  0.00  0.00    +0.000 OA
ATOM     12  C   UNL     1      46.942   0.835   6.683  0.00  0.00    +0.000 C 
ATOM     13  C   UNL     1      46.520   1.336   8.067  0.00  0.00    +0.000 C 
ENDBRANCH   6   8
BRANCH   1  14
ATOM     14  C   UNL     1      45.130   6.632  11.046  0.00  0.00    +0.000 C 
BRANCH  14  20
ATOM     15  F   UNL     1      50.879   7.933  13.287  0.00  0.00    +0.000 F 
ATOM     16  C   UNL     1      49.608   7.596  13.044  0.00  0.00    +0.000 A 
ATOM     17  C   UNL     1      49.076   7.618  11.781  0.00  0.00    +0.000 A 
ATOM     18  N   UNL     1      47.784   7.315  11.514  0.00  0.00    +0.000 NA
ATOM     19  C   UNL     1      47.012   6.962  12.553  0.00  0.00    +0.000 A 
ATOM     20  N   UNL     1      45.673   6.700  12.377  0.00  0.00    +0.000 N 
ATOM     21  N   UNL     1      47.460   6.873  13.819  0.00  0.00    +0.000 NA
ATOM     22  C   UNL     1      48.751   7.215  14.039  0.00  0.00    +0.000 A 
ATOM     23  H   UNL     1      45.275   6.150  13.123  0.00  0.00    +0.000 HD
ENDBRANCH  14  20
ENDBRANCH   1  14
TORSDOF 3
ENDMDL
MODEL 6
REMARK VINA RESULT:    -7.194      4.421      7.469
REMARK INTER + INTRA:          -9.015
REMARK INTER:                  -8.598
REMARK INTRA:                  -0.416
REMARK UNBOUND:                -0.559
REMARK  Name = 
REMARK  3 active torsions:
REMARK  status: ('A' for Active; 'I' for Inactive)
REMARK    1  A    between atoms: N_6  and  C_7
REMARK    2  A    between atoms: C_7  and  C_8
REMARK    3  A    between atoms: C_13  and  C_14
REMARK                            x       y       z     vdW  Elec       q    Type
REMARK                         _______ _______ _______ _____ _____    ______ ____
ROOT
ATOM      1  C   UNL     1      45.284   5.211  12.659  0.00  0.00    +0.000 A 
ATOM      2  C   UNL     1      43.936   5.594  12.735  0.00  0.00    +0.000 A 
ATOM      3  C   UNL     1      43.076   5.335  11.670  0.00  0.00    +0.000 A 
ATOM      4  F   UNL     1      41.798   5.732  11.751  0.00  0.00    +0.000 F 
ATOM      5  C   UNL     1      43.518   4.683  10.526  0.00  0.00    +0.000 A 
ATOM      6  C   UNL     1      44.849   4.270  10.441  0.00  0.00    +0.000 A 
ATOM      7  C   UNL     1      45.724   4.534  11.509  0.00  0.00    +0.000 A 
ENDROOT
BRANCH   6   8
ATOM      8  C   UNL     1      45.358   3.598   9.239  0.00  0.00    +0.000 C 
ATOM      9  C   UNL     1      45.746   4.303   8.162  0.00  0.00    +0.000 C 
ATOM     10  C   UNL     1      46.374   3.655   6.961  0.00  0.00    +0.000 C 
ATOM     11  O   UNL     1      46.781   2.306   7.218  0.00  0.00    +0.000 OA
ATOM     12  C   UNL     1      45.751   1.553   7.860  0.00  0.00    +0.000 C 
ATOM     13  C   UNL     1      45.490   2.101   9.266  0.00  0.00    +0.000 C 
ENDBRANCH   6   8
BRANCH   1  14
ATOM     14  C   UNL     1      46.239   5.536  13.787  0.00  0.00    +0.000 C 
BRANCH  14  20
ATOM     15  F   UNL     1      50.038   4.117  18.617  0.00  0.00    +0.000 F 
ATOM     16  C   UNL     1      49.128   4.201  17.641  0.00  0.00    +0.000 A 
ATOM     17  C   UNL     1      49.093   5.253  16.765  0.00  0.00    +0.000 A 
ATOM     18  N   UNL     1      48.161   5.379  15.790  0.00  0.00    +0.000 NA
ATOM     19  C   UNL     1      47.247   4.401  15.689  0.00  0.00    +0.000 A 
ATOM     20  N   UNL     1      46.229   4.483  14.769  0.00  0.00    +0.000 N 
ATOM     21  N   UNL     1      47.232   3.311  16.478  0.00  0.00    +0.000 NA
ATOM     22  C   UNL     1      48.165   3.247  17.457  0.00  0.00    +0.000 A 
ATOM     23  H   UNL     1      45.812   3.589  14.558  0.00  0.00    +0.000 HD
ENDBRANCH  14  20
ENDBRANCH   1  14
TORSDOF 3
ENDMDL
MODEL 7
REMARK VINA RESULT:    -6.940      4.195      7.598
REMARK INTER + INTRA:          -8.716
REMARK INTER:                  -8.296
REMARK INTRA:                  -0.421
REMARK UNBOUND:                -0.559
REMARK  Name = 
REMARK  3 active torsions:
REMARK  status: ('A' for Active; 'I' for Inactive)
REMARK    1  A    between atoms: N_6  and  C_7
REMARK    2  A    between atoms: C_7  and  C_8
REMARK    3  A    between atoms: C_13  and  C_14
REMARK                            x       y       z     vdW  Elec       q    Type
REMARK                         _______ _______ _______ _____ _____    ______ ____
ROOT
ATOM      1  C   UNL     1      44.941   5.210  10.772  0.00  0.00    +0.000 A 
ATOM      2  C   UNL     1      44.006   4.428  11.468  0.00  0.00    +0.000 A 
ATOM      3  C   UNL     1      43.718   3.136  11.035  0.00  0.00    +0.000 A 
ATOM      4  F   UNL     1      42.804   2.413  11.697  0.00  0.00    +0.000 F 
ATOM      5  C   UNL     1      44.352   2.585   9.927  0.00  0.00    +0.000 A 
ATOM      6  C   UNL     1      45.304   3.338   9.237  0.00  0.00    +0.000 A 
ATOM      7  C   UNL     1      45.596   4.644   9.664  0.00  0.00    +0.000 A 
ENDROOT
BRANCH   6   8
ATOM      8  C   UNL     1      45.979   2.799   8.049  0.00  0.00    +0.000 C 
ATOM      9  C   UNL     1      46.178   3.560   6.959  0.00  0.00    +0.000 C 
ATOM     10  C   UNL     1      46.961   3.076   5.773  0.00  0.00    +0.000 C 
ATOM     11  O   UNL     1      47.701   1.883   6.057  0.00  0.00    +0.000 OA
ATOM     12  C   UNL     1      46.897   0.900   6.711  0.00  0.00    +0.000 C 
ATOM     13  C   UNL     1      46.494   1.388   8.105  0.00  0.00    +0.000 C 
ENDBRANCH   6   8
BRANCH   1  14
ATOM     14  C   UNL     1      45.221   6.634  11.202  0.00  0.00    +0.000 C 
BRANCH  14  20
ATOM     15  F   UNL     1      44.293  12.857  11.624  0.00  0.00    +0.000 F 
ATOM     16  C   UNL     1      44.253  11.530  11.468  0.00  0.00    +0.000 A 
ATOM     17  C   UNL     1      45.333  10.731  11.741  0.00  0.00    +0.000 A 
ATOM     18  N   UNL     1      45.329   9.389  11.560  0.00  0.00    +0.000 NA
ATOM     19  C   UNL     1      44.193   8.837  11.105  0.00  0.00    +0.000 A 
ATOM     20  N   UNL     1      44.125   7.491  10.833  0.00  0.00    +0.000 N 
ATOM     21  N   UNL     1      43.073   9.539  10.851  0.00  0.00    +0.000 NA
ATOM     22  C   UNL     1      43.136  10.881  11.019  0.00  0.00    +0.000 A 
ATOM     23  H   UNL     1      43.181   7.137  10.813  0.00  0.00    +0.000 HD
ENDBRANCH  14  20
ENDBRANCH   1  14
TORSDOF 3
ENDMDL
MODEL 8
REMARK VINA RESULT:    -6.782      2.913      4.247
REMARK INTER + INTRA:          -8.531
REMARK INTER:                  -8.040
REMARK INTRA:                  -0.491
REMARK UNBOUND:                -0.559
REMARK  Name = 
REMARK  3 active torsions:
REMARK  status: ('A' for Active; 'I' for Inactive)
REMARK    1  A    between atoms: N_6  and  C_7
REMARK    2  A    between atoms: C_7  and  C_8
REMARK    3  A    between atoms: C_13  and  C_14
REMARK                            x       y       z     vdW  Elec       q    Type
REMARK                         _______ _______ _______ _____ _____    ______ ____
ROOT
ATOM      1  C   UNL     1      45.577   5.038  11.792  0.00  0.00    +0.000 A 
ATOM      2  C   UNL     1      46.099   6.212  11.226  0.00  0.00    +0.000 A 
ATOM      3  C   UNL     1      47.066   6.945  11.911  0.00  0.00    +0.000 A 
ATOM      4  F   UNL     1      47.535   8.077  11.366  0.00  0.00    +0.000 F 
ATOM      5  C   UNL     1      47.547   6.531  13.147  0.00  0.00    +0.000 A 
ATOM      6  C   UNL     1      47.059   5.353  13.714  0.00  0.00    +0.000 A 
ATOM      7  C   UNL     1      46.079   4.611  13.033  0.00  0.00    +0.000 A 
ENDROOT
BRANCH   6   8
ATOM      8  C   UNL     1      47.526   4.895  15.029  0.00  0.00    +0.000 C 
ATOM      9  C   UNL     1      48.144   5.736  15.877  0.00  0.00    +0.000 C 
ATOM     10  C   UNL     1      48.534   5.329  17.270  0.00  0.00    +0.000 C 
ATOM     11  O   UNL     1      47.915   4.103  17.675  0.00  0.00    +0.000 OA
ATOM     12  C   UNL     1      48.039   3.089  16.676  0.00  0.00    +0.000 C 
ATOM     13  C   UNL     1      47.242   3.474  15.427  0.00  0.00    +0.000 C 
ENDBRANCH   6   8
BRANCH   1  14
ATOM     14  C   UNL     1      44.487   4.264  11.082  0.00  0.00    +0.000 C 
BRANCH  14  20
ATOM     15  F   UNL     1      47.156   2.332   5.705  0.00  0.00    +0.000 F 
ATOM     16  C   UNL     1      46.588   2.503   6.903  0.00  0.00    +0.000 A 
ATOM     17  C   UNL     1      46.191   3.735   7.353  0.00  0.00    +0.000 A 
ATOM     18  N   UNL     1      45.645   3.939   8.575  0.00  0.00    +0.000 NA
ATOM     19  C   UNL     1      45.477   2.862   9.358  0.00  0.00    +0.000 A 
ATOM     20  N   UNL     1      44.989   2.991  10.636  0.00  0.00    +0.000 N 
ATOM     21  N   UNL     1      45.798   1.610   8.981  0.00  0.00    +0.000 NA
ATOM     22  C   UNL     1      46.370   1.462   7.763  0.00  0.00    +0.000 A 
ATOM     23  H   UNL     1      44.609   2.132  11.004  0.00  0.00    +0.000 HD
ENDBRANCH  14  20
ENDBRANCH   1  14
TORSDOF 3
ENDMDL
MODEL 9
REMARK VINA RESULT:    -6.765      3.508      5.128
REMARK INTER + INTRA:          -8.510
REMARK INTER:                  -7.922
REMARK INTRA:                  -0.589
REMARK UNBOUND:                -0.559
REMARK  Name = 
REMARK  3 active torsions:
REMARK  status: ('A' for Active; 'I' for Inactive)
REMARK    1  A    between atoms: N_6  and  C_7
REMARK    2  A    between atoms: C_7  and  C_8
REMARK    3  A    between atoms: C_13  and  C_14
REMARK                            x       y       z     vdW  Elec       q    Type
REMARK                         _______ _______ _______ _____ _____    ______ ____
ROOT
ATOM      1  C   UNL     1      46.427   6.743  12.328  0.00  0.00    +0.000 A 
ATOM      2  C   UNL     1      47.511   7.454  11.790  0.00  0.00    +0.000 A 
ATOM      3  C   UNL     1      48.721   7.508  12.479  0.00  0.00    +0.000 A 
ATOM      4  F   UNL     1      49.737   8.213  11.962  0.00  0.00    +0.000 F 
ATOM      5  C   UNL     1      48.892   6.853  13.693  0.00  0.00    +0.000 A 
ATOM      6  C   UNL     1      47.834   6.119  14.232  0.00  0.00    +0.000 A 
ATOM      7  C   UNL     1      46.608   6.066  13.545  0.00  0.00    +0.000 A 
ENDROOT
BRANCH   6   8
ATOM      8  C   UNL     1      47.969   5.432  15.523  0.00  0.00    +0.000 C 
ATOM      9  C   UNL     1      48.686   5.971  16.524  0.00  0.00    +0.000 C 
ATOM     10  C   UNL     1      48.752   5.350  17.890  0.00  0.00    +0.000 C 
ATOM     11  O   UNL     1      47.756   4.341  18.080  0.00  0.00    +0.000 OA
ATOM     12  C   UNL     1      47.710   3.424  16.985  0.00  0.00    +0.000 C 
ATOM     13  C   UNL     1      47.233   4.136  15.717  0.00  0.00    +0.000 C 
ENDBRANCH   6   8
BRANCH   1  14
ATOM     14  C   UNL     1      45.092   6.724  11.614  0.00  0.00    +0.000 C 
BRANCH  14  20
ATOM     15  F   UNL     1      44.616   1.085   8.832  0.00  0.00    +0.000 F 
ATOM     16  C   UNL     1      44.805   2.354   9.205  0.00  0.00    +0.000 A 
ATOM     17  C   UNL     1      44.559   2.784  10.483  0.00  0.00    +0.000 A 
ATOM     18  N   UNL     1      44.711   4.070  10.877  0.00  0.00    +0.000 NA
ATOM     19  C   UNL     1      45.141   4.945   9.955  0.00  0.00    +0.000 A 
ATOM     20  N   UNL     1      45.260   6.282  10.254  0.00  0.00    +0.000 N 
ATOM     21  N   UNL     1      45.447   4.604   8.689  0.00  0.00    +0.000 NA
ATOM     22  C   UNL     1      45.250   3.312   8.336  0.00  0.00    +0.000 A 
ATOM     23  H   UNL     1      45.875   6.776   9.626  0.00  0.00    +0.000 HD
ENDBRANCH  14  20
ENDBRANCH   1  14
TORSDOF 3
ENDMDL
