MODEL 1
REMARK VINA RESULT:    -7.918      0.000      0.000
REMARK INTER + INTRA:         -11.875
REMARK INTER:                 -10.696
REMARK INTRA:                  -1.180
REMARK UNBOUND:                -1.180
REMARK  Name = 
REMARK  7 active torsions:
REMARK  status: ('A' for Active; 'I' for Inactive)
REMARK    1  A    between atoms: C_1  and  C_2
REMARK    2  A    between atoms: C_2  and  N_3
REMARK    3  A    between atoms: C_2  and  C_16
REMARK    4  A    between atoms: C_4  and  C_6
REMARK    5  A    between atoms: C_19  and  C_20
REMARK    6  A    between atoms: C_20  and  N_21
REMARK    7  A    between atoms: C_22  and  C_24
REMARK                            x       y       z     vdW  Elec       q    Type
REMARK                         _______ _______ _______ _____ _____    ______ ____
ROOT
ATOM      1  C   UNL     1      47.955   9.195  14.457  0.00  0.00    +0.000 C 
ATOM      2  C   UNL     1      48.161   7.683  14.321  0.00  0.00    +0.000 C 
ENDROOT
BRANCH   2   3
ATOM      3  C   UNL     1      47.135   7.094  13.370  0.00  0.00    +0.000 A 
ATOM      4  C   UNL     1      46.283   7.900  12.614  0.00  0.00    +0.000 A 
ATOM      5  C   UNL     1      45.379   7.317  11.724  0.00  0.00    +0.000 A 
ATOM      6  C   UNL     1      45.342   5.929  11.605  0.00  0.00    +0.000 A 
ATOM      7  N   UNL     1      46.164   5.121  12.321  0.00  0.00    +0.000 NA
ATOM      8  C   UNL     1      47.027   5.716  13.177  0.00  0.00    +0.000 A 
BRANCH   6   9
ATOM      9  C   UNL     1      44.385   5.267  10.640  0.00  0.00    +0.000 C 
BRANCH   9  10
ATOM     10  N   UNL     1      45.061   4.559   9.575  0.00  0.00    +0.000 N 
ATOM     11  C   UNL     1      44.924   3.206   9.365  0.00  0.00    +0.000 C 
ATOM     12  O   UNL     1      44.207   2.481  10.047  0.00  0.00    +0.000 OA
ATOM     13  H   UNL     1      45.597   5.084   8.892  0.00  0.00    +0.000 HD
BRANCH  11  14
ATOM     14  C   UNL     1      45.735   2.660   8.226  0.00  0.00    +0.000 A 
ATOM     15  C   UNL     1      45.971   3.450   7.107  0.00  0.00    +0.000 A 
ATOM     16  C   UNL     1      46.716   2.909   6.063  0.00  0.00    +0.000 A 
ATOM     17  C   UNL     1      47.186   1.604   6.166  0.00  0.00    +0.000 A 
ATOM     18  C   UNL     1      46.896   0.886   7.317  0.00  0.00    +0.000 A 
ATOM     19  N   UNL     1      46.188   1.380   8.358  0.00  0.00    +0.000 NA
ENDBRANCH  11  14
ENDBRANCH   9  10
ENDBRANCH   6   9
ENDBRANCH   2   3
BRANCH   2  20
ATOM     20  N   UNL     1      48.070   6.990  15.597  0.00  0.00    +0.000 N 
ATOM     21  C   UNL     1      49.126   6.372  16.218  0.00  0.00    +0.000 C 
ATOM     22  O   UNL     1      50.266   6.381  15.767  0.00  0.00    +0.000 OA
ATOM     23  H   UNL     1      47.144   6.642  15.827  0.00  0.00    +0.000 HD
BRANCH  21  24
ATOM     24  C   UNL     1      48.822   5.760  17.518  0.00  0.00    +0.000 A 
ATOM     25  C   UNL     1      48.989   4.395  17.702  0.00  0.00    +0.000 A 
ATOM     26  S   UNL     1      48.652   3.877  19.293  0.00  0.00    +0.000 S 
ATOM     27  C   UNL     1      48.221   5.452  19.774  0.00  0.00    +0.000 A 
ATOM     28  N   UNL     1      47.802   5.712  21.043  0.00  0.00    +0.000 NA
ATOM     29  C   UNL     1      47.483   6.944  21.257  0.00  0.00    +0.000 A 
ATOM     30  N   UNL     1      47.548   7.945  20.321  0.00  0.00    +0.000 N 
ATOM     31  C   UNL     1      47.987   7.734  19.037  0.00  0.00    +0.000 A 
ATOM     32  O   UNL     1      48.072   8.653  18.230  0.00  0.00    +0.000 OA
ATOM     33  C   UNL     1      48.350   6.362  18.743  0.00  0.00    +0.000 A 
ATOM     34  H   UNL     1      47.293   8.893  20.553  0.00  0.00    +0.000 HD
ENDBRANCH  21  24
ENDBRANCH   2  20
TORSDOF 6
ENDMDL
MODEL 2
REMARK VINA RESULT:    -7.508      4.827      7.705
REMARK INTER + INTRA:         -11.322
REMARK INTER:                 -10.474
REMARK INTRA:                  -0.848
REMARK UNBOUND:                -1.180
REMARK  Name = 
REMARK  7 active torsions:
REMARK  status: ('A' for Active; 'I' for Inactive)
REMARK    1  A    between atoms: C_1  and  C_2
REMARK    2  A    between atoms: C_2  and  N_3
REMARK    3  A    between atoms: C_2  and  C_16
REMARK    4  A    between atoms: C_4  and  C_6
REMARK    5  A    between atoms: C_19  and  C_20
REMARK    6  A    between atoms: C_20  and  N_21
REMARK    7  A    between atoms: C_22  and  C_24
REMARK                            x       y       z     vdW  Elec       q    Type
REMARK                         _______ _______ _______ _____ _____    ______ ____
ROOT
ATOM      1  C   UNL     1      47.327   8.617  13.928  0.00  0.00    +0.000 C 
ATOM      2  C   UNL     1      46.006   8.772  13.166  0.00  0.00    +0.000 C 
ENDROOT
BRANCH   2   3
ATOM      3  C   UNL     1      45.489   7.415  12.726  0.00  0.00    +0.000 A 
ATOM      4  C   UNL     1      44.410   7.287  11.850  0.00  0.00    +0.000 A 
ATOM      5  C   UNL     1      43.990   6.020  11.442  0.00  0.00    +0.000 A 
ATOM      6  C   UNL     1      44.659   4.895  11.921  0.00  0.00    +0.000 A 
ATOM      7  N   UNL     1      45.716   4.990  12.767  0.00  0.00    +0.000 NA
ATOM      8  C   UNL     1      46.097   6.232  13.146  0.00  0.00    +0.000 A 
BRANCH   6   9
ATOM      9  C   UNL     1      44.238   3.509  11.489  0.00  0.00    +0.000 C 
BRANCH   9  10
ATOM     10  N   UNL     1      45.065   2.976  10.428  0.00  0.00    +0.000 N 
ATOM     11  C   UNL     1      44.898   3.310   9.104  0.00  0.00    +0.000 C 
ATOM     12  O   UNL     1      44.049   4.100   8.703  0.00  0.00    +0.000 OA
ATOM     13  H   UNL     1      45.862   2.394  10.664  0.00  0.00    +0.000 HD
BRANCH  11  14
ATOM     14  C   UNL     1      45.839   2.623   8.156  0.00  0.00    +0.000 A 
ATOM     15  C   UNL     1      46.378   3.331   7.088  0.00  0.00    +0.000 A 
ATOM     16  C   UNL     1      47.237   2.661   6.221  0.00  0.00    +0.000 A 
ATOM     17  C   UNL     1      47.518   1.317   6.443  0.00  0.00    +0.000 A 
ATOM     18  C   UNL     1      46.928   0.689   7.530  0.00  0.00    +0.000 A 
ATOM     19  N   UNL     1      46.101   1.308   8.403  0.00  0.00    +0.000 NA
ENDBRANCH  11  14
ENDBRANCH   9  10
ENDBRANCH   6   9
ENDBRANCH   2   3
BRANCH   2  20
ATOM     20  N   UNL     1      46.134   9.628  11.997  0.00  0.00    +0.000 N 
ATOM     21  C   UNL     1      45.214  10.580  11.632  0.00  0.00    +0.000 C 
ATOM     22  O   UNL     1      44.209  10.825  12.288  0.00  0.00    +0.000 OA
ATOM     23  H   UNL     1      46.711   9.248  11.253  0.00  0.00    +0.000 HD
BRANCH  21  24
ATOM     24  C   UNL     1      45.556  11.357  10.433  0.00  0.00    +0.000 A 
ATOM     25  C   UNL     1      46.744  12.071  10.381  0.00  0.00    +0.000 A 
ATOM     26  S   UNL     1      47.000  12.856   8.887  0.00  0.00    +0.000 S 
ATOM     27  C   UNL     1      45.507  12.309   8.280  0.00  0.00    +0.000 A 
ATOM     28  N   UNL     1      45.088  12.648   7.030  0.00  0.00    +0.000 NA
ATOM     29  C   UNL     1      43.925  12.184   6.714  0.00  0.00    +0.000 A 
ATOM     30  N   UNL     1      43.141  11.409   7.531  0.00  0.00    +0.000 N 
ATOM     31  C   UNL     1      43.534  11.024   8.789  0.00  0.00    +0.000 A 
ATOM     32  O   UNL     1      42.832  10.299   9.485  0.00  0.00    +0.000 OA
ATOM     33  C   UNL     1      44.832  11.525   9.195  0.00  0.00    +0.000 A 
ATOM     34  H   UNL     1      42.244  11.069   7.222  0.00  0.00    +0.000 HD
ENDBRANCH  21  24
ENDBRANCH   2  20
TORSDOF 6
ENDMDL
MODEL 3
REMARK VINA RESULT:    -7.432      1.396      1.948
REMARK INTER + INTRA:         -11.218
REMARK INTER:                 -10.289
REMARK INTRA:                  -0.929
REMARK UNBOUND:                -1.180
REMARK  Name = 
REMARK  7 active torsions:
REMARK  status: ('A' for Active; 'I' for Inactive)
REMARK    1  A    between atoms: C_1  and  C_2
REMARK    2  A    between atoms: C_2  and  N_3
REMARK    3  A    between atoms: C_2  and  C_16
REMARK    4  A    between atoms: C_4  and  C_6
REMARK    5  A    between atoms: C_19  and  C_20
REMARK    6  A    between atoms: C_20  and  N_21
REMARK    7  A    between atoms: C_22  and  C_24
REMARK                            x       y       z     vdW  Elec       q    Type
REMARK                         _______ _______ _______ _____ _____    ______ ____
ROOT
ATOM      1  C   UNL     1      47.684  10.256  13.402  0.00  0.00    +0.000 C 
ATOM      2  C   UNL     1      47.943   8.777  13.712  0.00  0.00    +0.000 C 
ENDROOT
BRANCH   2   3
ATOM      3  C   UNL     1      46.974   7.899  12.942  0.00  0.00    +0.000 A 
ATOM      4  C   UNL     1      45.727   8.367  12.525  0.00  0.00    +0.000 A 
ATOM      5  C   UNL     1      44.882   7.537  11.787  0.00  0.00    +0.000 A 
ATOM      6  C   UNL     1      45.300   6.243  11.479  0.00  0.00    +0.000 A 
ATOM      7  N   UNL     1      46.509   5.764  11.865  0.00  0.00    +0.000 NA
ATOM      8  C   UNL     1      47.305   6.592  12.580  0.00  0.00    +0.000 A 
BRANCH   6   9
ATOM      9  C   UNL     1      44.414   5.322  10.670  0.00  0.00    +0.000 C 
BRANCH   9  10
ATOM     10  N   UNL     1      45.136   4.612   9.638  0.00  0.00    +0.000 N 
ATOM     11  C   UNL     1      44.917   3.286   9.343  0.00  0.00    +0.000 C 
ATOM     12  O   UNL     1      44.083   2.591   9.912  0.00  0.00    +0.000 OA
ATOM     13  H   UNL     1      45.776   5.123   9.038  0.00  0.00    +0.000 HD
BRANCH  11  14
ATOM     14  C   UNL     1      45.793   2.729   8.258  0.00  0.00    +0.000 A 
ATOM     15  C   UNL     1      46.126   3.522   7.166  0.00  0.00    +0.000 A 
ATOM     16  C   UNL     1      46.929   2.971   6.171  0.00  0.00    +0.000 A 
ATOM     17  C   UNL     1      47.360   1.654   6.295  0.00  0.00    +0.000 A 
ATOM     18  C   UNL     1      46.973   0.935   7.416  0.00  0.00    +0.000 A 
ATOM     19  N   UNL     1      46.206   1.438   8.410  0.00  0.00    +0.000 NA
ENDBRANCH  11  14
ENDBRANCH   9  10
ENDBRANCH   6   9
ENDBRANCH   2   3
BRANCH   2  20
ATOM     20  N   UNL     1      47.826   8.476  15.130  0.00  0.00    +0.000 N 
ATOM     21  C   UNL     1      48.874   8.089  15.927  0.00  0.00    +0.000 C 
ATOM     22  O   UNL     1      50.027   8.000  15.521  0.00  0.00    +0.000 OA
ATOM     23  H   UNL     1      46.901   8.182  15.427  0.00  0.00    +0.000 HD
BRANCH  21  24
ATOM     24  C   UNL     1      48.542   7.866  17.340  0.00  0.00    +0.000 A 
ATOM     25  C   UNL     1      48.098   8.920  18.127  0.00  0.00    +0.000 A 
ATOM     26  S   UNL     1      47.696   8.457  19.719  0.00  0.00    +0.000 S 
ATOM     27  C   UNL     1      48.151   6.843  19.425  0.00  0.00    +0.000 A 
ATOM     28  N   UNL     1      48.074   5.900  20.403  0.00  0.00    +0.000 NA
ATOM     29  C   UNL     1      48.476   4.727  20.045  0.00  0.00    +0.000 A 
ATOM     30  N   UNL     1      48.947   4.406  18.797  0.00  0.00    +0.000 N 
ATOM     31  C   UNL     1      49.019   5.320  17.773  0.00  0.00    +0.000 A 
ATOM     32  O   UNL     1      49.407   4.999  16.655  0.00  0.00    +0.000 OA
ATOM     33  C   UNL     1      48.585   6.657  18.127  0.00  0.00    +0.000 A 
ATOM     34  H   UNL     1      49.239   3.467  18.575  0.00  0.00    +0.000 HD
ENDBRANCH  21  24
ENDBRANCH   2  20
TORSDOF 6
ENDMDL
MODEL 4
REMARK VINA RESULT:    -7.321      3.941      9.051
REMARK INTER + INTRA:         -11.068
REMARK INTER:                 -10.037
REMARK INTRA:                  -1.031
REMARK UNBOUND:                -1.180
REMARK  Name = 
REMARK  7 active torsions:
REMARK  status: ('A' for Active; 'I' for Inactive)
REMARK    1  A    between atoms: C_1  and  C_2
REMARK    2  A    between atoms: C_2  and  N_3
REMARK    3  A    between atoms: C_2  and  C_16
REMARK    4  A    between atoms: C_4  and  C_6
REMARK    5  A    between atoms: C_19  and  C_20
REMARK    6  A    between atoms: C_20  and  N_21
REMARK    7  A    between atoms: C_22  and  C_24
REMARK                            x       y       z     vdW  Elec       q    Type
REMARK                         _______ _______ _______ _____ _____    ______ ____
ROOT
ATOM      1  C   UNL     1      49.348   7.674  12.762  0.00  0.00    +0.000 C 
ATOM      2  C   UNL     1      48.075   7.138  13.425  0.00  0.00    +0.000 C 
ENDROOT
BRANCH   2   3
ATOM      3  C   UNL     1      48.416   6.404  14.708  0.00  0.00    +0.000 A 
ATOM      4  C   UNL     1      49.403   6.865  15.581  0.00  0.00    +0.000 A 
ATOM      5  C   UNL     1      49.659   6.178  16.769  0.00  0.00    +0.000 A 
ATOM      6  C   UNL     1      48.922   5.033  17.065  0.00  0.00    +0.000 A 
ATOM      7  N   UNL     1      47.952   4.566  16.239  0.00  0.00    +0.000 NA
ATOM      8  C   UNL     1      47.729   5.253  15.094  0.00  0.00    +0.000 A 
BRANCH   6   9
ATOM      9  C   UNL     1      49.166   4.273  18.349  0.00  0.00    +0.000 C 
BRANCH   9  10
ATOM     10  N   UNL     1      50.469   3.649  18.393  0.00  0.00    +0.000 N 
ATOM     11  C   UNL     1      50.836   2.614  17.564  0.00  0.00    +0.000 C 
ATOM     12  O   UNL     1      50.103   2.138  16.704  0.00  0.00    +0.000 OA
ATOM     13  H   UNL     1      51.186   4.036  18.999  0.00  0.00    +0.000 HD
BRANCH  11  14
ATOM     14  C   UNL     1      52.223   2.085  17.792  0.00  0.00    +0.000 A 
ATOM     15  C   UNL     1      52.555   0.810  17.349  0.00  0.00    +0.000 A 
ATOM     16  C   UNL     1      53.846   0.345  17.587  0.00  0.00    +0.000 A 
ATOM     17  C   UNL     1      54.749   1.158  18.263  0.00  0.00    +0.000 A 
ATOM     18  C   UNL     1      54.328   2.414  18.675  0.00  0.00    +0.000 A 
ATOM     19  N   UNL     1      53.089   2.907  18.451  0.00  0.00    +0.000 NA
ENDBRANCH  11  14
ENDBRANCH   9  10
ENDBRANCH   6   9
ENDBRANCH   2   3
BRANCH   2  20
ATOM     20  N   UNL     1      47.328   6.243  12.555  0.00  0.00    +0.000 N 
ATOM     21  C   UNL     1      46.251   6.625  11.794  0.00  0.00    +0.000 C 
ATOM     22  O   UNL     1      45.841   7.779  11.746  0.00  0.00    +0.000 OA
ATOM     23  H   UNL     1      47.371   5.263  12.817  0.00  0.00    +0.000 HD
BRANCH  21  24
ATOM     24  C   UNL     1      45.663   5.568  10.961  0.00  0.00    +0.000 A 
ATOM     25  C   UNL     1      45.802   5.609   9.581  0.00  0.00    +0.000 A 
ATOM     26  S   UNL     1      45.113   4.264   8.788  0.00  0.00    +0.000 S 
ATOM     27  C   UNL     1      44.561   3.608  10.259  0.00  0.00    +0.000 A 
ATOM     28  N   UNL     1      43.857   2.444  10.291  0.00  0.00    +0.000 NA
ATOM     29  C   UNL     1      43.481   2.082  11.471  0.00  0.00    +0.000 A 
ATOM     30  N   UNL     1      43.746   2.774  12.626  0.00  0.00    +0.000 N 
ATOM     31  C   UNL     1      44.472   3.939  12.643  0.00  0.00    +0.000 A 
ATOM     32  O   UNL     1      44.729   4.518  13.693  0.00  0.00    +0.000 OA
ATOM     33  C   UNL     1      44.913   4.394  11.339  0.00  0.00    +0.000 A 
ATOM     34  H   UNL     1      43.431   2.433  13.522  0.00  0.00    +0.000 HD
ENDBRANCH  21  24
ENDBRANCH   2  20
TORSDOF 6
ENDMDL
MODEL 5
REMARK VINA RESULT:    -7.309      3.696      5.201
REMARK INTER + INTRA:         -11.053
REMARK INTER:                  -9.961
REMARK INTRA:                  -1.092
REMARK UNBOUND:                -1.180
REMARK  Name = 
REMARK  7 active torsions:
REMARK  status: ('A' for Active; 'I' for Inactive)
REMARK    1  A    between atoms: C_1  and  C_2
REMARK    2  A    between atoms: C_2  and  N_3
REMARK    3  A    between atoms: C_2  and  C_16
REMARK    4  A    between atoms: C_4  and  C_6
REMARK    5  A    between atoms: C_19  and  C_20
REMARK    6  A    between atoms: C_20  and  N_21
REMARK    7  A    between atoms: C_22  and  C_24
REMARK                            x       y       z     vdW  Elec       q    Type
REMARK                         _______ _______ _______ _____ _____    ______ ____
ROOT
ATOM      1  C   UNL     1      47.457   3.116  17.502  0.00  0.00    +0.000 C 
ATOM      2  C   UNL     1      48.343   4.361  17.380  0.00  0.00    +0.000 C 
ENDROOT
BRANCH   2   3
ATOM      3  C   UNL     1      48.015   5.121  16.109  0.00  0.00    +0.000 A 
ATOM      4  C   UNL     1      48.661   6.312  15.774  0.00  0.00    +0.000 A 
ATOM      5  C   UNL     1      48.354   6.959  14.576  0.00  0.00    +0.000 A 
ATOM      6  C   UNL     1      47.398   6.402  13.728  0.00  0.00    +0.000 A 
ATOM      7  N   UNL     1      46.759   5.242  14.024  0.00  0.00    +0.000 NA
ATOM      8  C   UNL     1      47.077   4.640  15.194  0.00  0.00    +0.000 A 
BRANCH   6   9
ATOM      9  C   UNL     1      47.051   7.071  12.418  0.00  0.00    +0.000 C 
BRANCH   9  10
ATOM     10  N   UNL     1      46.719   6.125  11.375  0.00  0.00    +0.000 N 
ATOM     11  C   UNL     1      45.426   5.854  10.989  0.00  0.00    +0.000 C 
ATOM     12  O   UNL     1      44.442   6.400  11.477  0.00  0.00    +0.000 OA
ATOM     13  H   UNL     1      47.465   5.696  10.837  0.00  0.00    +0.000 HD
BRANCH  11  14
ATOM     14  C   UNL     1      45.294   4.818   9.910  0.00  0.00    +0.000 A 
ATOM     15  C   UNL     1      44.549   3.668  10.148  0.00  0.00    +0.000 A 
ATOM     16  C   UNL     1      44.457   2.721   9.132  0.00  0.00    +0.000 A 
ATOM     17  C   UNL     1      45.116   2.947   7.927  0.00  0.00    +0.000 A 
ATOM     18  C   UNL     1      45.842   4.120   7.782  0.00  0.00    +0.000 A 
ATOM     19  N   UNL     1      45.945   5.070   8.738  0.00  0.00    +0.000 NA
ENDBRANCH  11  14
ENDBRANCH   9  10
ENDBRANCH   6   9
ENDBRANCH   2   3
BRANCH   2  20
ATOM     20  N   UNL     1      49.761   4.038  17.381  0.00  0.00    +0.000 N 
ATOM     21  C   UNL     1      50.594   4.216  18.458  0.00  0.00    +0.000 C 
ATOM     22  O   UNL     1      50.205   4.631  19.543  0.00  0.00    +0.000 OA
ATOM     23  H   UNL     1      50.200   4.045  16.465  0.00  0.00    +0.000 HD
BRANCH  21  24
ATOM     24  C   UNL     1      51.985   3.792  18.254  0.00  0.00    +0.000 A 
ATOM     25  C   UNL     1      53.025   4.686  18.473  0.00  0.00    +0.000 A 
ATOM     26  S   UNL     1      54.571   3.997  18.251  0.00  0.00    +0.000 S 
ATOM     27  C   UNL     1      53.901   2.497  17.806  0.00  0.00    +0.000 A 
ATOM     28  N   UNL     1      54.693   1.446  17.460  0.00  0.00    +0.000 NA
ATOM     29  C   UNL     1      54.048   0.381  17.120  0.00  0.00    +0.000 A 
ATOM     30  N   UNL     1      52.681   0.267  17.096  0.00  0.00    +0.000 N 
ATOM     31  C   UNL     1      51.843   1.293  17.459  0.00  0.00    +0.000 A 
ATOM     32  O   UNL     1      50.625   1.153  17.466  0.00  0.00    +0.000 OA
ATOM     33  C   UNL     1      52.520   2.516  17.843  0.00  0.00    +0.000 A 
ATOM     34  H   UNL     1      52.234  -0.597  16.829  0.00  0.00    +0.000 HD
ENDBRANCH  21  24
ENDBRANCH   2  20
TORSDOF 6
ENDMDL
MODEL 6
REMARK VINA RESULT:    -7.255      2.079      2.546
REMARK INTER + INTRA:         -10.979
REMARK INTER:                  -9.708
REMARK INTRA:                  -1.271
REMARK UNBOUND:                -1.180
REMARK  Name = 
REMARK  7 active torsions:
REMARK  status: ('A' for Active; 'I' for Inactive)
REMARK    1  A    between atoms: C_1  and  C_2
REMARK    2  A    between atoms: C_2  and  N_3
REMARK    3  A    between atoms: C_2  and  C_16
REMARK    4  A    between atoms: C_4  and  C_6
REMARK    5  A    between atoms: C_19  and  C_20
REMARK    6  A    between atoms: C_20  and  N_21
REMARK    7  A    between atoms: C_22  and  C_24
REMARK                            x       y       z     vdW  Elec       q    Type
REMARK                         _______ _______ _______ _____ _____    ______ ____
ROOT
ATOM      1  C   UNL     1      48.663  10.142  14.799  0.00  0.00    +0.000 C 
ATOM      2  C   UNL     1      49.032   8.708  14.402  0.00  0.00    +0.000 C 
ENDROOT
BRANCH   2   3
ATOM      3  C   UNL     1      47.988   8.135  13.462  0.00  0.00    +0.000 A 
ATOM      4  C   UNL     1      48.241   7.008  12.678  0.00  0.00    +0.000 A 
ATOM      5  C   UNL     1      47.239   6.493  11.854  0.00  0.00    +0.000 A 
ATOM      6  C   UNL     1      45.994   7.118  11.825  0.00  0.00    +0.000 A 
ATOM      7  N   UNL     1      45.717   8.210  12.581  0.00  0.00    +0.000 NA
ATOM      8  C   UNL     1      46.710   8.687  13.368  0.00  0.00    +0.000 A 
BRANCH   6   9
ATOM      9  C   UNL     1      44.883   6.578  10.954  0.00  0.00    +0.000 C 
BRANCH   9  10
ATOM     10  N   UNL     1      45.356   5.641   9.958  0.00  0.00    +0.000 N 
ATOM     11  C   UNL     1      44.849   4.369   9.820  0.00  0.00    +0.000 C 
ATOM     12  O   UNL     1      43.941   3.920  10.513  0.00  0.00    +0.000 OA
ATOM     13  H   UNL     1      46.034   5.949   9.268  0.00  0.00    +0.000 HD
BRANCH  11  14
ATOM     14  C   UNL     1      45.499   3.544   8.747  0.00  0.00    +0.000 A 
ATOM     15  C   UNL     1      45.636   2.172   8.922  0.00  0.00    +0.000 A 
ATOM     16  C   UNL     1      46.254   1.437   7.914  0.00  0.00    +0.000 A 
ATOM     17  C   UNL     1      46.720   2.094   6.780  0.00  0.00    +0.000 A 
ATOM     18  C   UNL     1      46.546   3.468   6.694  0.00  0.00    +0.000 A 
ATOM     19  N   UNL     1      45.939   4.214   7.644  0.00  0.00    +0.000 NA
ENDBRANCH  11  14
ENDBRANCH   9  10
ENDBRANCH   6   9
ENDBRANCH   2   3
BRANCH   2  20
ATOM     20  N   UNL     1      49.162   7.827  15.552  0.00  0.00    +0.000 N 
ATOM     21  C   UNL     1      50.322   7.184  15.906  0.00  0.00    +0.000 C 
ATOM     22  O   UNL     1      51.378   7.326  15.300  0.00  0.00    +0.000 OA
ATOM     23  H   UNL     1      48.295   7.395  15.857  0.00  0.00    +0.000 HD
BRANCH  21  24
ATOM     24  C   UNL     1      50.242   6.367  17.124  0.00  0.00    +0.000 A 
ATOM     25  C   UNL     1      51.076   6.635  18.200  0.00  0.00    +0.000 A 
ATOM     26  S   UNL     1      50.793   5.628  19.548  0.00  0.00    +0.000 S 
ATOM     27  C   UNL     1      49.581   4.766  18.720  0.00  0.00    +0.000 A 
ATOM     28  N   UNL     1      48.928   3.727  19.309  0.00  0.00    +0.000 NA
ATOM     29  C   UNL     1      48.054   3.150  18.554  0.00  0.00    +0.000 A 
ATOM     30  N   UNL     1      47.769   3.517  17.263  0.00  0.00    +0.000 N 
ATOM     31  C   UNL     1      48.386   4.573  16.637  0.00  0.00    +0.000 A 
ATOM     32  O   UNL     1      48.085   4.905  15.496  0.00  0.00    +0.000 OA
ATOM     33  C   UNL     1      49.383   5.251  17.442  0.00  0.00    +0.000 A 
ATOM     34  H   UNL     1      47.067   3.032  16.726  0.00  0.00    +0.000 HD
ENDBRANCH  21  24
ENDBRANCH   2  20
TORSDOF 6
ENDMDL
MODEL 7
REMARK VINA RESULT:    -7.193      4.281      6.779
REMARK INTER + INTRA:         -10.896
REMARK INTER:                  -9.969
REMARK INTRA:                  -0.927
REMARK UNBOUND:                -1.180
REMARK  Name = 
REMARK  7 active torsions:
REMARK  status: ('A' for Active; 'I' for Inactive)
REMARK    1  A    between atoms: C_1  and  C_2
REMARK    2  A    between atoms: C_2  and  N_3
REMARK    3  A    between atoms: C_2  and  C_16
REMARK    4  A    between atoms: C_4  and  C_6
REMARK    5  A    between atoms: C_19  and  C_20
REMARK    6  A    between atoms: C_20  and  N_21
REMARK    7  A    between atoms: C_22  and  C_24
REMARK                            x       y       z     vdW  Elec       q    Type
REMARK                         _______ _______ _______ _____ _____    ______ ____
ROOT
ATOM      1  C   UNL     1      46.693   3.504  13.111  0.00  0.00    +0.000 C 
ATOM      2  C   UNL     1      46.383   4.547  14.191  0.00  0.00    +0.000 C 
ENDROOT
BRANCH   2   3
ATOM      3  C   UNL     1      46.079   5.891  13.556  0.00  0.00    +0.000 A 
ATOM      4  C   UNL     1      44.906   6.115  12.832  0.00  0.00    +0.000 A 
ATOM      5  C   UNL     1      44.649   7.377  12.296  0.00  0.00    +0.000 A 
ATOM      6  C   UNL     1      45.576   8.401  12.491  0.00  0.00    +0.000 A 
ATOM      7  N   UNL     1      46.719   8.214  13.196  0.00  0.00    +0.000 NA
ATOM      8  C   UNL     1      46.941   6.978  13.702  0.00  0.00    +0.000 A 
BRANCH   6   9
ATOM      9  C   UNL     1      45.321   9.783  11.935  0.00  0.00    +0.000 C 
BRANCH   9  10
ATOM     10  N   UNL     1      43.942  10.197  12.068  0.00  0.00    +0.000 N 
ATOM     11  C   UNL     1      43.102  10.375  10.993  0.00  0.00    +0.000 C 
ATOM     12  O   UNL     1      43.437  10.183   9.829  0.00  0.00    +0.000 OA
ATOM     13  H   UNL     1      43.536  10.283  12.995  0.00  0.00    +0.000 HD
BRANCH  11  14
ATOM     14  C   UNL     1      41.717  10.838  11.344  0.00  0.00    +0.000 A 
ATOM     15  C   UNL     1      40.663  10.576  10.477  0.00  0.00    +0.000 A 
ATOM     16  C   UNL     1      39.394  11.030  10.826  0.00  0.00    +0.000 A 
ATOM     17  C   UNL     1      39.225  11.734  12.014  0.00  0.00    +0.000 A 
ATOM     18  C   UNL     1      40.336  11.955  12.815  0.00  0.00    +0.000 A 
ATOM     19  N   UNL     1      41.581  11.518  12.519  0.00  0.00    +0.000 NA
ENDBRANCH  11  14
ENDBRANCH   9  10
ENDBRANCH   6   9
ENDBRANCH   2   3
BRANCH   2  20
ATOM     20  N   UNL     1      47.475   4.711  15.138  0.00  0.00    +0.000 N 
ATOM     21  C   UNL     1      47.495   4.167  16.398  0.00  0.00    +0.000 C 
ATOM     22  O   UNL     1      46.600   3.451  16.832  0.00  0.00    +0.000 OA
ATOM     23  H   UNL     1      48.038   5.544  14.997  0.00  0.00    +0.000 HD
BRANCH  21  24
ATOM     24  C   UNL     1      48.711   4.429  17.178  0.00  0.00    +0.000 A 
ATOM     25  C   UNL     1      48.856   5.629  17.861  0.00  0.00    +0.000 A 
ATOM     26  S   UNL     1      50.301   5.727  18.764  0.00  0.00    +0.000 S 
ATOM     27  C   UNL     1      50.805   4.191  18.231  0.00  0.00    +0.000 A 
ATOM     28  N   UNL     1      51.997   3.665  18.622  0.00  0.00    +0.000 NA
ATOM     29  C   UNL     1      52.259   2.506  18.119  0.00  0.00    +0.000 A 
ATOM     30  N   UNL     1      51.438   1.819  17.261  0.00  0.00    +0.000 N 
ATOM     31  C   UNL     1      50.216   2.300  16.859  0.00  0.00    +0.000 A 
ATOM     32  O   UNL     1      49.483   1.650  16.122  0.00  0.00    +0.000 OA
ATOM     33  C   UNL     1      49.877   3.605  17.392  0.00  0.00    +0.000 A 
ATOM     34  H   UNL     1      51.695   0.910  16.908  0.00  0.00    +0.000 HD
ENDBRANCH  21  24
ENDBRANCH   2  20
TORSDOF 6
ENDMDL
MODEL 8
REMARK VINA RESULT:    -7.093      4.064      6.162
REMARK INTER + INTRA:         -10.761
REMARK INTER:                  -9.609
REMARK INTRA:                  -1.152
REMARK UNBOUND:                -1.180
REMARK  Name = 
REMARK  7 active torsions:
REMARK  status: ('A' for Active; 'I' for Inactive)
REMARK    1  A    between atoms: C_1  and  C_2
REMARK    2  A    between atoms: C_2  and  N_3
REMARK    3  A    between atoms: C_2  and  C_16
REMARK    4  A    between atoms: C_4  and  C_6
REMARK    5  A    between atoms: C_19  and  C_20
REMARK    6  A    between atoms: C_20  and  N_21
REMARK    7  A    between atoms: C_22  and  C_24
REMARK                            x       y       z     vdW  Elec       q    Type
REMARK                         _______ _______ _______ _____ _____    ______ ____
ROOT
ATOM      1  C   UNL     1      48.306   8.533  15.413  0.00  0.00    +0.000 C 
ATOM      2  C   UNL     1      47.943   9.065  14.023  0.00  0.00    +0.000 C 
ENDROOT
BRANCH   2   3
ATOM      3  C   UNL     1      46.976   8.121  13.332  0.00  0.00    +0.000 A 
ATOM      4  C   UNL     1      45.829   8.584  12.685  0.00  0.00    +0.000 A 
ATOM      5  C   UNL     1      44.987   7.683  12.030  0.00  0.00    +0.000 A 
ATOM      6  C   UNL     1      45.306   6.326  12.036  0.00  0.00    +0.000 A 
ATOM      7  N   UNL     1      46.418   5.849  12.651  0.00  0.00    +0.000 NA
ATOM      8  C   UNL     1      47.213   6.747  13.278  0.00  0.00    +0.000 A 
BRANCH   6   9
ATOM      9  C   UNL     1      44.422   5.327  11.326  0.00  0.00    +0.000 C 
BRANCH   9  10
ATOM     10  N   UNL     1      45.101   4.643  10.247  0.00  0.00    +0.000 N 
ATOM     11  C   UNL     1      44.717   3.408   9.779  0.00  0.00    +0.000 C 
ATOM     12  O   UNL     1      43.758   2.782  10.219  0.00  0.00    +0.000 OA
ATOM     13  H   UNL     1      45.844   5.121   9.746  0.00  0.00    +0.000 HD
BRANCH  11  14
ATOM     14  C   UNL     1      45.573   2.858   8.675  0.00  0.00    +0.000 A 
ATOM     15  C   UNL     1      46.008   3.699   7.657  0.00  0.00    +0.000 A 
ATOM     16  C   UNL     1      46.789   3.155   6.641  0.00  0.00    +0.000 A 
ATOM     17  C   UNL     1      47.098   1.798   6.671  0.00  0.00    +0.000 A 
ATOM     18  C   UNL     1      46.614   1.034   7.723  0.00  0.00    +0.000 A 
ATOM     19  N   UNL     1      45.865   1.527   8.734  0.00  0.00    +0.000 NA
ENDBRANCH  11  14
ENDBRANCH   9  10
ENDBRANCH   6   9
ENDBRANCH   2   3
BRANCH   2  20
ATOM     20  N   UNL     1      49.109   9.248  13.173  0.00  0.00    +0.000 N 
ATOM     21  C   UNL     1      49.193  10.174  12.164  0.00  0.00    +0.000 C 
ATOM     22  O   UNL     1      48.297  10.970  11.909  0.00  0.00    +0.000 OA
ATOM     23  H   UNL     1      49.703   8.429  13.085  0.00  0.00    +0.000 HD
BRANCH  21  24
ATOM     24  C   UNL     1      50.476  10.213  11.450  0.00  0.00    +0.000 A 
ATOM     25  C   UNL     1      51.076  11.430  11.159  0.00  0.00    +0.000 A 
ATOM     26  S   UNL     1      52.590  11.274  10.388  0.00  0.00    +0.000 S 
ATOM     27  C   UNL     1      52.471   9.576  10.372  0.00  0.00    +0.000 A 
ATOM     28  N   UNL     1      53.449   8.806   9.821  0.00  0.00    +0.000 NA
ATOM     29  C   UNL     1      53.211   7.538   9.856  0.00  0.00    +0.000 A 
ATOM     30  N   UNL     1      52.087   6.965  10.395  0.00  0.00    +0.000 N 
ATOM     31  C   UNL     1      51.087   7.701  10.982  0.00  0.00    +0.000 A 
ATOM     32  O   UNL     1      50.111   7.163  11.491  0.00  0.00    +0.000 OA
ATOM     33  C   UNL     1      51.303   9.134  10.962  0.00  0.00    +0.000 A 
ATOM     34  H   UNL     1      51.964   5.964  10.401  0.00  0.00    +0.000 HD
ENDBRANCH  21  24
ENDBRANCH   2  20
TORSDOF 6
ENDMDL
MODEL 9
REMARK VINA RESULT:    -7.012      3.524      5.420
REMARK INTER + INTRA:         -10.652
REMARK INTER:                  -9.466
REMARK INTRA:                  -1.186
REMARK UNBOUND:                -1.180
REMARK  Name = 
REMARK  7 active torsions:
REMARK  status: ('A' for Active; 'I' for Inactive)
REMARK    1  A    between atoms: C_1  and  C_2
REMARK    2  A    between atoms: C_2  and  N_3
REMARK    3  A    between atoms: C_2  and  C_16
REMARK    4  A    between atoms: C_4  and  C_6
REMARK    5  A    between atoms: C_19  and  C_20
REMARK    6  A    between atoms: C_20  and  N_21
REMARK    7  A    between atoms: C_22  and  C_24
REMARK                            x       y       z     vdW  Elec       q    Type
REMARK                         _______ _______ _______ _____ _____    ______ ____
ROOT
ATOM      1  C   UNL     1      48.580   5.872  16.248  0.00  0.00    +0.000 C 
ATOM      2  C   UNL     1      48.463   6.895  15.113  0.00  0.00    +0.000 C 
ENDROOT
BRANCH   2   3
ATOM      3  C   UNL     1      47.515   6.389  14.042  0.00  0.00    +0.000 A 
ATOM      4  C   UNL     1      47.015   5.086  14.057  0.00  0.00    +0.000 A 
ATOM      5  C   UNL     1      46.115   4.674  13.072  0.00  0.00    +0.000 A 
ATOM      6  C   UNL     1      45.730   5.576  12.082  0.00  0.00    +0.000 A 
ATOM      7  N   UNL     1      46.194   6.850  12.047  0.00  0.00    +0.000 NA
ATOM      8  C   UNL     1      47.066   7.219  13.014  0.00  0.00    +0.000 A 
BRANCH   6   9
ATOM      9  C   UNL     1      44.748   5.165  11.009  0.00  0.00    +0.000 C 
BRANCH   9  10
ATOM     10  N   UNL     1      45.377   4.467   9.909  0.00  0.00    +0.000 N 
ATOM     11  C   UNL     1      44.960   3.234   9.464  0.00  0.00    +0.000 C 
ATOM     12  O   UNL     1      44.011   2.622   9.944  0.00  0.00    +0.000 OA
ATOM     13  H   UNL     1      46.105   4.932   9.377  0.00  0.00    +0.000 HD
BRANCH  11  14
ATOM     14  C   UNL     1      45.766   2.667   8.331  0.00  0.00    +0.000 A 
ATOM     15  C   UNL     1      46.064   3.464   7.232  0.00  0.00    +0.000 A 
ATOM     16  C   UNL     1      46.803   2.904   6.193  0.00  0.00    +0.000 A 
ATOM     17  C   UNL     1      47.206   1.576   6.282  0.00  0.00    +0.000 A 
ATOM     18  C   UNL     1      46.857   0.854   7.413  0.00  0.00    +0.000 A 
ATOM     19  N   UNL     1      46.153   1.364   8.449  0.00  0.00    +0.000 NA
ENDBRANCH  11  14
ENDBRANCH   9  10
ENDBRANCH   6   9
ENDBRANCH   2   3
BRANCH   2  20
ATOM     20  N   UNL     1      49.747   7.196  14.499  0.00  0.00    +0.000 N 
ATOM     21  C   UNL     1      50.409   8.391  14.638  0.00  0.00    +0.000 C 
ATOM     22  O   UNL     1      49.993   9.310  15.334  0.00  0.00    +0.000 OA
ATOM     23  H   UNL     1      49.954   6.660  13.662  0.00  0.00    +0.000 HD
BRANCH  21  24
ATOM     24  C   UNL     1      51.709   8.472  13.960  0.00  0.00    +0.000 A 
ATOM     25  C   UNL     1      52.866   8.689  14.695  0.00  0.00    +0.000 A 
ATOM     26  S   UNL     1      54.285   8.686  13.746  0.00  0.00    +0.000 S 
ATOM     27  C   UNL     1      53.395   8.446  12.315  0.00  0.00    +0.000 A 
ATOM     28  N   UNL     1      54.013   8.370  11.105  0.00  0.00    +0.000 NA
ATOM     29  C   UNL     1      53.210   8.213  10.106  0.00  0.00    +0.000 A 
ATOM     30  N   UNL     1      51.845   8.121  10.203  0.00  0.00    +0.000 N 
ATOM     31  C   UNL     1      51.181   8.169  11.405  0.00  0.00    +0.000 A 
ATOM     32  O   UNL     1      49.964   8.045  11.469  0.00  0.00    +0.000 OA
ATOM     33  C   UNL     1      52.038   8.351  12.560  0.00  0.00    +0.000 A 
ATOM     34  H   UNL     1      51.272   7.990   9.384  0.00  0.00    +0.000 HD
ENDBRANCH  21  24
ENDBRANCH   2  20
TORSDOF 6
ENDMDL
