MODEL 1
REMARK VINA RESULT:    -8.186      0.000      0.000
REMARK INTER + INTRA:         -10.921
REMARK INTER:                 -10.100
REMARK INTRA:                  -0.820
REMARK UNBOUND:                -0.820
REMARK  Name = 
REMARK  4 active torsions:
REMARK  status: ('A' for Active; 'I' for Inactive)
REMARK    1  A    between atoms: C_7  and  N_8
REMARK    2  A    between atoms: N_8  and  C_9
REMARK    3  A    between atoms: C_9  and  C_10
REMARK    4  A    between atoms: C_14  and  C_15
REMARK                            x       y       z     vdW  Elec       q    Type
REMARK                         _______ _______ _______ _____ _____    ______ ____
ROOT
ATOM      1  C   UNL     1      43.719   4.668  10.640  0.00  0.00    +0.000 A 
ATOM      2  C   UNL     1      43.153   3.612  11.341  0.00  0.00    +0.000 A 
ATOM      3  N   UNL     1      43.379   2.314  11.050  0.00  0.00    +0.000 NA
ATOM      4  C   UNL     1      44.223   2.053  10.022  0.00  0.00    +0.000 A 
ATOM      5  C   UNL     1      44.867   3.018   9.246  0.00  0.00    +0.000 A 
ATOM      6  C   UNL     1      44.592   4.353   9.589  0.00  0.00    +0.000 A 
ENDROOT
BRANCH   5   7
ATOM      7  C   UNL     1      45.776   2.661   8.135  0.00  0.00    +0.000 A 
ATOM      8  C   UNL     1      46.071   3.551   7.091  0.00  0.00    +0.000 A 
ATOM      9  C   UNL     1      46.930   3.178   6.057  0.00  0.00    +0.000 A 
ATOM     10  C   UNL     1      47.492   1.915   6.092  0.00  0.00    +0.000 A 
ATOM     11  N   UNL     1      47.249   1.022   7.070  0.00  0.00    +0.000 NA
ATOM     12  C   UNL     1      46.400   1.414   8.054  0.00  0.00    +0.000 A 
ENDBRANCH   5   7
BRANCH   1  13
ATOM     13  C   UNL     1      43.403   6.093  10.998  0.00  0.00    +0.000 C 
BRANCH  13  14
ATOM     14  N   UNL     1      43.856   6.379  12.353  0.00  0.00    +0.000 N 
ATOM     15  H   UNL     1      43.287   5.915  13.061  0.00  0.00    +0.000 HD
BRANCH  14  22
ATOM     16 CL   UNL     1      48.801   7.684  11.566  0.00  0.00    +0.000 Cl
ATOM     17  C   UNL     1      47.577   6.780  12.370  0.00  0.00    +0.000 A 
ATOM     18  C   UNL     1      47.929   5.872  13.360  0.00  0.00    +0.000 A 
ATOM     19  C   UNL     1      46.929   5.135  13.982  0.00  0.00    +0.000 A 
ATOM     20 CL   UNL     1      47.343   4.008  15.216  0.00  0.00    +0.000 Cl
ATOM     21  C   UNL     1      45.589   5.307  13.622  0.00  0.00    +0.000 A 
ATOM     22  C   UNL     1      45.218   6.251  12.656  0.00  0.00    +0.000 A 
ATOM     23  C   UNL     1      46.236   6.970  12.017  0.00  0.00    +0.000 A 
ENDBRANCH  14  22
ENDBRANCH  13  14
ENDBRANCH   1  13
TORSDOF 4
ENDMDL
MODEL 2
REMARK VINA RESULT:    -8.079      0.088      1.919
REMARK INTER + INTRA:         -10.789
REMARK INTER:                 -10.009
REMARK INTRA:                  -0.780
REMARK UNBOUND:                -0.820
REMARK  Name = 
REMARK  4 active torsions:
REMARK  status: ('A' for Active; 'I' for Inactive)
REMARK    1  A    between atoms: C_7  and  N_8
REMARK    2  A    between atoms: N_8  and  C_9
REMARK    3  A    between atoms: C_9  and  C_10
REMARK    4  A    between atoms: C_14  and  C_15
REMARK                            x       y       z     vdW  Elec       q    Type
REMARK                         _______ _______ _______ _____ _____    ______ ____
ROOT
ATOM      1  C   UNL     1      43.801   4.720  10.575  0.00  0.00    +0.000 A 
ATOM      2  C   UNL     1      43.213   3.679  11.280  0.00  0.00    +0.000 A 
ATOM      3  N   UNL     1      43.418   2.375  11.000  0.00  0.00    +0.000 NA
ATOM      4  C   UNL     1      44.265   2.093   9.979  0.00  0.00    +0.000 A 
ATOM      5  C   UNL     1      44.931   3.041   9.201  0.00  0.00    +0.000 A 
ATOM      6  C   UNL     1      44.676   4.383   9.533  0.00  0.00    +0.000 A 
ENDROOT
BRANCH   5   7
ATOM      7  C   UNL     1      45.841   2.661   8.099  0.00  0.00    +0.000 A 
ATOM      8  C   UNL     1      46.111   3.517   7.020  0.00  0.00    +0.000 A 
ATOM      9  C   UNL     1      46.973   3.122   5.996  0.00  0.00    +0.000 A 
ATOM     10  C   UNL     1      47.561   1.874   6.075  0.00  0.00    +0.000 A 
ATOM     11  N   UNL     1      47.341   1.013   7.087  0.00  0.00    +0.000 NA
ATOM     12  C   UNL     1      46.490   1.425   8.061  0.00  0.00    +0.000 A 
ENDBRANCH   5   7
BRANCH   1  13
ATOM     13  C   UNL     1      43.507   6.153  10.922  0.00  0.00    +0.000 C 
BRANCH  13  14
ATOM     14  N   UNL     1      43.909   6.428  12.294  0.00  0.00    +0.000 N 
ATOM     15  H   UNL     1      43.269   6.021  12.977  0.00  0.00    +0.000 HD
BRANCH  14  22
ATOM     16 CL   UNL     1      47.431   3.949  15.163  0.00  0.00    +0.000 Cl
ATOM     17  C   UNL     1      46.984   5.106  13.971  0.00  0.00    +0.000 A 
ATOM     18  C   UNL     1      47.964   5.867  13.346  0.00  0.00    +0.000 A 
ATOM     19  C   UNL     1      47.581   6.811  12.402  0.00  0.00    +0.000 A 
ATOM     20 CL   UNL     1      48.782   7.760  11.612  0.00  0.00    +0.000 Cl
ATOM     21  C   UNL     1      46.233   6.991  12.080  0.00  0.00    +0.000 A 
ATOM     22  C   UNL     1      45.240   6.201  12.672  0.00  0.00    +0.000 A 
ATOM     23  C   UNL     1      45.633   5.270  13.640  0.00  0.00    +0.000 A 
ENDBRANCH  14  22
ENDBRANCH  13  14
ENDBRANCH   1  13
TORSDOF 4
ENDMDL
MODEL 3
REMARK VINA RESULT:    -7.725      1.478      2.443
REMARK INTER + INTRA:         -10.351
REMARK INTER:                  -9.631
REMARK INTRA:                  -0.720
REMARK UNBOUND:                -0.820
REMARK  Name = 
REMARK  4 active torsions:
REMARK  status: ('A' for Active; 'I' for Inactive)
REMARK    1  A    between atoms: C_7  and  N_8
REMARK    2  A    between atoms: N_8  and  C_9
REMARK    3  A    between atoms: C_9  and  C_10
REMARK    4  A    between atoms: C_14  and  C_15
REMARK                            x       y       z     vdW  Elec       q    Type
REMARK                         _______ _______ _______ _____ _____    ______ ____
ROOT
ATOM      1  C   UNL     1      43.747   5.033  11.020  0.00  0.00    +0.000 A 
ATOM      2  C   UNL     1      43.100   4.037  11.737  0.00  0.00    +0.000 A 
ATOM      3  N   UNL     1      43.201   2.723  11.452  0.00  0.00    +0.000 NA
ATOM      4  C   UNL     1      44.001   2.381  10.411  0.00  0.00    +0.000 A 
ATOM      5  C   UNL     1      44.717   3.278   9.618  0.00  0.00    +0.000 A 
ATOM      6  C   UNL     1      44.570   4.634   9.956  0.00  0.00    +0.000 A 
ENDROOT
BRANCH   5   7
ATOM      7  C   UNL     1      45.570   2.834   8.495  0.00  0.00    +0.000 A 
ATOM      8  C   UNL     1      45.951   3.696   7.456  0.00  0.00    +0.000 A 
ATOM      9  C   UNL     1      46.755   3.240   6.410  0.00  0.00    +0.000 A 
ATOM     10  C   UNL     1      47.174   1.923   6.428  0.00  0.00    +0.000 A 
ATOM     11  N   UNL     1      46.843   1.053   7.401  0.00  0.00    +0.000 NA
ATOM     12  C   UNL     1      46.052   1.527   8.397  0.00  0.00    +0.000 A 
ENDBRANCH   5   7
BRANCH   1  13
ATOM     13  C   UNL     1      43.568   6.484  11.373  0.00  0.00    +0.000 C 
BRANCH  13  14
ATOM     14  N   UNL     1      44.366   6.814  12.546  0.00  0.00    +0.000 N 
ATOM     15  H   UNL     1      44.556   5.999  13.131  0.00  0.00    +0.000 HD
BRANCH  14  22
ATOM     16 CL   UNL     1      49.517   7.217  12.253  0.00  0.00    +0.000 Cl
ATOM     17  C   UNL     1      47.936   7.896  12.239  0.00  0.00    +0.000 A 
ATOM     18  C   UNL     1      47.776   9.266  12.071  0.00  0.00    +0.000 A 
ATOM     19  C   UNL     1      46.492   9.798  12.084  0.00  0.00    +0.000 A 
ATOM     20 CL   UNL     1      46.272  11.493  11.871  0.00  0.00    +0.000 Cl
ATOM     21  C   UNL     1      45.380   8.971  12.258  0.00  0.00    +0.000 A 
ATOM     22  C   UNL     1      45.526   7.584  12.386  0.00  0.00    +0.000 A 
ATOM     23  C   UNL     1      46.824   7.060  12.397  0.00  0.00    +0.000 A 
ENDBRANCH  14  22
ENDBRANCH  13  14
ENDBRANCH   1  13
TORSDOF 4
ENDMDL
MODEL 4
REMARK VINA RESULT:    -7.467      1.659      2.295
REMARK INTER + INTRA:         -10.034
REMARK INTER:                  -9.369
REMARK INTRA:                  -0.664
REMARK UNBOUND:                -0.820
REMARK  Name = 
REMARK  4 active torsions:
REMARK  status: ('A' for Active; 'I' for Inactive)
REMARK    1  A    between atoms: C_7  and  N_8
REMARK    2  A    between atoms: N_8  and  C_9
REMARK    3  A    between atoms: C_9  and  C_10
REMARK    4  A    between atoms: C_14  and  C_15
REMARK                            x       y       z     vdW  Elec       q    Type
REMARK                         _______ _______ _______ _____ _____    ______ ____
ROOT
ATOM      1  C   UNL     1      44.053   4.949  11.130  0.00  0.00    +0.000 A 
ATOM      2  C   UNL     1      43.282   3.975  11.749  0.00  0.00    +0.000 A 
ATOM      3  N   UNL     1      43.237   2.688  11.348  0.00  0.00    +0.000 NA
ATOM      4  C   UNL     1      44.011   2.349  10.288  0.00  0.00    +0.000 A 
ATOM      5  C   UNL     1      44.840   3.223   9.585  0.00  0.00    +0.000 A 
ATOM      6  C   UNL     1      44.844   4.552  10.042  0.00  0.00    +0.000 A 
ENDROOT
BRANCH   5   7
ATOM      7  C   UNL     1      45.658   2.784   8.434  0.00  0.00    +0.000 A 
ATOM      8  C   UNL     1      46.003   3.649   7.384  0.00  0.00    +0.000 A 
ATOM      9  C   UNL     1      46.774   3.197   6.312  0.00  0.00    +0.000 A 
ATOM     10  C   UNL     1      47.196   1.881   6.314  0.00  0.00    +0.000 A 
ATOM     11  N   UNL     1      46.898   1.008   7.295  0.00  0.00    +0.000 NA
ATOM     12  C   UNL     1      46.139   1.477   8.317  0.00  0.00    +0.000 A 
ENDBRANCH   5   7
BRANCH   1  13
ATOM     13  C   UNL     1      44.035   6.373  11.610  0.00  0.00    +0.000 C 
BRANCH  13  14
ATOM     14  N   UNL     1      45.098   6.585  12.584  0.00  0.00    +0.000 N 
ATOM     15  H   UNL     1      45.558   5.715  12.854  0.00  0.00    +0.000 HD
BRANCH  14  22
ATOM     16 CL   UNL     1      46.326  11.564  11.895  0.00  0.00    +0.000 Cl
ATOM     17  C   UNL     1      46.741   9.898  12.005  0.00  0.00    +0.000 A 
ATOM     18  C   UNL     1      48.065   9.505  11.852  0.00  0.00    +0.000 A 
ATOM     19  C   UNL     1      48.376   8.153  11.923  0.00  0.00    +0.000 A 
ATOM     20 CL   UNL     1      50.012   7.646  11.741  0.00  0.00    +0.000 Cl
ATOM     21  C   UNL     1      47.377   7.202  12.150  0.00  0.00    +0.000 A 
ATOM     22  C   UNL     1      46.046   7.590  12.350  0.00  0.00    +0.000 A 
ATOM     23  C   UNL     1      45.738   8.952  12.251  0.00  0.00    +0.000 A 
ENDBRANCH  14  22
ENDBRANCH  13  14
ENDBRANCH   1  13
TORSDOF 4
ENDMDL
MODEL 5
REMARK VINA RESULT:    -7.125      3.235      4.217
REMARK INTER + INTRA:          -9.612
REMARK INTER:                  -9.137
REMARK INTRA:                  -0.475
REMARK UNBOUND:                -0.820
REMARK  Name = 
REMARK  4 active torsions:
REMARK  status: ('A' for Active; 'I' for Inactive)
REMARK    1  A    between atoms: C_7  and  N_8
REMARK    2  A    between atoms: N_8  and  C_9
REMARK    3  A    between atoms: C_9  and  C_10
REMARK    4  A    between atoms: C_14  and  C_15
REMARK                            x       y       z     vdW  Elec       q    Type
REMARK                         _______ _______ _______ _____ _____    ______ ____
ROOT
ATOM      1  C   UNL     1      44.501   5.517  10.947  0.00  0.00    +0.000 A 
ATOM      2  C   UNL     1      43.518   4.741  11.546  0.00  0.00    +0.000 A 
ATOM      3  N   UNL     1      43.230   3.478  11.171  0.00  0.00    +0.000 NA
ATOM      4  C   UNL     1      43.968   2.955  10.161  0.00  0.00    +0.000 A 
ATOM      5  C   UNL     1      44.991   3.619   9.484  0.00  0.00    +0.000 A 
ATOM      6  C   UNL     1      45.245   4.933   9.912  0.00  0.00    +0.000 A 
ENDROOT
BRANCH   5   7
ATOM      7  C   UNL     1      45.755   2.986   8.387  0.00  0.00    +0.000 A 
ATOM      8  C   UNL     1      46.146   3.692   7.240  0.00  0.00    +0.000 A 
ATOM      9  C   UNL     1      46.863   3.060   6.224  0.00  0.00    +0.000 A 
ATOM     10  C   UNL     1      47.186   1.725   6.379  0.00  0.00    +0.000 A 
ATOM     11  N   UNL     1      46.841   0.999   7.459  0.00  0.00    +0.000 NA
ATOM     12  C   UNL     1      46.136   1.642   8.424  0.00  0.00    +0.000 A 
ENDBRANCH   5   7
BRANCH   1  13
ATOM     13  C   UNL     1      44.753   6.931  11.395  0.00  0.00    +0.000 C 
BRANCH  13  14
ATOM     14  N   UNL     1      43.582   7.754  11.128  0.00  0.00    +0.000 N 
ATOM     15  H   UNL     1      42.799   7.532  11.745  0.00  0.00    +0.000 HD
BRANCH  14  22
ATOM     16 CL   UNL     1      46.312  12.075  11.937  0.00  0.00    +0.000 Cl
ATOM     17  C   UNL     1      44.929  11.240  11.346  0.00  0.00    +0.000 A 
ATOM     18  C   UNL     1      43.905  11.950  10.731  0.00  0.00    +0.000 A 
ATOM     19  C   UNL     1      42.787  11.261  10.280  0.00  0.00    +0.000 A 
ATOM     20 CL   UNL     1      41.509  12.122   9.511  0.00  0.00    +0.000 Cl
ATOM     21  C   UNL     1      42.693   9.875  10.436  0.00  0.00    +0.000 A 
ATOM     22  C   UNL     1      43.738   9.143  11.014  0.00  0.00    +0.000 A 
ATOM     23  C   UNL     1      44.849   9.850  11.489  0.00  0.00    +0.000 A 
ENDBRANCH  14  22
ENDBRANCH  13  14
ENDBRANCH   1  13
TORSDOF 4
ENDMDL
MODEL 6
REMARK VINA RESULT:    -7.057      1.230      1.630
REMARK INTER + INTRA:          -9.527
REMARK INTER:                  -8.886
REMARK INTRA:                  -0.641
REMARK UNBOUND:                -0.820
REMARK  Name = 
REMARK  4 active torsions:
REMARK  status: ('A' for Active; 'I' for Inactive)
REMARK    1  A    between atoms: C_7  and  N_8
REMARK    2  A    between atoms: N_8  and  C_9
REMARK    3  A    between atoms: C_9  and  C_10
REMARK    4  A    between atoms: C_14  and  C_15
REMARK                            x       y       z     vdW  Elec       q    Type
REMARK                         _______ _______ _______ _____ _____    ______ ____
ROOT
ATOM      1  C   UNL     1      44.271   4.869  11.415  0.00  0.00    +0.000 A 
ATOM      2  C   UNL     1      43.372   3.935  11.911  0.00  0.00    +0.000 A 
ATOM      3  N   UNL     1      43.185   2.715  11.367  0.00  0.00    +0.000 NA
ATOM      4  C   UNL     1      43.943   2.401  10.288  0.00  0.00    +0.000 A 
ATOM      5  C   UNL     1      44.891   3.239   9.699  0.00  0.00    +0.000 A 
ATOM      6  C   UNL     1      45.041   4.500  10.302  0.00  0.00    +0.000 A 
ENDROOT
BRANCH   5   7
ATOM      7  C   UNL     1      45.683   2.832   8.519  0.00  0.00    +0.000 A 
ATOM      8  C   UNL     1      46.158   1.522   8.350  0.00  0.00    +0.000 A 
ATOM      9  C   UNL     1      46.906   1.176   7.224  0.00  0.00    +0.000 A 
ATOM     10  C   UNL     1      47.158   2.150   6.276  0.00  0.00    +0.000 A 
ATOM     11  N   UNL     1      46.724   3.420   6.384  0.00  0.00    +0.000 NA
ATOM     12  C   UNL     1      46.009   3.725   7.496  0.00  0.00    +0.000 A 
ENDBRANCH   5   7
BRANCH   1  13
ATOM     13  C   UNL     1      44.411   6.224  12.052  0.00  0.00    +0.000 C 
BRANCH  13  14
ATOM     14  N   UNL     1      45.503   6.958  11.429  0.00  0.00    +0.000 N 
ATOM     15  H   UNL     1      45.223   7.891  11.124  0.00  0.00    +0.000 HD
BRANCH  14  22
ATOM     16 CL   UNL     1      50.520   8.225  11.483  0.00  0.00    +0.000 Cl
ATOM     17  C   UNL     1      49.116   7.549  12.211  0.00  0.00    +0.000 A 
ATOM     18  C   UNL     1      49.192   7.013  13.491  0.00  0.00    +0.000 A 
ATOM     19  C   UNL     1      48.053   6.452  14.053  0.00  0.00    +0.000 A 
ATOM     20 CL   UNL     1      48.126   5.788  15.641  0.00  0.00    +0.000 Cl
ATOM     21  C   UNL     1      46.847   6.430  13.348  0.00  0.00    +0.000 A 
ATOM     22  C   UNL     1      46.747   7.006  12.075  0.00  0.00    +0.000 A 
ATOM     23  C   UNL     1      47.906   7.546  11.506  0.00  0.00    +0.000 A 
ENDBRANCH  14  22
ENDBRANCH  13  14
ENDBRANCH   1  13
TORSDOF 4
ENDMDL
MODEL 7
REMARK VINA RESULT:    -7.015      1.875      2.960
REMARK INTER + INTRA:          -9.476
REMARK INTER:                  -8.898
REMARK INTRA:                  -0.578
REMARK UNBOUND:                -0.820
REMARK  Name = 
REMARK  4 active torsions:
REMARK  status: ('A' for Active; 'I' for Inactive)
REMARK    1  A    between atoms: C_7  and  N_8
REMARK    2  A    between atoms: N_8  and  C_9
REMARK    3  A    between atoms: C_9  and  C_10
REMARK    4  A    between atoms: C_14  and  C_15
REMARK                            x       y       z     vdW  Elec       q    Type
REMARK                         _______ _______ _______ _____ _____    ______ ____
ROOT
ATOM      1  C   UNL     1      44.703   4.555  11.925  0.00  0.00    +0.000 A 
ATOM      2  C   UNL     1      43.628   3.739  12.247  0.00  0.00    +0.000 A 
ATOM      3  N   UNL     1      43.199   2.723  11.471  0.00  0.00    +0.000 NA
ATOM      4  C   UNL     1      43.885   2.497  10.323  0.00  0.00    +0.000 A 
ATOM      5  C   UNL     1      44.989   3.231   9.888  0.00  0.00    +0.000 A 
ATOM      6  C   UNL     1      45.389   4.280  10.733  0.00  0.00    +0.000 A 
ENDROOT
BRANCH   5   7
ATOM      7  C   UNL     1      45.690   2.929   8.621  0.00  0.00    +0.000 A 
ATOM      8  C   UNL     1      46.165   1.645   8.314  0.00  0.00    +0.000 A 
ATOM      9  C   UNL     1      46.826   1.398   7.110  0.00  0.00    +0.000 A 
ATOM     10  C   UNL     1      46.991   2.446   6.224  0.00  0.00    +0.000 A 
ATOM     11  N   UNL     1      46.552   3.697   6.463  0.00  0.00    +0.000 NA
ATOM     12  C   UNL     1      45.924   3.903   7.648  0.00  0.00    +0.000 A 
ENDBRANCH   5   7
BRANCH   1  13
ATOM     13  C   UNL     1      45.111   5.690  12.823  0.00  0.00    +0.000 C 
BRANCH  13  14
ATOM     14  N   UNL     1      46.564   5.786  12.876  0.00  0.00    +0.000 N 
ATOM     15  H   UNL     1      46.917   6.618  12.404  0.00  0.00    +0.000 HD
BRANCH  14  22
ATOM     16 CL   UNL     1      47.284   3.126  17.256  0.00  0.00    +0.000 Cl
ATOM     17  C   UNL     1      47.633   4.439  16.201  0.00  0.00    +0.000 A 
ATOM     18  C   UNL     1      48.590   5.380  16.563  0.00  0.00    +0.000 A 
ATOM     19  C   UNL     1      48.841   6.445  15.708  0.00  0.00    +0.000 A 
ATOM     20 CL   UNL     1      50.028   7.618  16.136  0.00  0.00    +0.000 Cl
ATOM     21  C   UNL     1      48.149   6.569  14.501  0.00  0.00    +0.000 A 
ATOM     22  C   UNL     1      47.213   5.604  14.105  0.00  0.00    +0.000 A 
ATOM     23  C   UNL     1      46.948   4.548  14.985  0.00  0.00    +0.000 A 
ENDBRANCH  14  22
ENDBRANCH  13  14
ENDBRANCH   1  13
TORSDOF 4
ENDMDL
MODEL 8
REMARK VINA RESULT:    -6.517      2.063      3.028
REMARK INTER + INTRA:          -8.861
REMARK INTER:                  -8.207
REMARK INTRA:                  -0.654
REMARK UNBOUND:                -0.820
REMARK  Name = 
REMARK  4 active torsions:
REMARK  status: ('A' for Active; 'I' for Inactive)
REMARK    1  A    between atoms: C_7  and  N_8
REMARK    2  A    between atoms: N_8  and  C_9
REMARK    3  A    between atoms: C_9  and  C_10
REMARK    4  A    between atoms: C_14  and  C_15
REMARK                            x       y       z     vdW  Elec       q    Type
REMARK                         _______ _______ _______ _____ _____    ______ ____
ROOT
ATOM      1  C   UNL     1      44.836   5.996  12.025  0.00  0.00    +0.000 A 
ATOM      2  C   UNL     1      43.514   5.675  12.297  0.00  0.00    +0.000 A 
ATOM      3  N   UNL     1      42.809   4.755  11.606  0.00  0.00    +0.000 NA
ATOM      4  C   UNL     1      43.458   4.109  10.606  0.00  0.00    +0.000 A 
ATOM      5  C   UNL     1      44.787   4.325  10.239  0.00  0.00    +0.000 A 
ATOM      6  C   UNL     1      45.471   5.298  10.987  0.00  0.00    +0.000 A 
ENDROOT
BRANCH   5   7
ATOM      7  C   UNL     1      45.432   3.584   9.133  0.00  0.00    +0.000 A 
ATOM      8  C   UNL     1      46.006   4.233   8.029  0.00  0.00    +0.000 A 
ATOM      9  C   UNL     1      46.603   3.499   7.003  0.00  0.00    +0.000 A 
ATOM     10  C   UNL     1      46.623   2.121   7.105  0.00  0.00    +0.000 A 
ATOM     11  N   UNL     1      46.092   1.446   8.142  0.00  0.00    +0.000 NA
ATOM     12  C   UNL     1      45.511   2.190   9.117  0.00  0.00    +0.000 A 
ENDBRANCH   5   7
BRANCH   1  13
ATOM     13  C   UNL     1      45.555   7.054  12.815  0.00  0.00    +0.000 C 
BRANCH  13  14
ATOM     14  N   UNL     1      46.583   6.443  13.647  0.00  0.00    +0.000 N 
ATOM     15  H   UNL     1      46.642   5.433  13.514  0.00  0.00    +0.000 HD
BRANCH  14  22
ATOM     16 CL   UNL     1      50.424   8.807  16.183  0.00  0.00    +0.000 Cl
ATOM     17  C   UNL     1      49.733   8.130  14.761  0.00  0.00    +0.000 A 
ATOM     18  C   UNL     1      50.452   8.142  13.572  0.00  0.00    +0.000 A 
ATOM     19  C   UNL     1      49.868   7.611  12.428  0.00  0.00    +0.000 A 
ATOM     20 CL   UNL     1      50.745   7.611  10.946  0.00  0.00    +0.000 Cl
ATOM     21  C   UNL     1      48.581   7.068  12.472  0.00  0.00    +0.000 A 
ATOM     22  C   UNL     1      47.864   7.011  13.674  0.00  0.00    +0.000 A 
ATOM     23  C   UNL     1      48.450   7.572  14.815  0.00  0.00    +0.000 A 
ENDBRANCH  14  22
ENDBRANCH  13  14
ENDBRANCH   1  13
TORSDOF 4
ENDMDL
MODEL 9
REMARK VINA RESULT:    -6.479      1.852      2.297
REMARK INTER + INTRA:          -8.815
REMARK INTER:                  -8.181
REMARK INTRA:                  -0.634
REMARK UNBOUND:                -0.820
REMARK  Name = 
REMARK  4 active torsions:
REMARK  status: ('A' for Active; 'I' for Inactive)
REMARK    1  A    between atoms: C_7  and  N_8
REMARK    2  A    between atoms: N_8  and  C_9
REMARK    3  A    between atoms: C_9  and  C_10
REMARK    4  A    between atoms: C_14  and  C_15
REMARK                            x       y       z     vdW  Elec       q    Type
REMARK                         _______ _______ _______ _____ _____    ______ ____
ROOT
ATOM      1  C   UNL     1      44.766   6.195  11.596  0.00  0.00    +0.000 A 
ATOM      2  C   UNL     1      43.503   5.791  12.008  0.00  0.00    +0.000 A 
ATOM      3  N   UNL     1      42.867   4.708  11.517  0.00  0.00    +0.000 NA
ATOM      4  C   UNL     1      43.527   3.980  10.583  0.00  0.00    +0.000 A 
ATOM      5  C   UNL     1      44.802   4.266  10.092  0.00  0.00    +0.000 A 
ATOM      6  C   UNL     1      45.415   5.408  10.634  0.00  0.00    +0.000 A 
ENDROOT
BRANCH   5   7
ATOM      7  C   UNL     1      45.462   3.427   9.069  0.00  0.00    +0.000 A 
ATOM      8  C   UNL     1      46.088   3.975   7.939  0.00  0.00    +0.000 A 
ATOM      9  C   UNL     1      46.698   3.151   6.993  0.00  0.00    +0.000 A 
ATOM     10  C   UNL     1      46.679   1.784   7.200  0.00  0.00    +0.000 A 
ATOM     11  N   UNL     1      46.097   1.204   8.266  0.00  0.00    +0.000 NA
ATOM     12  C   UNL     1      45.505   2.034   9.162  0.00  0.00    +0.000 A 
ENDBRANCH   5   7
BRANCH   1  13
ATOM     13  C   UNL     1      45.407   7.431  12.164  0.00  0.00    +0.000 C 
BRANCH  13  14
ATOM     14  N   UNL     1      46.854   7.266  12.210  0.00  0.00    +0.000 N 
ATOM     15  H   UNL     1      47.348   8.020  11.732  0.00  0.00    +0.000 HD
BRANCH  14  22
ATOM     16 CL   UNL     1      49.923   8.610  16.154  0.00  0.00    +0.000 Cl
ATOM     17  C   UNL     1      48.894   7.497  15.340  0.00  0.00    +0.000 A 
ATOM     18  C   UNL     1      48.651   6.248  15.898  0.00  0.00    +0.000 A 
ATOM     19  C   UNL     1      47.836   5.354  15.214  0.00  0.00    +0.000 A 
ATOM     20 CL   UNL     1      47.517   3.804  15.892  0.00  0.00    +0.000 Cl
ATOM     21  C   UNL     1      47.264   5.706  13.989  0.00  0.00    +0.000 A 
ATOM     22  C   UNL     1      47.467   6.977  13.437  0.00  0.00    +0.000 A 
ATOM     23  C   UNL     1      48.311   7.861  14.121  0.00  0.00    +0.000 A 
ENDBRANCH  14  22
ENDBRANCH  13  14
ENDBRANCH   1  13
TORSDOF 4
ENDMDL
