MODEL 1
REMARK VINA RESULT:    -8.044      0.000      0.000
REMARK INTER + INTRA:         -12.848
REMARK INTER:                 -11.806
REMARK INTRA:                  -1.042
REMARK UNBOUND:                -1.042
REMARK  Name = 
REMARK  8 active torsions:
REMARK  status: ('A' for Active; 'I' for Inactive)
REMARK    1  A    between atoms: C_2  and  O_3
REMARK    2  A    between atoms: C_2  and  C_20
REMARK    3  A    between atoms: O_3  and  C_4
REMARK    4  A    between atoms: C_4  and  C_5
REMARK    5  A    between atoms: C_8  and  C_9
REMARK    6  A    between atoms: C_9  and  O_10
REMARK    7  A    between atoms: O_10  and  C_11
REMARK    8  A    between atoms: C_11  and  C_12
REMARK                            x       y       z     vdW  Elec       q    Type
REMARK                         _______ _______ _______ _____ _____    ______ ____
ROOT
ATOM      1  C   UNL     1      47.470   3.924  14.671  0.00  0.00    +0.000 C 
ENDROOT
BRANCH   1   2
ATOM      2  C   UNL     1      46.537   4.180  13.523  0.00  0.00    +0.000 A 
ATOM      3  C   UNL     1      46.286   5.473  13.074  0.00  0.00    +0.000 A 
ATOM      4  C   UNL     1      45.344   5.655  12.066  0.00  0.00    +0.000 A 
ATOM      5  C   UNL     1      44.683   4.550  11.524  0.00  0.00    +0.000 A 
ATOM      6  C   UNL     1      45.006   3.299  12.033  0.00  0.00    +0.000 A 
ATOM      7  N   UNL     1      45.903   3.095  13.015  0.00  0.00    +0.000 NA
BRANCH   5   8
ATOM      8  C   UNL     1      43.651   4.687  10.451  0.00  0.00    +0.000 C 
BRANCH   8   9
ATOM      9  O   UNL     1      44.001   3.781   9.412  0.00  0.00    +0.000 OA
BRANCH   9  10
ATOM     10  C   UNL     1      44.966   4.316   8.517  0.00  0.00    +0.000 C 
BRANCH  10  11
ATOM     11  C   UNL     1      45.803   3.175   8.050  0.00  0.00    +0.000 A 
ATOM     12  C   UNL     1      45.608   1.889   8.513  0.00  0.00    +0.000 A 
ATOM     13  N   UNL     1      46.355   0.831   8.142  0.00  0.00    +0.000 NA
ATOM     14  C   UNL     1      47.342   1.098   7.276  0.00  0.00    +0.000 A 
ATOM     15  N   UNL     1      47.627   2.298   6.747  0.00  0.00    +0.000 NA
ATOM     16  C   UNL     1      46.844   3.317   7.155  0.00  0.00    +0.000 A 
ENDBRANCH  10  11
ENDBRANCH   9  10
ENDBRANCH   8   9
ENDBRANCH   5   8
ENDBRANCH   1   2
BRANCH   1  17
ATOM     17  O   UNL     1      47.191   4.739  15.809  0.00  0.00    +0.000 OA
BRANCH  17  19
ATOM     18  O   UNL     1      46.494   3.123  17.286  0.00  0.00    +0.000 OA
ATOM     19  C   UNL     1      47.160   4.119  17.018  0.00  0.00    +0.000 C 
BRANCH  19  20
ATOM     20  C   UNL     1      47.840   4.911  18.030  0.00  0.00    +0.000 A 
ATOM     21  C   UNL     1      47.171   5.699  18.951  0.00  0.00    +0.000 A 
ATOM     22  S   UNL     1      48.193   6.907  19.618  0.00  0.00    +0.000 S 
ATOM     23  C   UNL     1      49.518   6.355  18.697  0.00  0.00    +0.000 A 
ATOM     24  N   UNL     1      50.647   7.091  18.526  0.00  0.00    +0.000 NA
ATOM     25  C   UNL     1      51.528   6.528  17.762  0.00  0.00    +0.000 A 
ATOM     26  N   UNL     1      51.434   5.254  17.251  0.00  0.00    +0.000 N 
ATOM     27  C   UNL     1      50.333   4.454  17.444  0.00  0.00    +0.000 A 
ATOM     28  O   UNL     1      50.311   3.279  17.087  0.00  0.00    +0.000 OA
ATOM     29  C   UNL     1      49.249   5.139  18.108  0.00  0.00    +0.000 A 
ATOM     30  H   UNL     1      52.207   4.835  16.761  0.00  0.00    +0.000 HD
ENDBRANCH  19  20
ENDBRANCH  17  19
ENDBRANCH   1  17
TORSDOF 8
ENDMDL
MODEL 2
REMARK VINA RESULT:    -8.001      1.587      2.130
REMARK INTER + INTRA:         -12.785
REMARK INTER:                 -11.838
REMARK INTRA:                  -0.947
REMARK UNBOUND:                -1.042
REMARK  Name = 
REMARK  8 active torsions:
REMARK  status: ('A' for Active; 'I' for Inactive)
REMARK    1  A    between atoms: C_2  and  O_3
REMARK    2  A    between atoms: C_2  and  C_20
REMARK    3  A    between atoms: O_3  and  C_4
REMARK    4  A    between atoms: C_4  and  C_5
REMARK    5  A    between atoms: C_8  and  C_9
REMARK    6  A    between atoms: C_9  and  O_10
REMARK    7  A    between atoms: O_10  and  C_11
REMARK    8  A    between atoms: C_11  and  C_12
REMARK                            x       y       z     vdW  Elec       q    Type
REMARK                         _______ _______ _______ _____ _____    ______ ____
ROOT
ATOM      1  C   UNL     1      47.270   4.694  14.837  0.00  0.00    +0.000 C 
ENDROOT
BRANCH   1   2
ATOM      2  C   UNL     1      46.375   4.733  13.631  0.00  0.00    +0.000 A 
ATOM      3  C   UNL     1      46.018   5.941  13.040  0.00  0.00    +0.000 A 
ATOM      4  C   UNL     1      45.114   5.921  11.982  0.00  0.00    +0.000 A 
ATOM      5  C   UNL     1      44.596   4.703  11.534  0.00  0.00    +0.000 A 
ATOM      6  C   UNL     1      45.016   3.551  12.184  0.00  0.00    +0.000 A 
ATOM      7  N   UNL     1      45.878   3.542  13.217  0.00  0.00    +0.000 NA
BRANCH   5   8
ATOM      8  C   UNL     1      43.611   4.624  10.412  0.00  0.00    +0.000 C 
BRANCH   8   9
ATOM      9  O   UNL     1      44.063   3.607   9.526  0.00  0.00    +0.000 OA
BRANCH   9  10
ATOM     10  C   UNL     1      44.762   4.125   8.404  0.00  0.00    +0.000 C 
BRANCH  10  11
ATOM     11  C   UNL     1      45.757   3.092   7.997  0.00  0.00    +0.000 A 
ATOM     12  C   UNL     1      46.802   3.383   7.142  0.00  0.00    +0.000 A 
ATOM     13  N   UNL     1      47.709   2.479   6.725  0.00  0.00    +0.000 NA
ATOM     14  C   UNL     1      47.537   1.233   7.189  0.00  0.00    +0.000 A 
ATOM     15  N   UNL     1      46.571   0.828   8.028  0.00  0.00    +0.000 NA
ATOM     16  C   UNL     1      45.695   1.778   8.412  0.00  0.00    +0.000 A 
ENDBRANCH  10  11
ENDBRANCH   9  10
ENDBRANCH   8   9
ENDBRANCH   5   8
ENDBRANCH   1   2
BRANCH   1  17
ATOM     17  O   UNL     1      46.830   3.766  15.829  0.00  0.00    +0.000 OA
BRANCH  17  19
ATOM     18  O   UNL     1      46.837   4.389  18.040  0.00  0.00    +0.000 OA
ATOM     19  C   UNL     1      47.382   3.880  17.065  0.00  0.00    +0.000 C 
BRANCH  19  20
ATOM     20  C   UNL     1      48.793   3.527  17.042  0.00  0.00    +0.000 A 
ATOM     21  C   UNL     1      49.248   2.243  16.795  0.00  0.00    +0.000 A 
ATOM     22  S   UNL     1      50.850   2.014  17.369  0.00  0.00    +0.000 S 
ATOM     23  C   UNL     1      50.931   3.627  17.916  0.00  0.00    +0.000 A 
ATOM     24  N   UNL     1      51.888   4.061  18.776  0.00  0.00    +0.000 NA
ATOM     25  C   UNL     1      51.767   5.306  19.111  0.00  0.00    +0.000 A 
ATOM     26  N   UNL     1      50.850   6.182  18.579  0.00  0.00    +0.000 N 
ATOM     27  C   UNL     1      49.896   5.799  17.665  0.00  0.00    +0.000 A 
ATOM     28  O   UNL     1      49.164   6.612  17.107  0.00  0.00    +0.000 OA
ATOM     29  C   UNL     1      49.874   4.373  17.440  0.00  0.00    +0.000 A 
ATOM     30  H   UNL     1      50.885   7.164  18.798  0.00  0.00    +0.000 HD
ENDBRANCH  19  20
ENDBRANCH  17  19
ENDBRANCH   1  17
TORSDOF 8
ENDMDL
MODEL 3
REMARK VINA RESULT:    -7.476      2.166      3.051
REMARK INTER + INTRA:         -12.015
REMARK INTER:                 -10.837
REMARK INTRA:                  -1.178
REMARK UNBOUND:                -1.042
REMARK  Name = 
REMARK  8 active torsions:
REMARK  status: ('A' for Active; 'I' for Inactive)
REMARK    1  A    between atoms: C_2  and  O_3
REMARK    2  A    between atoms: C_2  and  C_20
REMARK    3  A    between atoms: O_3  and  C_4
REMARK    4  A    between atoms: C_4  and  C_5
REMARK    5  A    between atoms: C_8  and  C_9
REMARK    6  A    between atoms: C_9  and  O_10
REMARK    7  A    between atoms: O_10  and  C_11
REMARK    8  A    between atoms: C_11  and  C_12
REMARK                            x       y       z     vdW  Elec       q    Type
REMARK                         _______ _______ _______ _____ _____    ______ ____
ROOT
ATOM      1  C   UNL     1      48.316   7.215  13.768  0.00  0.00    +0.000 C 
ENDROOT
BRANCH   1   2
ATOM      2  C   UNL     1      47.057   6.464  13.442  0.00  0.00    +0.000 A 
ATOM      3  C   UNL     1      46.990   5.081  13.574  0.00  0.00    +0.000 A 
ATOM      4  C   UNL     1      45.827   4.431  13.172  0.00  0.00    +0.000 A 
ATOM      5  C   UNL     1      44.759   5.171  12.658  0.00  0.00    +0.000 A 
ATOM      6  C   UNL     1      44.918   6.548  12.570  0.00  0.00    +0.000 A 
ATOM      7  N   UNL     1      46.035   7.201  12.940  0.00  0.00    +0.000 NA
BRANCH   5   8
ATOM      8  C   UNL     1      43.492   4.525  12.196  0.00  0.00    +0.000 C 
BRANCH   8   9
ATOM      9  O   UNL     1      43.612   4.317  10.795  0.00  0.00    +0.000 OA
BRANCH   9  10
ATOM     10  C   UNL     1      43.979   2.986  10.464  0.00  0.00    +0.000 C 
BRANCH  10  11
ATOM     11  C   UNL     1      44.909   3.068   9.302  0.00  0.00    +0.000 A 
ATOM     12  C   UNL     1      45.544   1.950   8.797  0.00  0.00    +0.000 A 
ATOM     13  N   UNL     1      46.413   1.977   7.768  0.00  0.00    +0.000 NA
ATOM     14  C   UNL     1      46.648   3.188   7.243  0.00  0.00    +0.000 A 
ATOM     15  N   UNL     1      46.089   4.342   7.638  0.00  0.00    +0.000 NA
ATOM     16  C   UNL     1      45.227   4.251   8.670  0.00  0.00    +0.000 A 
ENDBRANCH  10  11
ENDBRANCH   9  10
ENDBRANCH   8   9
ENDBRANCH   5   8
ENDBRANCH   1   2
BRANCH   1  17
ATOM     17  O   UNL     1      49.157   6.522  14.690  0.00  0.00    +0.000 OA
BRANCH  17  19
ATOM     18  O   UNL     1      48.620   7.973  16.389  0.00  0.00    +0.000 OA
ATOM     19  C   UNL     1      49.103   6.918  15.989  0.00  0.00    +0.000 C 
BRANCH  19  20
ATOM     20  C   UNL     1      49.891   6.038  16.836  0.00  0.00    +0.000 A 
ATOM     21  C   UNL     1      51.155   6.365  17.299  0.00  0.00    +0.000 A 
ATOM     22  S   UNL     1      52.038   4.971  17.777  0.00  0.00    +0.000 S 
ATOM     23  C   UNL     1      50.726   3.954  17.389  0.00  0.00    +0.000 A 
ATOM     24  N   UNL     1      50.857   2.608  17.259  0.00  0.00    +0.000 NA
ATOM     25  C   UNL     1      49.762   2.005  16.922  0.00  0.00    +0.000 A 
ATOM     26  N   UNL     1      48.529   2.605  16.817  0.00  0.00    +0.000 N 
ATOM     27  C   UNL     1      48.340   3.956  16.993  0.00  0.00    +0.000 A 
ATOM     28  O   UNL     1      47.220   4.459  17.016  0.00  0.00    +0.000 OA
ATOM     29  C   UNL     1      49.578   4.680  17.155  0.00  0.00    +0.000 A 
ATOM     30  H   UNL     1      47.699   2.057  16.664  0.00  0.00    +0.000 HD
ENDBRANCH  19  20
ENDBRANCH  17  19
ENDBRANCH   1  17
TORSDOF 8
ENDMDL
MODEL 4
REMARK VINA RESULT:    -7.336      1.690      2.257
REMARK INTER + INTRA:         -11.809
REMARK INTER:                 -11.000
REMARK INTRA:                  -0.809
REMARK UNBOUND:                -1.042
REMARK  Name = 
REMARK  8 active torsions:
REMARK  status: ('A' for Active; 'I' for Inactive)
REMARK    1  A    between atoms: C_2  and  O_3
REMARK    2  A    between atoms: C_2  and  C_20
REMARK    3  A    between atoms: O_3  and  C_4
REMARK    4  A    between atoms: C_4  and  C_5
REMARK    5  A    between atoms: C_8  and  C_9
REMARK    6  A    between atoms: C_9  and  O_10
REMARK    7  A    between atoms: O_10  and  C_11
REMARK    8  A    between atoms: C_11  and  C_12
REMARK                            x       y       z     vdW  Elec       q    Type
REMARK                         _______ _______ _______ _____ _____    ______ ____
ROOT
ATOM      1  C   UNL     1      47.565   4.732  15.307  0.00  0.00    +0.000 C 
ENDROOT
BRANCH   1   2
ATOM      2  C   UNL     1      46.764   4.755  14.037  0.00  0.00    +0.000 A 
ATOM      3  C   UNL     1      46.538   5.945  13.351  0.00  0.00    +0.000 A 
ATOM      4  C   UNL     1      45.713   5.919  12.231  0.00  0.00    +0.000 A 
ATOM      5  C   UNL     1      45.142   4.714  11.815  0.00  0.00    +0.000 A 
ATOM      6  C   UNL     1      45.431   3.579  12.560  0.00  0.00    +0.000 A 
ATOM      7  N   UNL     1      46.214   3.577  13.655  0.00  0.00    +0.000 NA
BRANCH   5   8
ATOM      8  C   UNL     1      44.237   4.630  10.628  0.00  0.00    +0.000 C 
BRANCH   8   9
ATOM      9  O   UNL     1      45.036   4.250   9.515  0.00  0.00    +0.000 OA
BRANCH   9  10
ATOM     10  C   UNL     1      44.699   2.967   9.007  0.00  0.00    +0.000 C 
BRANCH  10  11
ATOM     11  C   UNL     1      45.786   2.572   8.067  0.00  0.00    +0.000 A 
ATOM     12  C   UNL     1      46.279   3.444   7.116  0.00  0.00    +0.000 A 
ATOM     13  N   UNL     1      47.240   3.126   6.227  0.00  0.00    +0.000 NA
ATOM     14  C   UNL     1      47.706   1.871   6.306  0.00  0.00    +0.000 A 
ATOM     15  N   UNL     1      47.317   0.938   7.188  0.00  0.00    +0.000 NA
ATOM     16  C   UNL     1      46.354   1.316   8.053  0.00  0.00    +0.000 A 
ENDBRANCH  10  11
ENDBRANCH   9  10
ENDBRANCH   8   9
ENDBRANCH   5   8
ENDBRANCH   1   2
BRANCH   1  17
ATOM     17  O   UNL     1      48.537   5.775  15.374  0.00  0.00    +0.000 OA
BRANCH  17  19
ATOM     18  O   UNL     1      50.444   5.358  16.585  0.00  0.00    +0.000 OA
ATOM     19  C   UNL     1      49.312   5.823  16.488  0.00  0.00    +0.000 C 
BRANCH  19  20
ATOM     20  C   UNL     1      48.551   6.295  17.634  0.00  0.00    +0.000 A 
ATOM     21  C   UNL     1      48.145   7.611  17.783  0.00  0.00    +0.000 A 
ATOM     22  S   UNL     1      47.782   7.985  19.419  0.00  0.00    +0.000 S 
ATOM     23  C   UNL     1      48.143   6.391  19.908  0.00  0.00    +0.000 A 
ATOM     24  N   UNL     1      48.342   6.052  21.208  0.00  0.00    +0.000 NA
ATOM     25  C   UNL     1      48.645   4.806  21.384  0.00  0.00    +0.000 A 
ATOM     26  N   UNL     1      48.654   3.847  20.397  0.00  0.00    +0.000 N 
ATOM     27  C   UNL     1      48.406   4.135  19.076  0.00  0.00    +0.000 A 
ATOM     28  O   UNL     1      48.297   3.255  18.226  0.00  0.00    +0.000 OA
ATOM     29  C   UNL     1      48.278   5.551  18.824  0.00  0.00    +0.000 A 
ATOM     30  H   UNL     1      48.785   2.875  20.622  0.00  0.00    +0.000 HD
ENDBRANCH  19  20
ENDBRANCH  17  19
ENDBRANCH   1  17
TORSDOF 8
ENDMDL
MODEL 5
REMARK VINA RESULT:    -7.252      1.672      2.080
REMARK INTER + INTRA:         -11.686
REMARK INTER:                 -10.562
REMARK INTRA:                  -1.124
REMARK UNBOUND:                -1.042
REMARK  Name = 
REMARK  8 active torsions:
REMARK  status: ('A' for Active; 'I' for Inactive)
REMARK    1  A    between atoms: C_2  and  O_3
REMARK    2  A    between atoms: C_2  and  C_20
REMARK    3  A    between atoms: O_3  and  C_4
REMARK    4  A    between atoms: C_4  and  C_5
REMARK    5  A    between atoms: C_8  and  C_9
REMARK    6  A    between atoms: C_9  and  O_10
REMARK    7  A    between atoms: O_10  and  C_11
REMARK    8  A    between atoms: C_11  and  C_12
REMARK                            x       y       z     vdW  Elec       q    Type
REMARK                         _______ _______ _______ _____ _____    ______ ____
ROOT
ATOM      1  C   UNL     1      47.509   3.571  15.474  0.00  0.00    +0.000 C 
ENDROOT
BRANCH   1   2
ATOM      2  C   UNL     1      46.864   4.070  14.213  0.00  0.00    +0.000 A 
ATOM      3  C   UNL     1      46.833   5.428  13.910  0.00  0.00    +0.000 A 
ATOM      4  C   UNL     1      46.143   5.839  12.774  0.00  0.00    +0.000 A 
ATOM      5  C   UNL     1      45.511   4.893  11.964  0.00  0.00    +0.000 A 
ATOM      6  C   UNL     1      45.603   3.561  12.345  0.00  0.00    +0.000 A 
ATOM      7  N   UNL     1      46.252   3.136  13.444  0.00  0.00    +0.000 NA
BRANCH   5   8
ATOM      8  C   UNL     1      44.743   5.279  10.740  0.00  0.00    +0.000 C 
BRANCH   8   9
ATOM      9  O   UNL     1      44.419   4.078  10.050  0.00  0.00    +0.000 OA
BRANCH   9  10
ATOM     10  C   UNL     1      44.536   4.205   8.640  0.00  0.00    +0.000 C 
BRANCH  10  11
ATOM     11  C   UNL     1      45.490   3.153   8.188  0.00  0.00    +0.000 A 
ATOM     12  C   UNL     1      46.441   3.401   7.218  0.00  0.00    +0.000 A 
ATOM     13  N   UNL     1      47.307   2.477   6.757  0.00  0.00    +0.000 NA
ATOM     14  C   UNL     1      47.188   1.256   7.297  0.00  0.00    +0.000 A 
ATOM     15  N   UNL     1      46.314   0.893   8.249  0.00  0.00    +0.000 NA
ATOM     16  C   UNL     1      45.476   1.862   8.671  0.00  0.00    +0.000 A 
ENDBRANCH  10  11
ENDBRANCH   9  10
ENDBRANCH   8   9
ENDBRANCH   5   8
ENDBRANCH   1   2
BRANCH   1  17
ATOM     17  O   UNL     1      47.312   4.444  16.586  0.00  0.00    +0.000 OA
BRANCH  17  19
ATOM     18  O   UNL     1      48.825   3.428  17.984  0.00  0.00    +0.000 OA
ATOM     19  C   UNL     1      48.265   4.432  17.554  0.00  0.00    +0.000 C 
BRANCH  19  20
ATOM     20  C   UNL     1      48.385   5.736  18.185  0.00  0.00    +0.000 A 
ATOM     21  C   UNL     1      48.013   5.980  19.497  0.00  0.00    +0.000 A 
ATOM     22  S   UNL     1      47.741   7.651  19.781  0.00  0.00    +0.000 S 
ATOM     23  C   UNL     1      48.144   8.036  18.169  0.00  0.00    +0.000 A 
ATOM     24  N   UNL     1      47.851   9.237  17.608  0.00  0.00    +0.000 NA
ATOM     25  C   UNL     1      48.197   9.333  16.364  0.00  0.00    +0.000 A 
ATOM     26  N   UNL     1      48.910   8.386  15.666  0.00  0.00    +0.000 N 
ATOM     27  C   UNL     1      49.275   7.177  16.211  0.00  0.00    +0.000 A 
ATOM     28  O   UNL     1      50.014   6.393  15.621  0.00  0.00    +0.000 OA
ATOM     29  C   UNL     1      48.714   6.960  17.524  0.00  0.00    +0.000 A 
ATOM     30  H   UNL     1      49.246   8.573  14.737  0.00  0.00    +0.000 HD
ENDBRANCH  19  20
ENDBRANCH  17  19
ENDBRANCH   1  17
TORSDOF 8
ENDMDL
MODEL 6
REMARK VINA RESULT:    -7.002      2.108      2.827
REMARK INTER + INTRA:         -11.319
REMARK INTER:                 -10.316
REMARK INTRA:                  -1.003
REMARK UNBOUND:                -1.042
REMARK  Name = 
REMARK  8 active torsions:
REMARK  status: ('A' for Active; 'I' for Inactive)
REMARK    1  A    between atoms: C_2  and  O_3
REMARK    2  A    between atoms: C_2  and  C_20
REMARK    3  A    between atoms: O_3  and  C_4
REMARK    4  A    between atoms: C_4  and  C_5
REMARK    5  A    between atoms: C_8  and  C_9
REMARK    6  A    between atoms: C_9  and  O_10
REMARK    7  A    between atoms: O_10  and  C_11
REMARK    8  A    between atoms: C_11  and  C_12
REMARK                            x       y       z     vdW  Elec       q    Type
REMARK                         _______ _______ _______ _____ _____    ______ ____
ROOT
ATOM      1  C   UNL     1      49.223   7.289  13.910  0.00  0.00    +0.000 C 
ENDROOT
BRANCH   1   2
ATOM      2  C   UNL     1      48.030   6.591  13.324  0.00  0.00    +0.000 A 
ATOM      3  C   UNL     1      47.441   7.040  12.146  0.00  0.00    +0.000 A 
ATOM      4  C   UNL     1      46.284   6.409  11.699  0.00  0.00    +0.000 A 
ATOM      5  C   UNL     1      45.747   5.345  12.428  0.00  0.00    +0.000 A 
ATOM      6  C   UNL     1      46.408   4.966  13.588  0.00  0.00    +0.000 A 
ATOM      7  N   UNL     1      47.521   5.565  14.050  0.00  0.00    +0.000 NA
BRANCH   5   8
ATOM      8  C   UNL     1      44.498   4.641  12.004  0.00  0.00    +0.000 C 
BRANCH   8   9
ATOM      9  O   UNL     1      44.881   3.359  11.520  0.00  0.00    +0.000 OA
BRANCH   9  10
ATOM     10  C   UNL     1      44.140   2.959  10.376  0.00  0.00    +0.000 C 
BRANCH  10  11
ATOM     11  C   UNL     1      45.076   2.998   9.218  0.00  0.00    +0.000 A 
ATOM     12  C   UNL     1      45.370   4.175   8.557  0.00  0.00    +0.000 A 
ATOM     13  N   UNL     1      46.188   4.258   7.490  0.00  0.00    +0.000 NA
ATOM     14  C   UNL     1      46.715   3.097   7.076  0.00  0.00    +0.000 A 
ATOM     15  N   UNL     1      46.515   1.894   7.636  0.00  0.00    +0.000 NA
ATOM     16  C   UNL     1      45.689   1.876   8.702  0.00  0.00    +0.000 A 
ENDBRANCH  10  11
ENDBRANCH   9  10
ENDBRANCH   8   9
ENDBRANCH   5   8
ENDBRANCH   1   2
BRANCH   1  17
ATOM     17  O   UNL     1      49.890   6.514  14.906  0.00  0.00    +0.000 OA
BRANCH  17  19
ATOM     18  O   UNL     1      51.392   7.561  16.294  0.00  0.00    +0.000 OA
ATOM     19  C   UNL     1      50.260   7.159  16.043  0.00  0.00    +0.000 C 
BRANCH  19  20
ATOM     20  C   UNL     1      49.197   7.120  17.035  0.00  0.00    +0.000 A 
ATOM     21  C   UNL     1      48.472   8.238  17.413  0.00  0.00    +0.000 A 
ATOM     22  S   UNL     1      47.713   8.019  18.938  0.00  0.00    +0.000 S 
ATOM     23  C   UNL     1      48.332   6.435  19.067  0.00  0.00    +0.000 A 
ATOM     24  N   UNL     1      48.342   5.747  20.238  0.00  0.00    +0.000 NA
ATOM     25  C   UNL     1      48.888   4.576  20.153  0.00  0.00    +0.000 A 
ATOM     26  N   UNL     1      49.317   3.987  18.986  0.00  0.00    +0.000 N 
ATOM     27  C   UNL     1      49.277   4.626  17.769  0.00  0.00    +0.000 A 
ATOM     28  O   UNL     1      49.549   4.048  16.720  0.00  0.00    +0.000 OA
ATOM     29  C   UNL     1      48.874   6.008  17.874  0.00  0.00    +0.000 A 
ATOM     30  H   UNL     1      49.625   3.028  18.974  0.00  0.00    +0.000 HD
ENDBRANCH  19  20
ENDBRANCH  17  19
ENDBRANCH   1  17
TORSDOF 8
ENDMDL
MODEL 7
REMARK VINA RESULT:    -6.938      3.639      5.405
REMARK INTER + INTRA:         -11.225
REMARK INTER:                  -9.950
REMARK INTRA:                  -1.274
REMARK UNBOUND:                -1.042
REMARK  Name = 
REMARK  8 active torsions:
REMARK  status: ('A' for Active; 'I' for Inactive)
REMARK    1  A    between atoms: C_2  and  O_3
REMARK    2  A    between atoms: C_2  and  C_20
REMARK    3  A    between atoms: O_3  and  C_4
REMARK    4  A    between atoms: C_4  and  C_5
REMARK    5  A    between atoms: C_8  and  C_9
REMARK    6  A    between atoms: C_9  and  O_10
REMARK    7  A    between atoms: O_10  and  C_11
REMARK    8  A    between atoms: C_11  and  C_12
REMARK                            x       y       z     vdW  Elec       q    Type
REMARK                         _______ _______ _______ _____ _____    ______ ____
ROOT
ATOM      1  C   UNL     1      47.425   5.613  14.693  0.00  0.00    +0.000 C 
ENDROOT
BRANCH   1   2
ATOM      2  C   UNL     1      46.410   4.833  13.907  0.00  0.00    +0.000 A 
ATOM      3  C   UNL     1      46.755   3.649  13.263  0.00  0.00    +0.000 A 
ATOM      4  C   UNL     1      45.797   3.017  12.476  0.00  0.00    +0.000 A 
ATOM      5  C   UNL     1      44.520   3.572  12.356  0.00  0.00    +0.000 A 
ATOM      6  C   UNL     1      44.269   4.753  13.041  0.00  0.00    +0.000 A 
ATOM      7  N   UNL     1      45.180   5.391  13.799  0.00  0.00    +0.000 NA
BRANCH   5   8
ATOM      8  C   UNL     1      43.457   2.945  11.513  0.00  0.00    +0.000 C 
BRANCH   8   9
ATOM      9  O   UNL     1      43.791   3.202  10.154  0.00  0.00    +0.000 OA
BRANCH   9  10
ATOM     10  C   UNL     1      44.215   2.037   9.462  0.00  0.00    +0.000 C 
BRANCH  10  11
ATOM     11  C   UNL     1      45.352   2.443   8.587  0.00  0.00    +0.000 A 
ATOM     12  C   UNL     1      45.522   3.748   8.170  0.00  0.00    +0.000 A 
ATOM     13  N   UNL     1      46.516   4.158   7.359  0.00  0.00    +0.000 NA
ATOM     14  C   UNL     1      47.359   3.200   6.951  0.00  0.00    +0.000 A 
ATOM     15  N   UNL     1      47.306   1.903   7.291  0.00  0.00    +0.000 NA
ATOM     16  C   UNL     1      46.291   1.554   8.107  0.00  0.00    +0.000 A 
ENDBRANCH  10  11
ENDBRANCH   9  10
ENDBRANCH   8   9
ENDBRANCH   5   8
ENDBRANCH   1   2
BRANCH   1  17
ATOM     17  O   UNL     1      47.559   6.962  14.246  0.00  0.00    +0.000 OA
BRANCH  17  19
ATOM     18  O   UNL     1      49.229   6.462  12.749  0.00  0.00    +0.000 OA
ATOM     19  C   UNL     1      48.298   7.169  13.125  0.00  0.00    +0.000 C 
BRANCH  19  20
ATOM     20  C   UNL     1      47.999   8.463  12.534  0.00  0.00    +0.000 A 
ATOM     21  C   UNL     1      48.840   9.558  12.644  0.00  0.00    +0.000 A 
ATOM     22  S   UNL     1      48.007  11.032  12.355  0.00  0.00    +0.000 S 
ATOM     23  C   UNL     1      46.548  10.200  12.061  0.00  0.00    +0.000 A 
ATOM     24  N   UNL     1      45.341  10.823  12.044  0.00  0.00    +0.000 NA
ATOM     25  C   UNL     1      44.342  10.025  11.846  0.00  0.00    +0.000 A 
ATOM     26  N   UNL     1      44.446   8.685  11.550  0.00  0.00    +0.000 N 
ATOM     27  C   UNL     1      45.651   8.024  11.504  0.00  0.00    +0.000 A 
ATOM     28  O   UNL     1      45.742   6.860  11.121  0.00  0.00    +0.000 OA
ATOM     29  C   UNL     1      46.759   8.844  11.933  0.00  0.00    +0.000 A 
ATOM     30  H   UNL     1      43.635   8.148  11.293  0.00  0.00    +0.000 HD
ENDBRANCH  19  20
ENDBRANCH  17  19
ENDBRANCH   1  17
TORSDOF 8
ENDMDL
MODEL 8
REMARK VINA RESULT:    -6.910      3.537      8.631
REMARK INTER + INTRA:         -11.184
REMARK INTER:                  -9.808
REMARK INTRA:                  -1.375
REMARK UNBOUND:                -1.042
REMARK  Name = 
REMARK  8 active torsions:
REMARK  status: ('A' for Active; 'I' for Inactive)
REMARK    1  A    between atoms: C_2  and  O_3
REMARK    2  A    between atoms: C_2  and  C_20
REMARK    3  A    between atoms: O_3  and  C_4
REMARK    4  A    between atoms: C_4  and  C_5
REMARK    5  A    between atoms: C_8  and  C_9
REMARK    6  A    between atoms: C_9  and  O_10
REMARK    7  A    between atoms: O_10  and  C_11
REMARK    8  A    between atoms: C_11  and  C_12
REMARK                            x       y       z     vdW  Elec       q    Type
REMARK                         _______ _______ _______ _____ _____    ______ ____
ROOT
ATOM      1  C   UNL     1      47.745   8.192  12.215  0.00  0.00    +0.000 C 
ENDROOT
BRANCH   1   2
ATOM      2  C   UNL     1      48.363   8.105  13.582  0.00  0.00    +0.000 A 
ATOM      3  C   UNL     1      49.445   7.267  13.829  0.00  0.00    +0.000 A 
ATOM      4  C   UNL     1      49.918   7.160  15.134  0.00  0.00    +0.000 A 
ATOM      5  C   UNL     1      49.309   7.894  16.155  0.00  0.00    +0.000 A 
ATOM      6  C   UNL     1      48.239   8.707  15.809  0.00  0.00    +0.000 A 
ATOM      7  N   UNL     1      47.753   8.820  14.559  0.00  0.00    +0.000 NA
BRANCH   5   8
ATOM      8  C   UNL     1      49.765   7.806  17.577  0.00  0.00    +0.000 C 
BRANCH   8   9
ATOM      9  O   UNL     1      48.668   7.322  18.342  0.00  0.00    +0.000 OA
BRANCH   9  10
ATOM     10  C   UNL     1      48.969   6.122  19.039  0.00  0.00    +0.000 C 
BRANCH  10  11
ATOM     11  C   UNL     1      48.574   4.993  18.150  0.00  0.00    +0.000 A 
ATOM     12  C   UNL     1      49.512   4.217  17.497  0.00  0.00    +0.000 A 
ATOM     13  N   UNL     1      49.205   3.204  16.663  0.00  0.00    +0.000 NA
ATOM     14  C   UNL     1      47.895   2.984  16.482  0.00  0.00    +0.000 A 
ATOM     15  N   UNL     1      46.892   3.659  17.064  0.00  0.00    +0.000 NA
ATOM     16  C   UNL     1      47.262   4.659  17.889  0.00  0.00    +0.000 A 
ENDBRANCH  10  11
ENDBRANCH   9  10
ENDBRANCH   8   9
ENDBRANCH   5   8
ENDBRANCH   1   2
BRANCH   1  17
ATOM     17  O   UNL     1      47.318   6.926  11.714  0.00  0.00    +0.000 OA
BRANCH  17  19
ATOM     18  O   UNL     1      45.101   7.478  11.954  0.00  0.00    +0.000 OA
ATOM     19  C   UNL     1      45.988   6.771  11.485  0.00  0.00    +0.000 C 
BRANCH  19  20
ATOM     20  C   UNL     1      45.719   5.521  10.792  0.00  0.00    +0.000 A 
ATOM     21  C   UNL     1      45.782   5.389   9.415  0.00  0.00    +0.000 A 
ATOM     22  S   UNL     1      44.901   4.022   8.865  0.00  0.00    +0.000 S 
ATOM     23  C   UNL     1      44.468   3.605  10.461  0.00  0.00    +0.000 A 
ATOM     24  N   UNL     1      43.477   2.720  10.743  0.00  0.00    +0.000 NA
ATOM     25  C   UNL     1      43.262   2.560  12.009  0.00  0.00    +0.000 A 
ATOM     26  N   UNL     1      44.020   3.111  13.016  0.00  0.00    +0.000 N 
ATOM     27  C   UNL     1      45.067   3.969  12.776  0.00  0.00    +0.000 A 
ATOM     28  O   UNL     1      45.810   4.358  13.673  0.00  0.00    +0.000 OA
ATOM     29  C   UNL     1      45.188   4.333  11.384  0.00  0.00    +0.000 A 
ATOM     30  H   UNL     1      43.870   2.852  13.977  0.00  0.00    +0.000 HD
ENDBRANCH  19  20
ENDBRANCH  17  19
ENDBRANCH   1  17
TORSDOF 8
ENDMDL
MODEL 9
REMARK VINA RESULT:    -6.669      3.177      4.526
REMARK INTER + INTRA:         -10.830
REMARK INTER:                  -9.575
REMARK INTRA:                  -1.255
REMARK UNBOUND:                -1.042
REMARK  Name = 
REMARK  8 active torsions:
REMARK  status: ('A' for Active; 'I' for Inactive)
REMARK    1  A    between atoms: C_2  and  O_3
REMARK    2  A    between atoms: C_2  and  C_20
REMARK    3  A    between atoms: O_3  and  C_4
REMARK    4  A    between atoms: C_4  and  C_5
REMARK    5  A    between atoms: C_8  and  C_9
REMARK    6  A    between atoms: C_9  and  O_10
REMARK    7  A    between atoms: O_10  and  C_11
REMARK    8  A    between atoms: C_11  and  C_12
REMARK                            x       y       z     vdW  Elec       q    Type
REMARK                         _______ _______ _______ _____ _____    ______ ____
ROOT
ATOM      1  C   UNL     1      49.663   7.179  16.360  0.00  0.00    +0.000 C 
ENDROOT
BRANCH   1   2
ATOM      2  C   UNL     1      48.809   7.194  15.126  0.00  0.00    +0.000 A 
ATOM      3  C   UNL     1      48.360   8.390  14.576  0.00  0.00    +0.000 A 
ATOM      4  C   UNL     1      47.497   8.338  13.485  0.00  0.00    +0.000 A 
ATOM      5  C   UNL     1      47.110   7.101  12.964  0.00  0.00    +0.000 A 
ATOM      6  C   UNL     1      47.615   5.962  13.577  0.00  0.00    +0.000 A 
ATOM      7  N   UNL     1      48.440   5.983  14.640  0.00  0.00    +0.000 NA
BRANCH   5   8
ATOM      8  C   UNL     1      46.174   6.984  11.804  0.00  0.00    +0.000 C 
BRANCH   8   9
ATOM      9  O   UNL     1      44.869   7.284  12.283  0.00  0.00    +0.000 OA
BRANCH   9  10
ATOM     10  C   UNL     1      43.844   6.798  11.430  0.00  0.00    +0.000 C 
BRANCH  10  11
ATOM     11  C   UNL     1      43.736   5.331  11.672  0.00  0.00    +0.000 A 
ATOM     12  C   UNL     1      43.661   4.424  10.634  0.00  0.00    +0.000 A 
ATOM     13  N   UNL     1      43.536   3.093  10.802  0.00  0.00    +0.000 NA
ATOM     14  C   UNL     1      43.474   2.676  12.075  0.00  0.00    +0.000 A 
ATOM     15  N   UNL     1      43.543   3.454  13.166  0.00  0.00    +0.000 NA
ATOM     16  C   UNL     1      43.671   4.776  12.933  0.00  0.00    +0.000 A 
ENDBRANCH  10  11
ENDBRANCH   9  10
ENDBRANCH   8   9
ENDBRANCH   5   8
ENDBRANCH   1   2
BRANCH   1  17
ATOM     17  O   UNL     1      48.901   7.172  17.567  0.00  0.00    +0.000 OA
BRANCH  17  19
ATOM     18  O   UNL     1      49.889   7.219  19.641  0.00  0.00    +0.000 OA
ATOM     19  C   UNL     1      49.481   6.607  18.658  0.00  0.00    +0.000 C 
BRANCH  19  20
ATOM     20  C   UNL     1      49.768   5.200  18.428  0.00  0.00    +0.000 A 
ATOM     21  C   UNL     1      51.030   4.650  18.579  0.00  0.00    +0.000 A 
ATOM     22  S   UNL     1      51.184   3.167  17.728  0.00  0.00    +0.000 S 
ATOM     23  C   UNL     1      49.568   3.258  17.190  0.00  0.00    +0.000 A 
ATOM     24  N   UNL     1      49.089   2.489  16.178  0.00  0.00    +0.000 NA
ATOM     25  C   UNL     1      47.852   2.725  15.880  0.00  0.00    +0.000 A 
ATOM     26  N   UNL     1      47.019   3.572  16.575  0.00  0.00    +0.000 N 
ATOM     27  C   UNL     1      47.447   4.329  17.640  0.00  0.00    +0.000 A 
ATOM     28  O   UNL     1      46.669   4.987  18.326  0.00  0.00    +0.000 OA
ATOM     29  C   UNL     1      48.873   4.246  17.852  0.00  0.00    +0.000 A 
ATOM     30  H   UNL     1      46.037   3.621  16.361  0.00  0.00    +0.000 HD
ENDBRANCH  19  20
ENDBRANCH  17  19
ENDBRANCH   1  17
TORSDOF 8
ENDMDL
