MODEL 1
REMARK VINA RESULT:    -6.613      0.000      0.000
REMARK INTER + INTRA:         -10.176
REMARK INTER:                  -9.898
REMARK INTRA:                  -0.278
REMARK UNBOUND:                -0.278
REMARK  Name = 
REMARK  12 active torsions:
REMARK  status: ('A' for Active; 'I' for Inactive)
REMARK    1  A    between atoms: C_1  and  C_2
REMARK    2  A    between atoms: C_3  and  C_4
REMARK    3  A    between atoms: C_7  and  C_8
REMARK    4  A    between atoms: C_8  and  C_9
REMARK    5  A    between atoms: C_8  and  C_10
REMARK    6  A    between atoms: C_10  and  O_11
REMARK    7  A    between atoms: O_11  and  C_12
REMARK    8  A    between atoms: C_16  and  C_17
REMARK    9  A    between atoms: C_17  and  N_18
REMARK   10  A    between atoms: N_18  and  C_19
REMARK   11  A    between atoms: C_19  and  C_20
REMARK   12  A    between atoms: C_22  and  N_23
REMARK                            x       y       z     vdW  Elec       q    Type
REMARK                         _______ _______ _______ _____ _____    ______ ____
ROOT
ATOM      1  C   UNL     1      44.041   5.225  12.264  0.00  0.00    +0.000 C 
ATOM      2  C   UNL     1      42.510   5.361  12.235  0.00  0.00    +0.000 C 
ENDROOT
BRANCH   1   6
ATOM      3  C   UNL     1      45.746   3.838   8.562  0.00  0.00    +0.000 A 
ATOM      4  C   UNL     1      45.840   5.144   9.004  0.00  0.00    +0.000 A 
ATOM      5  N   UNL     1      45.304   5.607  10.165  0.00  0.00    +0.000 NA
ATOM      6  C   UNL     1      44.597   4.718  10.939  0.00  0.00    +0.000 A 
ATOM      7  C   UNL     1      44.447   3.372  10.568  0.00  0.00    +0.000 A 
ATOM      8  C   UNL     1      45.028   2.950   9.369  0.00  0.00    +0.000 A 
BRANCH   3  11
ATOM      9  C   UNL     1      47.504   2.435   4.938  0.00  0.00    +0.000 C 
ATOM     10  C   UNL     1      46.874   2.945   6.225  0.00  0.00    +0.000 C 
ATOM     11  C   UNL     1      46.335   3.384   7.328  0.00  0.00    +0.000 C 
ENDBRANCH   3  11
BRANCH   7  12
ATOM     12  N   UNL     1      43.558   2.496  11.217  0.00  0.00    +0.000 N 
ATOM     13  H   UNL     1      42.566   2.642  11.108  0.00  0.00    +0.000 HD
ATOM     14  H   UNL     1      43.828   2.174  12.139  0.00  0.00    +0.000 HD
ENDBRANCH   7  12
ENDBRANCH   1   6
BRANCH   1  15
ATOM     15  C   UNL     1      44.447   4.356  13.451  0.00  0.00    +0.000 C 
BRANCH  15  16
ATOM     16  O   UNL     1      45.814   3.944  13.282  0.00  0.00    +0.000 OA
BRANCH  16  17
ATOM     17  C   UNL     1      46.718   4.633  14.042  0.00  0.00    +0.000 A 
ATOM     18  C   UNL     1      47.359   5.803  13.611  0.00  0.00    +0.000 A 
ATOM     19  C   UNL     1      48.238   6.459  14.448  0.00  0.00    +0.000 A 
ATOM     20  C   UNL     1      48.494   5.957  15.726  0.00  0.00    +0.000 A 
ATOM     21  C   UNL     1      47.859   4.793  16.181  0.00  0.00    +0.000 A 
ATOM     22  C   UNL     1      46.971   4.133  15.323  0.00  0.00    +0.000 A 
BRANCH  21  23
ATOM     23  C   UNL     1      48.110   4.269  17.578  0.00  0.00    +0.000 C 
BRANCH  23  24
ATOM     24  N   UNL     1      46.952   4.490  18.440  0.00  0.00    +0.000 NA
ATOM     25  H   UNL     1      46.954   3.795  19.183  0.00  0.00    +0.000 HD
BRANCH  24  26
ATOM     26  C   UNL     1      46.960   5.827  19.028  0.00  0.00    +0.000 C 
ATOM     27  C   UNL     1      48.100   5.908  20.033  0.00  0.00    +0.000 C 
ENDBRANCH  24  26
ENDBRANCH  23  24
ENDBRANCH  21  23
ENDBRANCH  16  17
ENDBRANCH  15  16
ENDBRANCH   1  15
TORSDOF 9
ENDMDL
MODEL 2
REMARK VINA RESULT:    -6.555      2.970      8.212
REMARK INTER + INTRA:         -10.091
REMARK INTER:                  -8.984
REMARK INTRA:                  -1.107
REMARK UNBOUND:                -0.278
REMARK  Name = 
REMARK  12 active torsions:
REMARK  status: ('A' for Active; 'I' for Inactive)
REMARK    1  A    between atoms: C_1  and  C_2
REMARK    2  A    between atoms: C_3  and  C_4
REMARK    3  A    between atoms: C_7  and  C_8
REMARK    4  A    between atoms: C_8  and  C_9
REMARK    5  A    between atoms: C_8  and  C_10
REMARK    6  A    between atoms: C_10  and  O_11
REMARK    7  A    between atoms: O_11  and  C_12
REMARK    8  A    between atoms: C_16  and  C_17
REMARK    9  A    between atoms: C_17  and  N_18
REMARK   10  A    between atoms: N_18  and  C_19
REMARK   11  A    between atoms: C_19  and  C_20
REMARK   12  A    between atoms: C_22  and  N_23
REMARK                            x       y       z     vdW  Elec       q    Type
REMARK                         _______ _______ _______ _____ _____    ______ ____
ROOT
ATOM      1  C   UNL     1      48.327   5.697  16.895  0.00  0.00    +0.000 C 
ATOM      2  C   UNL     1      48.576   6.836  17.897  0.00  0.00    +0.000 C 
ENDROOT
BRANCH   1   6
ATOM      3  C   UNL     1      51.193   2.540  17.486  0.00  0.00    +0.000 A 
ATOM      4  C   UNL     1      51.528   3.881  17.457  0.00  0.00    +0.000 A 
ATOM      5  N   UNL     1      50.643   4.895  17.266  0.00  0.00    +0.000 NA
ATOM      6  C   UNL     1      49.326   4.559  17.059  0.00  0.00    +0.000 A 
ATOM      7  C   UNL     1      48.894   3.223  17.068  0.00  0.00    +0.000 A 
ATOM      8  C   UNL     1      49.847   2.224  17.281  0.00  0.00    +0.000 A 
BRANCH   3  11
ATOM      9  C   UNL     1      54.054  -0.543  18.188  0.00  0.00    +0.000 C 
ATOM     10  C   UNL     1      53.035   0.554  17.926  0.00  0.00    +0.000 C 
ATOM     11  C   UNL     1      52.161   1.495  17.700  0.00  0.00    +0.000 C 
ENDBRANCH   3  11
BRANCH   7  12
ATOM     12  N   UNL     1      47.608   2.834  16.650  0.00  0.00    +0.000 N 
ATOM     13  H   UNL     1      46.928   2.573  17.348  0.00  0.00    +0.000 HD
ATOM     14  H   UNL     1      47.553   2.289  15.797  0.00  0.00    +0.000 HD
ENDBRANCH   7  12
ENDBRANCH   1   6
BRANCH   1  15
ATOM     15  C   UNL     1      48.302   6.269  15.479  0.00  0.00    +0.000 C 
BRANCH  15  16
ATOM     16  O   UNL     1      47.951   5.221  14.559  0.00  0.00    +0.000 OA
BRANCH  16  17
ATOM     17  C   UNL     1      47.015   5.568  13.625  0.00  0.00    +0.000 A 
ATOM     18  C   UNL     1      47.286   6.403  12.532  0.00  0.00    +0.000 A 
ATOM     19  C   UNL     1      46.295   6.685  11.615  0.00  0.00    +0.000 A 
ATOM     20  C   UNL     1      45.018   6.140  11.774  0.00  0.00    +0.000 A 
ATOM     21  C   UNL     1      44.727   5.296  12.855  0.00  0.00    +0.000 A 
ATOM     22  C   UNL     1      45.739   5.020  13.782  0.00  0.00    +0.000 A 
BRANCH  21  23
ATOM     23  C   UNL     1      43.355   4.678  13.007  0.00  0.00    +0.000 C 
BRANCH  23  24
ATOM     24  N   UNL     1      42.882   4.125  11.741  0.00  0.00    +0.000 NA
ATOM     25  H   UNL     1      43.160   4.747  10.984  0.00  0.00    +0.000 HD
BRANCH  24  26
ATOM     26  C   UNL     1      43.423   2.791  11.495  0.00  0.00    +0.000 C 
ATOM     27  C   UNL     1      44.185   2.811  10.177  0.00  0.00    +0.000 C 
ENDBRANCH  24  26
ENDBRANCH  23  24
ENDBRANCH  21  23
ENDBRANCH  16  17
ENDBRANCH  15  16
ENDBRANCH   1  15
TORSDOF 9
ENDMDL
MODEL 3
REMARK VINA RESULT:    -6.507      2.585      3.592
REMARK INTER + INTRA:         -10.019
REMARK INTER:                  -8.919
REMARK INTRA:                  -1.100
REMARK UNBOUND:                -0.278
REMARK  Name = 
REMARK  12 active torsions:
REMARK  status: ('A' for Active; 'I' for Inactive)
REMARK    1  A    between atoms: C_1  and  C_2
REMARK    2  A    between atoms: C_3  and  C_4
REMARK    3  A    between atoms: C_7  and  C_8
REMARK    4  A    between atoms: C_8  and  C_9
REMARK    5  A    between atoms: C_8  and  C_10
REMARK    6  A    between atoms: C_10  and  O_11
REMARK    7  A    between atoms: O_11  and  C_12
REMARK    8  A    between atoms: C_16  and  C_17
REMARK    9  A    between atoms: C_17  and  N_18
REMARK   10  A    between atoms: N_18  and  C_19
REMARK   11  A    between atoms: C_19  and  C_20
REMARK   12  A    between atoms: C_22  and  N_23
REMARK                            x       y       z     vdW  Elec       q    Type
REMARK                         _______ _______ _______ _____ _____    ______ ____
ROOT
ATOM      1  C   UNL     1      44.025   4.900  12.091  0.00  0.00    +0.000 C 
ATOM      2  C   UNL     1      44.824   4.383  13.299  0.00  0.00    +0.000 C 
ENDROOT
BRANCH   1   6
ATOM      3  C   UNL     1      45.794   3.577   8.396  0.00  0.00    +0.000 A 
ATOM      4  C   UNL     1      45.836   4.886   8.837  0.00  0.00    +0.000 A 
ATOM      5  N   UNL     1      45.280   5.329   9.997  0.00  0.00    +0.000 NA
ATOM      6  C   UNL     1      44.605   4.414  10.769  0.00  0.00    +0.000 A 
ATOM      7  C   UNL     1      44.507   3.063  10.398  0.00  0.00    +0.000 A 
ATOM      8  C   UNL     1      45.108   2.663   9.201  0.00  0.00    +0.000 A 
BRANCH   3  11
ATOM      9  C   UNL     1      47.661   2.314   4.776  0.00  0.00    +0.000 C 
ATOM     10  C   UNL     1      46.985   2.762   6.062  0.00  0.00    +0.000 C 
ATOM     11  C   UNL     1      46.404   3.145   7.164  0.00  0.00    +0.000 C 
ENDBRANCH   3  11
BRANCH   7  12
ATOM     12  N   UNL     1      43.650   2.154  11.045  0.00  0.00    +0.000 N 
ATOM     13  H   UNL     1      42.656   2.328  11.028  0.00  0.00    +0.000 HD
ATOM     14  H   UNL     1      43.984   1.754  11.914  0.00  0.00    +0.000 HD
ENDBRANCH   7  12
ENDBRANCH   1   6
BRANCH   1  15
ATOM     15  C   UNL     1      43.919   6.421  12.172  0.00  0.00    +0.000 C 
BRANCH  15  16
ATOM     16  O   UNL     1      44.849   6.901  13.158  0.00  0.00    +0.000 OA
BRANCH  16  17
ATOM     17  C   UNL     1      45.750   7.820  12.697  0.00  0.00    +0.000 A 
ATOM     18  C   UNL     1      45.430   9.161  12.446  0.00  0.00    +0.000 A 
ATOM     19  C   UNL     1      46.403  10.035  12.009  0.00  0.00    +0.000 A 
ATOM     20  C   UNL     1      47.711   9.585  11.812  0.00  0.00    +0.000 A 
ATOM     21  C   UNL     1      48.056   8.250  12.063  0.00  0.00    +0.000 A 
ATOM     22  C   UNL     1      47.060   7.370  12.504  0.00  0.00    +0.000 A 
BRANCH  21  23
ATOM     23  C   UNL     1      49.480   7.771  11.884  0.00  0.00    +0.000 C 
BRANCH  23  24
ATOM     24  N   UNL     1      49.917   6.975  13.028  0.00  0.00    +0.000 NA
ATOM     25  H   UNL     1      50.660   6.347  12.730  0.00  0.00    +0.000 HD
BRANCH  24  26
ATOM     26  C   UNL     1      50.402   7.814  14.120  0.00  0.00    +0.000 C 
ATOM     27  C   UNL     1      49.576   7.518  15.364  0.00  0.00    +0.000 C 
ENDBRANCH  24  26
ENDBRANCH  23  24
ENDBRANCH  21  23
ENDBRANCH  16  17
ENDBRANCH  15  16
ENDBRANCH   1  15
TORSDOF 9
ENDMDL
MODEL 4
REMARK VINA RESULT:    -6.437      3.249      4.610
REMARK INTER + INTRA:          -9.913
REMARK INTER:                  -9.464
REMARK INTRA:                  -0.449
REMARK UNBOUND:                -0.278
REMARK  Name = 
REMARK  12 active torsions:
REMARK  status: ('A' for Active; 'I' for Inactive)
REMARK    1  A    between atoms: C_1  and  C_2
REMARK    2  A    between atoms: C_3  and  C_4
REMARK    3  A    between atoms: C_7  and  C_8
REMARK    4  A    between atoms: C_8  and  C_9
REMARK    5  A    between atoms: C_8  and  C_10
REMARK    6  A    between atoms: C_10  and  O_11
REMARK    7  A    between atoms: O_11  and  C_12
REMARK    8  A    between atoms: C_16  and  C_17
REMARK    9  A    between atoms: C_17  and  N_18
REMARK   10  A    between atoms: N_18  and  C_19
REMARK   11  A    between atoms: C_19  and  C_20
REMARK   12  A    between atoms: C_22  and  N_23
REMARK                            x       y       z     vdW  Elec       q    Type
REMARK                         _______ _______ _______ _____ _____    ______ ____
ROOT
ATOM      1  C   UNL     1      43.457   4.662  12.117  0.00  0.00    +0.000 C 
ATOM      2  C   UNL     1      43.696   3.687  13.280  0.00  0.00    +0.000 C 
ENDROOT
BRANCH   1   6
ATOM      3  C   UNL     1      45.545   3.457   8.550  0.00  0.00    +0.000 A 
ATOM      4  C   UNL     1      45.421   4.773   8.954  0.00  0.00    +0.000 A 
ATOM      5  N   UNL     1      44.761   5.179  10.073  0.00  0.00    +0.000 NA
ATOM      6  C   UNL     1      44.153   4.213  10.838  0.00  0.00    +0.000 A 
ATOM      7  C   UNL     1      44.223   2.851  10.503  0.00  0.00    +0.000 A 
ATOM      8  C   UNL     1      44.924   2.492   9.348  0.00  0.00    +0.000 A 
BRANCH   3  11
ATOM      9  C   UNL     1      47.718   2.295   5.070  0.00  0.00    +0.000 C 
ATOM     10  C   UNL     1      46.934   2.710   6.304  0.00  0.00    +0.000 C 
ATOM     11  C   UNL     1      46.260   3.067   7.362  0.00  0.00    +0.000 C 
ENDBRANCH   3  11
BRANCH   7  12
ATOM     12  N   UNL     1      43.440   1.868  11.135  0.00  0.00    +0.000 N 
ATOM     13  H   UNL     1      42.624   1.517  10.657  0.00  0.00    +0.000 HD
ATOM     14  H   UNL     1      43.326   1.952  12.138  0.00  0.00    +0.000 HD
ENDBRANCH   7  12
ENDBRANCH   1   6
BRANCH   1  15
ATOM     15  C   UNL     1      43.860   6.070  12.550  0.00  0.00    +0.000 C 
BRANCH  15  16
ATOM     16  O   UNL     1      45.086   5.996  13.296  0.00  0.00    +0.000 OA
BRANCH  16  17
ATOM     17  C   UNL     1      46.055   6.873  12.896  0.00  0.00    +0.000 A 
ATOM     18  C   UNL     1      47.407   6.527  12.763  0.00  0.00    +0.000 A 
ATOM     19  C   UNL     1      48.321   7.463  12.324  0.00  0.00    +0.000 A 
ATOM     20  C   UNL     1      47.902   8.759  12.014  0.00  0.00    +0.000 A 
ATOM     21  C   UNL     1      46.554   9.125  12.133  0.00  0.00    +0.000 A 
ATOM     22  C   UNL     1      45.635   8.170  12.581  0.00  0.00    +0.000 A 
BRANCH  21  23
ATOM     23  C   UNL     1      46.096  10.519  11.763  0.00  0.00    +0.000 C 
BRANCH  23  24
ATOM     24  N   UNL     1      44.702  10.734  12.144  0.00  0.00    +0.000 NA
ATOM     25  H   UNL     1      44.664  11.449  12.867  0.00  0.00    +0.000 HD
BRANCH  24  26
ATOM     26  C   UNL     1      43.886  11.151  11.008  0.00  0.00    +0.000 C 
ATOM     27  C   UNL     1      43.038   9.969  10.559  0.00  0.00    +0.000 C 
ENDBRANCH  24  26
ENDBRANCH  23  24
ENDBRANCH  21  23
ENDBRANCH  16  17
ENDBRANCH  15  16
ENDBRANCH   1  15
TORSDOF 9
ENDMDL
MODEL 5
REMARK VINA RESULT:    -6.292      2.938      9.019
REMARK INTER + INTRA:          -9.697
REMARK INTER:                  -9.003
REMARK INTRA:                  -0.694
REMARK UNBOUND:                -0.278
REMARK  Name = 
REMARK  12 active torsions:
REMARK  status: ('A' for Active; 'I' for Inactive)
REMARK    1  A    between atoms: C_1  and  C_2
REMARK    2  A    between atoms: C_3  and  C_4
REMARK    3  A    between atoms: C_7  and  C_8
REMARK    4  A    between atoms: C_8  and  C_9
REMARK    5  A    between atoms: C_8  and  C_10
REMARK    6  A    between atoms: C_10  and  O_11
REMARK    7  A    between atoms: O_11  and  C_12
REMARK    8  A    between atoms: C_16  and  C_17
REMARK    9  A    between atoms: C_17  and  N_18
REMARK   10  A    between atoms: N_18  and  C_19
REMARK   11  A    between atoms: C_19  and  C_20
REMARK   12  A    between atoms: C_22  and  N_23
REMARK                            x       y       z     vdW  Elec       q    Type
REMARK                         _______ _______ _______ _____ _____    ______ ____
ROOT
ATOM      1  C   UNL     1      48.084   3.328  16.503  0.00  0.00    +0.000 C 
ATOM      2  C   UNL     1      47.167   2.828  17.632  0.00  0.00    +0.000 C 
ENDROOT
BRANCH   1   6
ATOM      3  C   UNL     1      51.704   5.007  18.117  0.00  0.00    +0.000 A 
ATOM      4  C   UNL     1      50.616   5.766  17.731  0.00  0.00    +0.000 A 
ATOM      5  N   UNL     1      49.465   5.260  17.213  0.00  0.00    +0.000 NA
ATOM      6  C   UNL     1      49.392   3.899  17.036  0.00  0.00    +0.000 A 
ATOM      7  C   UNL     1      50.450   3.049  17.396  0.00  0.00    +0.000 A 
ATOM      8  C   UNL     1      51.604   3.625  17.934  0.00  0.00    +0.000 A 
BRANCH   3  11
ATOM      9  C   UNL     1      55.220   6.764  19.772  0.00  0.00    +0.000 C 
ATOM     10  C   UNL     1      53.973   6.128  19.179  0.00  0.00    +0.000 C 
ATOM     11  C   UNL     1      52.904   5.582  18.670  0.00  0.00    +0.000 C 
ENDBRANCH   3  11
BRANCH   7  12
ATOM     12  N   UNL     1      50.495   1.690  17.033  0.00  0.00    +0.000 N 
ATOM     13  H   UNL     1      51.324   1.157  17.250  0.00  0.00    +0.000 HD
ATOM     14  H   UNL     1      50.064   1.441  16.151  0.00  0.00    +0.000 HD
ENDBRANCH   7  12
ENDBRANCH   1   6
BRANCH   1  15
ATOM     15  C   UNL     1      47.315   4.316  15.631  0.00  0.00    +0.000 C 
BRANCH  15  16
ATOM     16  O   UNL     1      46.662   3.594  14.573  0.00  0.00    +0.000 OA
BRANCH  16  17
ATOM     17  C   UNL     1      46.331   4.349  13.482  0.00  0.00    +0.000 A 
ATOM     18  C   UNL     1      46.882   5.610  13.218  0.00  0.00    +0.000 A 
ATOM     19  C   UNL     1      46.519   6.300  12.079  0.00  0.00    +0.000 A 
ATOM     20  C   UNL     1      45.599   5.742  11.187  0.00  0.00    +0.000 A 
ATOM     21  C   UNL     1      45.042   4.479  11.427  0.00  0.00    +0.000 A 
ATOM     22  C   UNL     1      45.414   3.789  12.587  0.00  0.00    +0.000 A 
BRANCH  21  23
ATOM     23  C   UNL     1      44.073   3.861  10.443  0.00  0.00    +0.000 C 
BRANCH  23  24
ATOM     24  N   UNL     1      44.304   2.426  10.306  0.00  0.00    +0.000 NA
ATOM     25  H   UNL     1      43.411   1.940  10.360  0.00  0.00    +0.000 HD
BRANCH  24  26
ATOM     26  C   UNL     1      44.957   2.098   9.042  0.00  0.00    +0.000 C 
ATOM     27  C   UNL     1      44.892   3.317   8.132  0.00  0.00    +0.000 C 
ENDBRANCH  24  26
ENDBRANCH  23  24
ENDBRANCH  21  23
ENDBRANCH  16  17
ENDBRANCH  15  16
ENDBRANCH   1  15
TORSDOF 9
ENDMDL
MODEL 6
REMARK VINA RESULT:    -6.270      2.034      8.835
REMARK INTER + INTRA:          -9.664
REMARK INTER:                  -8.984
REMARK INTRA:                  -0.680
REMARK UNBOUND:                -0.278
REMARK  Name = 
REMARK  12 active torsions:
REMARK  status: ('A' for Active; 'I' for Inactive)
REMARK    1  A    between atoms: C_1  and  C_2
REMARK    2  A    between atoms: C_3  and  C_4
REMARK    3  A    between atoms: C_7  and  C_8
REMARK    4  A    between atoms: C_8  and  C_9
REMARK    5  A    between atoms: C_8  and  C_10
REMARK    6  A    between atoms: C_10  and  O_11
REMARK    7  A    between atoms: O_11  and  C_12
REMARK    8  A    between atoms: C_16  and  C_17
REMARK    9  A    between atoms: C_17  and  N_18
REMARK   10  A    between atoms: N_18  and  C_19
REMARK   11  A    between atoms: C_19  and  C_20
REMARK   12  A    between atoms: C_22  and  N_23
REMARK                            x       y       z     vdW  Elec       q    Type
REMARK                         _______ _______ _______ _____ _____    ______ ____
ROOT
ATOM      1  C   UNL     1      47.425   5.688  14.703  0.00  0.00    +0.000 C 
ATOM      2  C   UNL     1      47.909   6.873  13.853  0.00  0.00    +0.000 C 
ENDROOT
BRANCH   1   6
ATOM      3  C   UNL     1      50.074   5.006  18.027  0.00  0.00    +0.000 A 
ATOM      4  C   UNL     1      50.362   5.867  16.985  0.00  0.00    +0.000 A 
ATOM      5  N   UNL     1      49.545   6.095  15.922  0.00  0.00    +0.000 NA
ATOM      6  C   UNL     1      48.362   5.396  15.868  0.00  0.00    +0.000 A 
ATOM      7  C   UNL     1      47.988   4.496  16.880  0.00  0.00    +0.000 A 
ATOM      8  C   UNL     1      48.863   4.312  17.954  0.00  0.00    +0.000 A 
BRANCH   3  11
ATOM      9  C   UNL     1      52.706   4.460  21.338  0.00  0.00    +0.000 C 
ATOM     10  C   UNL     1      51.768   4.643  20.155  0.00  0.00    +0.000 C 
ATOM     11  C   UNL     1      50.964   4.798  19.141  0.00  0.00    +0.000 C 
ENDBRANCH   3  11
BRANCH   7  12
ATOM     12  N   UNL     1      46.901   3.613  16.752  0.00  0.00    +0.000 N 
ATOM     13  H   UNL     1      46.621   3.319  15.828  0.00  0.00    +0.000 HD
ATOM     14  H   UNL     1      46.128   3.746  17.394  0.00  0.00    +0.000 HD
ENDBRANCH   7  12
ENDBRANCH   1   6
BRANCH   1  15
ATOM     15  C   UNL     1      47.203   4.478  13.800  0.00  0.00    +0.000 C 
BRANCH  15  16
ATOM     16  O   UNL     1      45.847   4.023  13.954  0.00  0.00    +0.000 OA
BRANCH  16  17
ATOM     17  C   UNL     1      45.026   4.299  12.896  0.00  0.00    +0.000 A 
ATOM     18  C   UNL     1      44.202   5.430  12.830  0.00  0.00    +0.000 A 
ATOM     19  C   UNL     1      43.422   5.654  11.714  0.00  0.00    +0.000 A 
ATOM     20  C   UNL     1      43.451   4.752  10.648  0.00  0.00    +0.000 A 
ATOM     21  C   UNL     1      44.274   3.618  10.689  0.00  0.00    +0.000 A 
ATOM     22  C   UNL     1      45.059   3.398  11.827  0.00  0.00    +0.000 A 
BRANCH  21  23
ATOM     23  C   UNL     1      44.332   2.661   9.518  0.00  0.00    +0.000 C 
BRANCH  23  24
ATOM     24  N   UNL     1      44.457   3.381   8.254  0.00  0.00    +0.000 NA
ATOM     25  H   UNL     1      43.722   4.083   8.199  0.00  0.00    +0.000 HD
BRANCH  24  26
ATOM     26  C   UNL     1      45.758   4.031   8.125  0.00  0.00    +0.000 C 
ATOM     27  C   UNL     1      46.445   3.499   6.875  0.00  0.00    +0.000 C 
ENDBRANCH  24  26
ENDBRANCH  23  24
ENDBRANCH  21  23
ENDBRANCH  16  17
ENDBRANCH  15  16
ENDBRANCH   1  15
TORSDOF 9
ENDMDL
MODEL 7
REMARK VINA RESULT:    -6.210      2.735      8.413
REMARK INTER + INTRA:          -9.574
REMARK INTER:                  -8.688
REMARK INTRA:                  -0.885
REMARK UNBOUND:                -0.278
REMARK  Name = 
REMARK  12 active torsions:
REMARK  status: ('A' for Active; 'I' for Inactive)
REMARK    1  A    between atoms: C_1  and  C_2
REMARK    2  A    between atoms: C_3  and  C_4
REMARK    3  A    between atoms: C_7  and  C_8
REMARK    4  A    between atoms: C_8  and  C_9
REMARK    5  A    between atoms: C_8  and  C_10
REMARK    6  A    between atoms: C_10  and  O_11
REMARK    7  A    between atoms: O_11  and  C_12
REMARK    8  A    between atoms: C_16  and  C_17
REMARK    9  A    between atoms: C_17  and  N_18
REMARK   10  A    between atoms: N_18  and  C_19
REMARK   11  A    between atoms: C_19  and  C_20
REMARK   12  A    between atoms: C_22  and  N_23
REMARK                            x       y       z     vdW  Elec       q    Type
REMARK                         _______ _______ _______ _____ _____    ______ ____
ROOT
ATOM      1  C   UNL     1      46.918   5.681  13.060  0.00  0.00    +0.000 C 
ATOM      2  C   UNL     1      46.588   4.478  13.958  0.00  0.00    +0.000 C 
ENDROOT
BRANCH   1   6
ATOM      3  C   UNL     1      50.380   7.766  14.542  0.00  0.00    +0.000 A 
ATOM      4  C   UNL     1      49.570   6.973  15.333  0.00  0.00    +0.000 A 
ATOM      5  N   UNL     1      48.468   6.310  14.889  0.00  0.00    +0.000 NA
ATOM      6  C   UNL     1      48.123   6.463  13.568  0.00  0.00    +0.000 A 
ATOM      7  C   UNL     1      48.885   7.253  12.691  0.00  0.00    +0.000 A 
ATOM      8  C   UNL     1      50.013   7.901  13.201  0.00  0.00    +0.000 A 
BRANCH   3  11
ATOM      9  C   UNL     1      53.866   9.724  16.027  0.00  0.00    +0.000 C 
ATOM     10  C   UNL     1      52.617   9.036  15.500  0.00  0.00    +0.000 C 
ATOM     11  C   UNL     1      51.545   8.446  15.049  0.00  0.00    +0.000 C 
ENDBRANCH   3  11
BRANCH   7  12
ATOM     12  N   UNL     1      48.445   7.603  11.402  0.00  0.00    +0.000 N 
ATOM     13  H   UNL     1      48.102   6.876  10.792  0.00  0.00    +0.000 HD
ATOM     14  H   UNL     1      48.967   8.329  10.924  0.00  0.00    +0.000 HD
ENDBRANCH   7  12
ENDBRANCH   1   6
BRANCH   1  15
ATOM     15  C   UNL     1      45.671   6.546  12.898  0.00  0.00    +0.000 C 
BRANCH  15  16
ATOM     16  O   UNL     1      45.306   6.583  11.508  0.00  0.00    +0.000 OA
BRANCH  16  17
ATOM     17  C   UNL     1      44.912   5.382  10.987  0.00  0.00    +0.000 A 
ATOM     18  C   UNL     1      43.944   4.560  11.581  0.00  0.00    +0.000 A 
ATOM     19  C   UNL     1      43.579   3.374  10.978  0.00  0.00    +0.000 A 
ATOM     20  C   UNL     1      44.175   2.988   9.775  0.00  0.00    +0.000 A 
ATOM     21  C   UNL     1      45.139   3.798   9.159  0.00  0.00    +0.000 A 
ATOM     22  C   UNL     1      45.506   4.998   9.781  0.00  0.00    +0.000 A 
BRANCH  21  23
ATOM     23  C   UNL     1      45.758   3.396   7.838  0.00  0.00    +0.000 C 
BRANCH  23  24
ATOM     24  N   UNL     1      46.383   2.079   7.927  0.00  0.00    +0.000 NA
ATOM     25  H   UNL     1      45.654   1.371   7.991  0.00  0.00    +0.000 HD
BRANCH  24  26
ATOM     26  C   UNL     1      47.229   1.800   6.771  0.00  0.00    +0.000 C 
ATOM     27  C   UNL     1      46.940   2.837   5.695  0.00  0.00    +0.000 C 
ENDBRANCH  24  26
ENDBRANCH  23  24
ENDBRANCH  21  23
ENDBRANCH  16  17
ENDBRANCH  15  16
ENDBRANCH   1  15
TORSDOF 9
ENDMDL
MODEL 8
REMARK VINA RESULT:    -6.042      1.765      2.207
REMARK INTER + INTRA:          -9.323
REMARK INTER:                  -9.544
REMARK INTRA:                   0.221
REMARK UNBOUND:                -0.278
REMARK  Name = 
REMARK  12 active torsions:
REMARK  status: ('A' for Active; 'I' for Inactive)
REMARK    1  A    between atoms: C_1  and  C_2
REMARK    2  A    between atoms: C_3  and  C_4
REMARK    3  A    between atoms: C_7  and  C_8
REMARK    4  A    between atoms: C_8  and  C_9
REMARK    5  A    between atoms: C_8  and  C_10
REMARK    6  A    between atoms: C_10  and  O_11
REMARK    7  A    between atoms: O_11  and  C_12
REMARK    8  A    between atoms: C_16  and  C_17
REMARK    9  A    between atoms: C_17  and  N_18
REMARK   10  A    between atoms: N_18  and  C_19
REMARK   11  A    between atoms: C_19  and  C_20
REMARK   12  A    between atoms: C_22  and  N_23
REMARK                            x       y       z     vdW  Elec       q    Type
REMARK                         _______ _______ _______ _____ _____    ______ ____
ROOT
ATOM      1  C   UNL     1      43.838   5.064  12.207  0.00  0.00    +0.000 C 
ATOM      2  C   UNL     1      43.579   3.924  13.206  0.00  0.00    +0.000 C 
ENDROOT
BRANCH   1   6
ATOM      3  C   UNL     1      45.666   3.687   8.561  0.00  0.00    +0.000 A 
ATOM      4  C   UNL     1      45.687   5.006   8.976  0.00  0.00    +0.000 A 
ATOM      5  N   UNL     1      45.112   5.466  10.119  0.00  0.00    +0.000 NA
ATOM      6  C   UNL     1      44.438   4.558  10.902  0.00  0.00    +0.000 A 
ATOM      7  C   UNL     1      44.361   3.199  10.558  0.00  0.00    +0.000 A 
ATOM      8  C   UNL     1      44.981   2.782   9.376  0.00  0.00    +0.000 A 
BRANCH   3  11
ATOM      9  C   UNL     1      47.585   2.344   4.998  0.00  0.00    +0.000 C 
ATOM     10  C   UNL     1      46.891   2.825   6.262  0.00  0.00    +0.000 C 
ATOM     11  C   UNL     1      46.295   3.238   7.345  0.00  0.00    +0.000 C 
ENDBRANCH   3  11
BRANCH   7  12
ATOM     12  N   UNL     1      43.507   2.293  11.213  0.00  0.00    +0.000 N 
ATOM     13  H   UNL     1      42.905   1.705  10.658  0.00  0.00    +0.000 HD
ATOM     14  H   UNL     1      43.089   2.608  12.081  0.00  0.00    +0.000 HD
ENDBRANCH   7  12
ENDBRANCH   1   6
BRANCH   1  15
ATOM     15  C   UNL     1      44.691   6.137  12.879  0.00  0.00    +0.000 C 
BRANCH  15  16
ATOM     16  O   UNL     1      45.899   5.533  13.370  0.00  0.00    +0.000 OA
BRANCH  16  17
ATOM     17  C   UNL     1      47.037   6.255  13.139  0.00  0.00    +0.000 A 
ATOM     18  C   UNL     1      47.309   6.904  11.927  0.00  0.00    +0.000 A 
ATOM     19  C   UNL     1      48.468   7.639  11.781  0.00  0.00    +0.000 A 
ATOM     20  C   UNL     1      49.373   7.736  12.840  0.00  0.00    +0.000 A 
ATOM     21  C   UNL     1      49.118   7.102  14.064  0.00  0.00    +0.000 A 
ATOM     22  C   UNL     1      47.941   6.355  14.201  0.00  0.00    +0.000 A 
BRANCH  21  23
ATOM     23  C   UNL     1      50.082   7.237  15.222  0.00  0.00    +0.000 C 
BRANCH  23  24
ATOM     24  N   UNL     1      49.997   6.086  16.116  0.00  0.00    +0.000 NA
ATOM     25  H   UNL     1      50.681   5.390  15.825  0.00  0.00    +0.000 HD
BRANCH  24  26
ATOM     26  C   UNL     1      50.245   6.457  17.506  0.00  0.00    +0.000 C 
ATOM     27  C   UNL     1      49.493   7.746  17.806  0.00  0.00    +0.000 C 
ENDBRANCH  24  26
ENDBRANCH  23  24
ENDBRANCH  21  23
ENDBRANCH  16  17
ENDBRANCH  15  16
ENDBRANCH   1  15
TORSDOF 9
ENDMDL
MODEL 9
REMARK VINA RESULT:    -5.967      2.231      8.661
REMARK INTER + INTRA:          -9.210
REMARK INTER:                  -8.233
REMARK INTRA:                  -0.977
REMARK UNBOUND:                -0.278
REMARK  Name = 
REMARK  12 active torsions:
REMARK  status: ('A' for Active; 'I' for Inactive)
REMARK    1  A    between atoms: C_1  and  C_2
REMARK    2  A    between atoms: C_3  and  C_4
REMARK    3  A    between atoms: C_7  and  C_8
REMARK    4  A    between atoms: C_8  and  C_9
REMARK    5  A    between atoms: C_8  and  C_10
REMARK    6  A    between atoms: C_10  and  O_11
REMARK    7  A    between atoms: O_11  and  C_12
REMARK    8  A    between atoms: C_16  and  C_17
REMARK    9  A    between atoms: C_17  and  N_18
REMARK   10  A    between atoms: N_18  and  C_19
REMARK   11  A    between atoms: C_19  and  C_20
REMARK   12  A    between atoms: C_22  and  N_23
REMARK                            x       y       z     vdW  Elec       q    Type
REMARK                         _______ _______ _______ _____ _____    ______ ____
ROOT
ATOM      1  C   UNL     1      48.279   7.958  13.302  0.00  0.00    +0.000 C 
ATOM      2  C   UNL     1      49.258   7.265  12.341  0.00  0.00    +0.000 C 
ENDROOT
BRANCH   1   6
ATOM      3  C   UNL     1      48.802   6.450  17.300  0.00  0.00    +0.000 A 
ATOM      4  C   UNL     1      48.665   5.639  16.190  0.00  0.00    +0.000 A 
ATOM      5  N   UNL     1      48.492   6.091  14.919  0.00  0.00    +0.000 NA
ATOM      6  C   UNL     1      48.421   7.451  14.732  0.00  0.00    +0.000 A 
ATOM      7  C   UNL     1      48.547   8.352  15.802  0.00  0.00    +0.000 A 
ATOM      8  C   UNL     1      48.733   7.829  17.084  0.00  0.00    +0.000 A 
BRANCH   3  11
ATOM      9  C   UNL     1      49.424   4.945  21.242  0.00  0.00    +0.000 C 
ATOM     10  C   UNL     1      49.192   5.477  19.836  0.00  0.00    +0.000 C 
ATOM     11  C   UNL     1      48.991   5.932  18.631  0.00  0.00    +0.000 C 
ENDBRANCH   3  11
BRANCH   7  12
ATOM     12  N   UNL     1      48.266   9.725  15.680  0.00  0.00    +0.000 N 
ATOM     13  H   UNL     1      48.853  10.290  15.085  0.00  0.00    +0.000 HD
ATOM     14  H   UNL     1      47.948  10.201  16.517  0.00  0.00    +0.000 HD
ENDBRANCH   7  12
ENDBRANCH   1   6
BRANCH   1  15
ATOM     15  C   UNL     1      46.859   7.820  12.760  0.00  0.00    +0.000 C 
BRANCH  15  16
ATOM     16  O   UNL     1      46.809   6.697  11.863  0.00  0.00    +0.000 OA
BRANCH  16  17
ATOM     17  C   UNL     1      45.660   5.960  11.930  0.00  0.00    +0.000 A 
ATOM     18  C   UNL     1      44.653   6.181  12.879  0.00  0.00    +0.000 A 
ATOM     19  C   UNL     1      43.507   5.412  12.865  0.00  0.00    +0.000 A 
ATOM     20  C   UNL     1      43.350   4.410  11.904  0.00  0.00    +0.000 A 
ATOM     21  C   UNL     1      44.340   4.176  10.941  0.00  0.00    +0.000 A 
ATOM     22  C   UNL     1      45.501   4.959  10.967  0.00  0.00    +0.000 A 
BRANCH  21  23
ATOM     23  C   UNL     1      44.153   3.114   9.879  0.00  0.00    +0.000 C 
BRANCH  23  24
ATOM     24  N   UNL     1      45.318   2.237   9.800  0.00  0.00    +0.000 NA
ATOM     25  H   UNL     1      45.113   1.369  10.289  0.00  0.00    +0.000 HD
BRANCH  24  26
ATOM     26  C   UNL     1      45.681   1.940   8.417  0.00  0.00    +0.000 C 
ATOM     27  C   UNL     1      45.914   3.253   7.682  0.00  0.00    +0.000 C 
ENDBRANCH  24  26
ENDBRANCH  23  24
ENDBRANCH  21  23
ENDBRANCH  16  17
ENDBRANCH  15  16
ENDBRANCH   1  15
TORSDOF 9
ENDMDL
