MODEL 1
REMARK VINA RESULT:    -8.848      0.000      0.000
REMARK INTER + INTRA:         -12.776
REMARK INTER:                 -11.952
REMARK INTRA:                  -0.824
REMARK UNBOUND:                -0.824
REMARK  Name = 
REMARK  6 active torsions:
REMARK  status: ('A' for Active; 'I' for Inactive)
REMARK    1  A    between atoms: N_4  and  C_5
REMARK    2  A    between atoms: C_9  and  C_10
REMARK    3  A    between atoms: C_10  and  C_11
REMARK    4  A    between atoms: C_14  and  C_15
REMARK    5  A    between atoms: C_15  and  N_16
REMARK    6  A    between atoms: C_17  and  C_19
REMARK                            x       y       z     vdW  Elec       q    Type
REMARK                         _______ _______ _______ _____ _____    ______ ____
ROOT
ATOM      1  C   UNL     1      44.827   6.120  11.040  0.00  0.00    +0.000 A 
ATOM      2  C   UNL     1      46.049   5.551  11.393  0.00  0.00    +0.000 A 
ATOM      3  C   UNL     1      46.901   6.251  12.247  0.00  0.00    +0.000 A 
ATOM      4  C   UNL     1      46.541   7.519  12.708  0.00  0.00    +0.000 A 
ATOM      5  C   UNL     1      45.321   8.023  12.271  0.00  0.00    +0.000 A 
ATOM      6  N   UNL     1      44.463   7.360  11.454  0.00  0.00    +0.000 NA
ENDROOT
BRANCH   1   7
ATOM      7  C   UNL     1      43.817   5.316  10.249  0.00  0.00    +0.000 C 
BRANCH   7  12
ATOM      8  C   UNL     1      45.817   3.040   7.889  0.00  0.00    +0.000 A 
ATOM      9  C   UNL     1      45.582   1.796   8.476  0.00  0.00    +0.000 A 
ATOM     10  C   UNL     1      44.717   1.676   9.559  0.00  0.00    +0.000 A 
ATOM     11  C   UNL     1      44.105   2.805  10.098  0.00  0.00    +0.000 A 
ATOM     12  C   UNL     1      44.394   4.077   9.587  0.00  0.00    +0.000 A 
ATOM     13  C   UNL     1      45.255   4.182   8.474  0.00  0.00    +0.000 A 
BRANCH   8  17
ATOM     14  N   UNL     1      48.245   2.798   5.203  0.00  0.00    +0.000 N 
ATOM     15  C   UNL     1      47.688   2.432   6.389  0.00  0.00    +0.000 C 
ATOM     16  O   UNL     1      48.175   1.489   7.002  0.00  0.00    +0.000 OA
ATOM     17  N   UNL     1      46.593   3.189   6.720  0.00  0.00    +0.000 N 
ATOM     18  H   UNL     1      49.109   2.299   5.030  0.00  0.00    +0.000 HD
ATOM     19  H   UNL     1      48.283   3.783   4.992  0.00  0.00    +0.000 HD
ATOM     20  H   UNL     1      46.183   3.716   5.962  0.00  0.00    +0.000 HD
ENDBRANCH   8  17
ENDBRANCH   7  12
ENDBRANCH   1   7
BRANCH   4  21
ATOM     21  C   UNL     1      47.408   8.300  13.655  0.00  0.00    +0.000 C 
BRANCH  21  22
ATOM     22  N   UNL     1      47.767   7.527  14.817  0.00  0.00    +0.000 N 
ATOM     23  C   UNL     1      49.026   6.981  14.965  0.00  0.00    +0.000 C 
ATOM     24  O   UNL     1      49.913   7.155  14.137  0.00  0.00    +0.000 OA
ATOM     25  H   UNL     1      47.008   7.153  15.377  0.00  0.00    +0.000 HD
BRANCH  23  26
ATOM     26  C   UNL     1      49.262   6.249  16.217  0.00  0.00    +0.000 A 
ATOM     27  C   UNL     1      50.265   6.665  17.087  0.00  0.00    +0.000 A 
ATOM     28  S   UNL     1      50.345   5.747  18.524  0.00  0.00    +0.000 S 
ATOM     29  C   UNL     1      49.094   4.718  18.005  0.00  0.00    +0.000 A 
ATOM     30  N   UNL     1      48.682   3.670  18.770  0.00  0.00    +0.000 NA
ATOM     31  C   UNL     1      47.745   2.956  18.238  0.00  0.00    +0.000 A 
ATOM     32  N   UNL     1      47.182   3.198  17.011  0.00  0.00    +0.000 N 
ATOM     33  C   UNL     1      47.537   4.264  16.223  0.00  0.00    +0.000 A 
ATOM     34  O   UNL     1      46.968   4.492  15.163  0.00  0.00    +0.000 OA
ATOM     35  C   UNL     1      48.605   5.089  16.766  0.00  0.00    +0.000 A 
ATOM     36  H   UNL     1      46.440   2.610  16.658  0.00  0.00    +0.000 HD
ENDBRANCH  23  26
ENDBRANCH  21  22
ENDBRANCH   4  21
TORSDOF 6
ENDMDL
MODEL 2
REMARK VINA RESULT:    -8.409      2.101      2.552
REMARK INTER + INTRA:         -12.182
REMARK INTER:                 -11.180
REMARK INTRA:                  -1.002
REMARK UNBOUND:                -0.824
REMARK  Name = 
REMARK  6 active torsions:
REMARK  status: ('A' for Active; 'I' for Inactive)
REMARK    1  A    between atoms: N_4  and  C_5
REMARK    2  A    between atoms: C_9  and  C_10
REMARK    3  A    between atoms: C_10  and  C_11
REMARK    4  A    between atoms: C_14  and  C_15
REMARK    5  A    between atoms: C_15  and  N_16
REMARK    6  A    between atoms: C_17  and  C_19
REMARK                            x       y       z     vdW  Elec       q    Type
REMARK                         _______ _______ _______ _____ _____    ______ ____
ROOT
ATOM      1  C   UNL     1      45.757   5.750  11.608  0.00  0.00    +0.000 A 
ATOM      2  C   UNL     1      45.893   5.048  12.804  0.00  0.00    +0.000 A 
ATOM      3  C   UNL     1      46.866   5.450  13.718  0.00  0.00    +0.000 A 
ATOM      4  C   UNL     1      47.712   6.519  13.415  0.00  0.00    +0.000 A 
ATOM      5  C   UNL     1      47.528   7.133  12.181  0.00  0.00    +0.000 A 
ATOM      6  N   UNL     1      46.581   6.776  11.277  0.00  0.00    +0.000 NA
ENDROOT
BRANCH   1   7
ATOM      7  C   UNL     1      44.608   5.438  10.673  0.00  0.00    +0.000 C 
BRANCH   7  12
ATOM      8  C   UNL     1      45.881   3.083   7.920  0.00  0.00    +0.000 A 
ATOM      9  C   UNL     1      45.339   1.871   8.350  0.00  0.00    +0.000 A 
ATOM     10  C   UNL     1      44.498   1.826   9.457  0.00  0.00    +0.000 A 
ATOM     11  C   UNL     1      44.218   2.986  10.176  0.00  0.00    +0.000 A 
ATOM     12  C   UNL     1      44.822   4.199   9.821  0.00  0.00    +0.000 A 
ATOM     13  C   UNL     1      45.655   4.235   8.683  0.00  0.00    +0.000 A 
BRANCH   8  17
ATOM     14  N   UNL     1      48.245   2.716   5.191  0.00  0.00    +0.000 N 
ATOM     15  C   UNL     1      47.692   2.379   6.388  0.00  0.00    +0.000 C 
ATOM     16  O   UNL     1      48.142   1.414   6.994  0.00  0.00    +0.000 OA
ATOM     17  N   UNL     1      46.643   3.191   6.736  0.00  0.00    +0.000 N 
ATOM     18  H   UNL     1      49.079   2.174   5.004  0.00  0.00    +0.000 HD
ATOM     19  H   UNL     1      48.329   3.698   4.977  0.00  0.00    +0.000 HD
ATOM     20  H   UNL     1      46.246   3.737   5.985  0.00  0.00    +0.000 HD
ENDBRANCH   8  17
ENDBRANCH   7  12
ENDBRANCH   1   7
BRANCH   4  21
ATOM     21  C   UNL     1      48.754   7.011  14.379  0.00  0.00    +0.000 C 
BRANCH  21  22
ATOM     22  N   UNL     1      48.472   6.601  15.731  0.00  0.00    +0.000 N 
ATOM     23  C   UNL     1      49.462   6.126  16.567  0.00  0.00    +0.000 C 
ATOM     24  O   UNL     1      50.635   6.063  16.217  0.00  0.00    +0.000 OA
ATOM     25  H   UNL     1      47.505   6.398  15.962  0.00  0.00    +0.000 HD
BRANCH  23  26
ATOM     26  C   UNL     1      49.036   5.781  17.931  0.00  0.00    +0.000 A 
ATOM     27  C   UNL     1      49.172   4.476  18.391  0.00  0.00    +0.000 A 
ATOM     28  S   UNL     1      48.698   4.274  20.019  0.00  0.00    +0.000 S 
ATOM     29  C   UNL     1      48.226   5.904  20.144  0.00  0.00    +0.000 A 
ATOM     30  N   UNL     1      47.690   6.395  21.294  0.00  0.00    +0.000 NA
ATOM     31  C   UNL     1      47.349   7.641  21.236  0.00  0.00    +0.000 A 
ATOM     32  N   UNL     1      47.501   8.439  20.132  0.00  0.00    +0.000 N 
ATOM     33  C   UNL     1      48.074   7.999  18.965  0.00  0.00    +0.000 A 
ATOM     34  O   UNL     1      48.258   8.755  18.019  0.00  0.00    +0.000 OA
ATOM     35  C   UNL     1      48.455   6.596  18.969  0.00  0.00    +0.000 A 
ATOM     36  H   UNL     1      47.229   9.412  20.157  0.00  0.00    +0.000 HD
ENDBRANCH  23  26
ENDBRANCH  21  22
ENDBRANCH   4  21
TORSDOF 6
ENDMDL
MODEL 3
REMARK VINA RESULT:    -8.332      2.974      8.508
REMARK INTER + INTRA:         -12.079
REMARK INTER:                 -10.774
REMARK INTRA:                  -1.305
REMARK UNBOUND:                -0.824
REMARK  Name = 
REMARK  6 active torsions:
REMARK  status: ('A' for Active; 'I' for Inactive)
REMARK    1  A    between atoms: N_4  and  C_5
REMARK    2  A    between atoms: C_9  and  C_10
REMARK    3  A    between atoms: C_10  and  C_11
REMARK    4  A    between atoms: C_14  and  C_15
REMARK    5  A    between atoms: C_15  and  N_16
REMARK    6  A    between atoms: C_17  and  C_19
REMARK                            x       y       z     vdW  Elec       q    Type
REMARK                         _______ _______ _______ _____ _____    ______ ____
ROOT
ATOM      1  C   UNL     1      49.456   7.832  15.560  0.00  0.00    +0.000 A 
ATOM      2  C   UNL     1      48.336   8.643  15.393  0.00  0.00    +0.000 A 
ATOM      3  C   UNL     1      47.688   8.656  14.158  0.00  0.00    +0.000 A 
ATOM      4  C   UNL     1      48.184   7.892  13.099  0.00  0.00    +0.000 A 
ATOM      5  C   UNL     1      49.329   7.144  13.349  0.00  0.00    +0.000 A 
ATOM      6  N   UNL     1      49.973   7.098  14.542  0.00  0.00    +0.000 NA
ENDROOT
BRANCH   1   7
ATOM      7  C   UNL     1      50.080   7.676  16.931  0.00  0.00    +0.000 C 
BRANCH   7  12
ATOM      8  C   UNL     1      50.083   4.078  18.273  0.00  0.00    +0.000 A 
ATOM      9  C   UNL     1      48.985   4.126  19.132  0.00  0.00    +0.000 A 
ATOM     10  C   UNL     1      48.196   5.269  19.210  0.00  0.00    +0.000 A 
ATOM     11  C   UNL     1      48.518   6.397  18.459  0.00  0.00    +0.000 A 
ATOM     12  C   UNL     1      49.667   6.408  17.658  0.00  0.00    +0.000 A 
ATOM     13  C   UNL     1      50.445   5.235  17.571  0.00  0.00    +0.000 A 
BRANCH   8  17
ATOM     14  N   UNL     1      51.477   0.914  17.171  0.00  0.00    +0.000 N 
ATOM     15  C   UNL     1      50.589   1.944  17.128  0.00  0.00    +0.000 C 
ATOM     16  O   UNL     1      49.716   1.933  16.269  0.00  0.00    +0.000 OA
ATOM     17  N   UNL     1      50.838   2.901  18.078  0.00  0.00    +0.000 N 
ATOM     18  H   UNL     1      51.214   0.172  16.534  0.00  0.00    +0.000 HD
ATOM     19  H   UNL     1      51.777   0.596  18.079  0.00  0.00    +0.000 HD
ATOM     20  H   UNL     1      51.758   2.873  18.494  0.00  0.00    +0.000 HD
ENDBRANCH   8  17
ENDBRANCH   7  12
ENDBRANCH   1   7
BRANCH   4  21
ATOM     21  C   UNL     1      47.503   7.846  11.761  0.00  0.00    +0.000 C 
BRANCH  21  22
ATOM     22  N   UNL     1      46.813   6.599  11.549  0.00  0.00    +0.000 N 
ATOM     23  C   UNL     1      45.478   6.446  11.864  0.00  0.00    +0.000 C 
ATOM     24  O   UNL     1      44.803   7.369  12.303  0.00  0.00    +0.000 OA
ATOM     25  H   UNL     1      47.384   5.767  11.439  0.00  0.00    +0.000 HD
BRANCH  23  26
ATOM     26  C   UNL     1      44.897   5.131  11.560  0.00  0.00    +0.000 A 
ATOM     27  C   UNL     1      44.183   4.444  12.536  0.00  0.00    +0.000 A 
ATOM     28  S   UNL     1      43.517   2.972  11.986  0.00  0.00    +0.000 S 
ATOM     29  C   UNL     1      44.219   3.162  10.448  0.00  0.00    +0.000 A 
ATOM     30  N   UNL     1      44.064   2.217   9.482  0.00  0.00    +0.000 NA
ATOM     31  C   UNL     1      44.678   2.479   8.374  0.00  0.00    +0.000 A 
ATOM     32  N   UNL     1      45.428   3.604   8.146  0.00  0.00    +0.000 N 
ATOM     33  C   UNL     1      45.579   4.603   9.076  0.00  0.00    +0.000 A 
ATOM     34  O   UNL     1      46.199   5.626   8.818  0.00  0.00    +0.000 OA
ATOM     35  C   UNL     1      44.927   4.347  10.350  0.00  0.00    +0.000 A 
ATOM     36  H   UNL     1      45.869   3.758   7.251  0.00  0.00    +0.000 HD
ENDBRANCH  23  26
ENDBRANCH  21  22
ENDBRANCH   4  21
TORSDOF 6
ENDMDL
MODEL 4
REMARK VINA RESULT:    -7.621      3.052      3.484
REMARK INTER + INTRA:         -11.118
REMARK INTER:                 -10.271
REMARK INTRA:                  -0.847
REMARK UNBOUND:                -0.824
REMARK  Name = 
REMARK  6 active torsions:
REMARK  status: ('A' for Active; 'I' for Inactive)
REMARK    1  A    between atoms: N_4  and  C_5
REMARK    2  A    between atoms: C_9  and  C_10
REMARK    3  A    between atoms: C_10  and  C_11
REMARK    4  A    between atoms: C_14  and  C_15
REMARK    5  A    between atoms: C_15  and  N_16
REMARK    6  A    between atoms: C_17  and  C_19
REMARK                            x       y       z     vdW  Elec       q    Type
REMARK                         _______ _______ _______ _____ _____    ______ ____
ROOT
ATOM      1  C   UNL     1      46.129   5.824  12.053  0.00  0.00    +0.000 A 
ATOM      2  C   UNL     1      46.118   4.671  12.835  0.00  0.00    +0.000 A 
ATOM      3  C   UNL     1      46.886   4.634  13.999  0.00  0.00    +0.000 A 
ATOM      4  C   UNL     1      47.679   5.730  14.348  0.00  0.00    +0.000 A 
ATOM      5  C   UNL     1      47.656   6.821  13.486  0.00  0.00    +0.000 A 
ATOM      6  N   UNL     1      46.908   6.893  12.355  0.00  0.00    +0.000 NA
ENDROOT
BRANCH   1   7
ATOM      7  C   UNL     1      45.184   5.949  10.876  0.00  0.00    +0.000 C 
BRANCH   7  12
ATOM      8  C   UNL     1      45.857   3.455   8.036  0.00  0.00    +0.000 A 
ATOM      9  C   UNL     1      45.115   2.359   8.477  0.00  0.00    +0.000 A 
ATOM     10  C   UNL     1      44.332   2.451   9.624  0.00  0.00    +0.000 A 
ATOM     11  C   UNL     1      44.312   3.627  10.370  0.00  0.00    +0.000 A 
ATOM     12  C   UNL     1      45.119   4.711  10.000  0.00  0.00    +0.000 A 
ATOM     13  C   UNL     1      45.890   4.613   8.823  0.00  0.00    +0.000 A 
BRANCH   8  17
ATOM     14  N   UNL     1      48.087   2.788   5.251  0.00  0.00    +0.000 N 
ATOM     15  C   UNL     1      47.575   2.567   6.492  0.00  0.00    +0.000 C 
ATOM     16  O   UNL     1      48.017   1.635   7.154  0.00  0.00    +0.000 OA
ATOM     17  N   UNL     1      46.570   3.441   6.817  0.00  0.00    +0.000 N 
ATOM     18  H   UNL     1      48.893   2.202   5.074  0.00  0.00    +0.000 HD
ATOM     19  H   UNL     1      48.195   3.746   4.957  0.00  0.00    +0.000 HD
ATOM     20  H   UNL     1      46.160   3.942   6.041  0.00  0.00    +0.000 HD
ENDBRANCH   8  17
ENDBRANCH   7  12
ENDBRANCH   1   7
BRANCH   4  21
ATOM     21  C   UNL     1      48.498   5.753  15.607  0.00  0.00    +0.000 C 
BRANCH  21  22
ATOM     22  N   UNL     1      48.103   6.825  16.486  0.00  0.00    +0.000 N 
ATOM     23  C   UNL     1      48.953   7.871  16.782  0.00  0.00    +0.000 C 
ATOM     24  O   UNL     1      50.069   7.963  16.287  0.00  0.00    +0.000 OA
ATOM     25  H   UNL     1      47.314   6.653  17.100  0.00  0.00    +0.000 HD
BRANCH  23  26
ATOM     26  C   UNL     1      48.403   8.911  17.663  0.00  0.00    +0.000 A 
ATOM     27  C   UNL     1      48.309  10.224  17.214  0.00  0.00    +0.000 A 
ATOM     28  S   UNL     1      47.577  11.279  18.338  0.00  0.00    +0.000 S 
ATOM     29  C   UNL     1      47.426  10.038  19.493  0.00  0.00    +0.000 A 
ATOM     30  N   UNL     1      46.896  10.281  20.722  0.00  0.00    +0.000 NA
ATOM     31  C   UNL     1      46.871   9.253  21.506  0.00  0.00    +0.000 A 
ATOM     32  N   UNL     1      47.326   8.004  21.168  0.00  0.00    +0.000 N 
ATOM     33  C   UNL     1      47.830   7.703  19.928  0.00  0.00    +0.000 A 
ATOM     34  O   UNL     1      48.165   6.562  19.635  0.00  0.00    +0.000 OA
ATOM     35  C   UNL     1      47.902   8.831  19.013  0.00  0.00    +0.000 A 
ATOM     36  H   UNL     1      47.263   7.237  21.823  0.00  0.00    +0.000 HD
ENDBRANCH  23  26
ENDBRANCH  21  22
ENDBRANCH   4  21
TORSDOF 6
ENDMDL
MODEL 5
REMARK VINA RESULT:    -7.293      3.833      8.090
REMARK INTER + INTRA:         -10.675
REMARK INTER:                  -8.735
REMARK INTRA:                  -1.939
REMARK UNBOUND:                -0.824
REMARK  Name = 
REMARK  6 active torsions:
REMARK  status: ('A' for Active; 'I' for Inactive)
REMARK    1  A    between atoms: N_4  and  C_5
REMARK    2  A    between atoms: C_9  and  C_10
REMARK    3  A    between atoms: C_10  and  C_11
REMARK    4  A    between atoms: C_14  and  C_15
REMARK    5  A    between atoms: C_15  and  N_16
REMARK    6  A    between atoms: C_17  and  C_19
REMARK                            x       y       z     vdW  Elec       q    Type
REMARK                         _______ _______ _______ _____ _____    ______ ____
ROOT
ATOM      1  C   UNL     1      51.325   7.773  16.519  0.00  0.00    +0.000 A 
ATOM      2  C   UNL     1      50.426   8.482  17.313  0.00  0.00    +0.000 A 
ATOM      3  C   UNL     1      49.321   9.086  16.712  0.00  0.00    +0.000 A 
ATOM      4  C   UNL     1      49.147   9.005  15.328  0.00  0.00    +0.000 A 
ATOM      5  C   UNL     1      50.116   8.310  14.614  0.00  0.00    +0.000 A 
ATOM      6  N   UNL     1      51.192   7.699  15.170  0.00  0.00    +0.000 NA
ENDROOT
BRANCH   1   7
ATOM      7  C   UNL     1      52.439   6.976  17.164  0.00  0.00    +0.000 C 
BRANCH   7  12
ATOM      8  C   UNL     1      50.402   3.779  17.775  0.00  0.00    +0.000 A 
ATOM      9  C   UNL     1      51.423   2.830  17.817  0.00  0.00    +0.000 A 
ATOM     10  C   UNL     1      52.756   3.221  17.744  0.00  0.00    +0.000 A 
ATOM     11  C   UNL     1      53.087   4.565  17.587  0.00  0.00    +0.000 A 
ATOM     12  C   UNL     1      52.079   5.529  17.450  0.00  0.00    +0.000 A 
ATOM     13  C   UNL     1      50.732   5.120  17.549  0.00  0.00    +0.000 A 
BRANCH   8  17
ATOM     14  N   UNL     1      46.949   2.709  17.456  0.00  0.00    +0.000 N 
ATOM     15  C   UNL     1      48.205   2.950  16.994  0.00  0.00    +0.000 C 
ATOM     16  O   UNL     1      48.461   2.694  15.823  0.00  0.00    +0.000 OA
ATOM     17  N   UNL     1      49.045   3.436  17.963  0.00  0.00    +0.000 N 
ATOM     18  H   UNL     1      46.320   2.453  16.705  0.00  0.00    +0.000 HD
ATOM     19  H   UNL     1      46.562   3.366  18.116  0.00  0.00    +0.000 HD
ATOM     20  H   UNL     1      48.733   3.306  18.915  0.00  0.00    +0.000 HD
ENDBRANCH   8  17
ENDBRANCH   7  12
ENDBRANCH   1   7
BRANCH   4  21
ATOM     21  C   UNL     1      47.957   9.609  14.638  0.00  0.00    +0.000 C 
BRANCH  21  22
ATOM     22  N   UNL     1      47.054   8.602  14.141  0.00  0.00    +0.000 N 
ATOM     23  C   UNL     1      46.911   8.360  12.790  0.00  0.00    +0.000 C 
ATOM     24  O   UNL     1      47.567   8.960  11.947  0.00  0.00    +0.000 OA
ATOM     25  H   UNL     1      46.327   8.280  14.771  0.00  0.00    +0.000 HD
BRANCH  23  26
ATOM     26  C   UNL     1      45.982   7.279  12.430  0.00  0.00    +0.000 A 
ATOM     27  C   UNL     1      44.821   7.567  11.722  0.00  0.00    +0.000 A 
ATOM     28  S   UNL     1      43.903   6.184  11.325  0.00  0.00    +0.000 S 
ATOM     29  C   UNL     1      44.983   5.159  12.147  0.00  0.00    +0.000 A 
ATOM     30  N   UNL     1      44.762   3.819  12.224  0.00  0.00    +0.000 NA
ATOM     31  C   UNL     1      45.649   3.168  12.905  0.00  0.00    +0.000 A 
ATOM     32  N   UNL     1      46.737   3.740  13.513  0.00  0.00    +0.000 N 
ATOM     33  C   UNL     1      47.023   5.079  13.428  0.00  0.00    +0.000 A 
ATOM     34  O   UNL     1      48.040   5.548  13.924  0.00  0.00    +0.000 OA
ATOM     35  C   UNL     1      46.044   5.862  12.691  0.00  0.00    +0.000 A 
ATOM     36  H   UNL     1      47.404   3.172  14.018  0.00  0.00    +0.000 HD
ENDBRANCH  23  26
ENDBRANCH  21  22
ENDBRANCH   4  21
TORSDOF 6
ENDMDL
MODEL 6
REMARK VINA RESULT:    -7.235      2.305      3.732
REMARK INTER + INTRA:         -10.596
REMARK INTER:                  -9.824
REMARK INTRA:                  -0.772
REMARK UNBOUND:                -0.824
REMARK  Name = 
REMARK  6 active torsions:
REMARK  status: ('A' for Active; 'I' for Inactive)
REMARK    1  A    between atoms: N_4  and  C_5
REMARK    2  A    between atoms: C_9  and  C_10
REMARK    3  A    between atoms: C_10  and  C_11
REMARK    4  A    between atoms: C_14  and  C_15
REMARK    5  A    between atoms: C_15  and  N_16
REMARK    6  A    between atoms: C_17  and  C_19
REMARK                            x       y       z     vdW  Elec       q    Type
REMARK                         _______ _______ _______ _____ _____    ______ ____
ROOT
ATOM      1  C   UNL     1      45.916   5.279  12.026  0.00  0.00    +0.000 A 
ATOM      2  C   UNL     1      45.644   4.154  12.802  0.00  0.00    +0.000 A 
ATOM      3  C   UNL     1      46.260   4.025  14.047  0.00  0.00    +0.000 A 
ATOM      4  C   UNL     1      47.163   4.997  14.485  0.00  0.00    +0.000 A 
ATOM      5  C   UNL     1      47.401   6.064  13.626  0.00  0.00    +0.000 A 
ATOM      6  N   UNL     1      46.807   6.226  12.417  0.00  0.00    +0.000 NA
ENDROOT
BRANCH   1   7
ATOM      7  C   UNL     1      45.142   5.523  10.748  0.00  0.00    +0.000 C 
BRANCH   7  12
ATOM      8  C   UNL     1      45.915   3.180   7.807  0.00  0.00    +0.000 A 
ATOM      9  C   UNL     1      45.162   2.062   8.166  0.00  0.00    +0.000 A 
ATOM     10  C   UNL     1      44.343   2.093   9.290  0.00  0.00    +0.000 A 
ATOM     11  C   UNL     1      44.294   3.229  10.094  0.00  0.00    +0.000 A 
ATOM     12  C   UNL     1      45.109   4.332   9.808  0.00  0.00    +0.000 A 
ATOM     13  C   UNL     1      45.918   4.296   8.653  0.00  0.00    +0.000 A 
BRANCH   8  17
ATOM     14  N   UNL     1      48.255   2.679   5.078  0.00  0.00    +0.000 N 
ATOM     15  C   UNL     1      47.711   2.400   6.293  0.00  0.00    +0.000 C 
ATOM     16  O   UNL     1      48.162   1.461   6.938  0.00  0.00    +0.000 OA
ATOM     17  N   UNL     1      46.667   3.231   6.613  0.00  0.00    +0.000 N 
ATOM     18  H   UNL     1      49.086   2.127   4.908  0.00  0.00    +0.000 HD
ATOM     19  H   UNL     1      48.341   3.650   4.819  0.00  0.00    +0.000 HD
ATOM     20  H   UNL     1      46.267   3.744   5.840  0.00  0.00    +0.000 HD
ENDBRANCH   8  17
ENDBRANCH   7  12
ENDBRANCH   1   7
BRANCH   4  21
ATOM     21  C   UNL     1      47.826   4.921  15.831  0.00  0.00    +0.000 C 
BRANCH  21  22
ATOM     22  N   UNL     1      48.561   6.121  16.137  0.00  0.00    +0.000 N 
ATOM     23  C   UNL     1      48.527   6.691  17.394  0.00  0.00    +0.000 C 
ATOM     24  O   UNL     1      47.904   6.189  18.321  0.00  0.00    +0.000 OA
ATOM     25  H   UNL     1      48.865   6.691  15.355  0.00  0.00    +0.000 HD
BRANCH  23  26
ATOM     26  C   UNL     1      49.355   7.893  17.573  0.00  0.00    +0.000 A 
ATOM     27  C   UNL     1      50.330   7.924  18.564  0.00  0.00    +0.000 A 
ATOM     28  S   UNL     1      51.244   9.365  18.577  0.00  0.00    +0.000 S 
ATOM     29  C   UNL     1      50.324  10.029  17.308  0.00  0.00    +0.000 A 
ATOM     30  N   UNL     1      50.569  11.283  16.842  0.00  0.00    +0.000 NA
ATOM     31  C   UNL     1      49.774  11.668  15.898  0.00  0.00    +0.000 A 
ATOM     32  N   UNL     1      48.758  10.908  15.377  0.00  0.00    +0.000 N 
ATOM     33  C   UNL     1      48.500   9.624  15.787  0.00  0.00    +0.000 A 
ATOM     34  O   UNL     1      47.630   8.947  15.254  0.00  0.00    +0.000 OA
ATOM     35  C   UNL     1      49.353   9.149  16.864  0.00  0.00    +0.000 A 
ATOM     36  H   UNL     1      48.181  11.262  14.627  0.00  0.00    +0.000 HD
ENDBRANCH  23  26
ENDBRANCH  21  22
ENDBRANCH   4  21
TORSDOF 6
ENDMDL
MODEL 7
REMARK VINA RESULT:    -7.057      2.808      4.259
REMARK INTER + INTRA:         -10.356
REMARK INTER:                  -9.164
REMARK INTRA:                  -1.192
REMARK UNBOUND:                -0.824
REMARK  Name = 
REMARK  6 active torsions:
REMARK  status: ('A' for Active; 'I' for Inactive)
REMARK    1  A    between atoms: N_4  and  C_5
REMARK    2  A    between atoms: C_9  and  C_10
REMARK    3  A    between atoms: C_10  and  C_11
REMARK    4  A    between atoms: C_14  and  C_15
REMARK    5  A    between atoms: C_15  and  N_16
REMARK    6  A    between atoms: C_17  and  C_19
REMARK                            x       y       z     vdW  Elec       q    Type
REMARK                         _______ _______ _______ _____ _____    ______ ____
ROOT
ATOM      1  C   UNL     1      47.806   7.370  13.232  0.00  0.00    +0.000 A 
ATOM      2  C   UNL     1      47.745   8.593  13.896  0.00  0.00    +0.000 A 
ATOM      3  C   UNL     1      48.249   8.686  15.193  0.00  0.00    +0.000 A 
ATOM      4  C   UNL     1      48.772   7.554  15.822  0.00  0.00    +0.000 A 
ATOM      5  C   UNL     1      48.755   6.369  15.096  0.00  0.00    +0.000 A 
ATOM      6  N   UNL     1      48.286   6.250  13.828  0.00  0.00    +0.000 NA
ENDROOT
BRANCH   1   7
ATOM      7  C   UNL     1      47.415   7.280  11.772  0.00  0.00    +0.000 C 
BRANCH   7  12
ATOM      8  C   UNL     1      44.658   4.717  11.018  0.00  0.00    +0.000 A 
ATOM      9  C   UNL     1      43.520   5.489  11.255  0.00  0.00    +0.000 A 
ATOM     10  C   UNL     1      43.634   6.841  11.562  0.00  0.00    +0.000 A 
ATOM     11  C   UNL     1      44.890   7.433  11.676  0.00  0.00    +0.000 A 
ATOM     12  C   UNL     1      46.050   6.660  11.533  0.00  0.00    +0.000 A 
ATOM     13  C   UNL     1      45.920   5.296  11.200  0.00  0.00    +0.000 A 
BRANCH   8  17
ATOM     14  N   UNL     1      44.603   1.591   9.176  0.00  0.00    +0.000 N 
ATOM     15  C   UNL     1      44.727   2.940   9.298  0.00  0.00    +0.000 C 
ATOM     16  O   UNL     1      44.976   3.601   8.296  0.00  0.00    +0.000 OA
ATOM     17  N   UNL     1      44.582   3.373  10.591  0.00  0.00    +0.000 N 
ATOM     18  H   UNL     1      44.609   1.305   8.205  0.00  0.00    +0.000 HD
ATOM     19  H   UNL     1      43.902   1.135   9.740  0.00  0.00    +0.000 HD
ATOM     20  H   UNL     1      44.670   2.661  11.301  0.00  0.00    +0.000 HD
ENDBRANCH   8  17
ENDBRANCH   7  12
ENDBRANCH   1   7
BRANCH   4  21
ATOM     21  C   UNL     1      49.357   7.609  17.205  0.00  0.00    +0.000 C 
BRANCH  21  22
ATOM     22  N   UNL     1      50.317   6.557  17.426  0.00  0.00    +0.000 N 
ATOM     23  C   UNL     1      50.537   6.028  18.682  0.00  0.00    +0.000 C 
ATOM     24  O   UNL     1      49.906   6.398  19.664  0.00  0.00    +0.000 OA
ATOM     25  H   UNL     1      51.021   6.414  16.709  0.00  0.00    +0.000 HD
BRANCH  23  26
ATOM     26  C   UNL     1      51.517   4.935  18.751  0.00  0.00    +0.000 A 
ATOM     27  C   UNL     1      52.718   5.120  19.428  0.00  0.00    +0.000 A 
ATOM     28  S   UNL     1      53.699   3.724  19.472  0.00  0.00    +0.000 S 
ATOM     29  C   UNL     1      52.590   2.844  18.527  0.00  0.00    +0.000 A 
ATOM     30  N   UNL     1      52.841   1.558  18.162  0.00  0.00    +0.000 NA
ATOM     31  C   UNL     1      51.926   1.024  17.419  0.00  0.00    +0.000 A 
ATOM     32  N   UNL     1      50.783   1.663  17.013  0.00  0.00    +0.000 N 
ATOM     33  C   UNL     1      50.468   2.944  17.390  0.00  0.00    +0.000 A 
ATOM     34  O   UNL     1      49.406   3.462  17.067  0.00  0.00    +0.000 OA
ATOM     35  C   UNL     1      51.475   3.599  18.208  0.00  0.00    +0.000 A 
ATOM     36  H   UNL     1      50.098   1.183  16.446  0.00  0.00    +0.000 HD
ENDBRANCH  23  26
ENDBRANCH  21  22
ENDBRANCH   4  21
TORSDOF 6
ENDMDL
MODEL 8
REMARK VINA RESULT:    -6.199      3.205      4.919
REMARK INTER + INTRA:          -9.197
REMARK INTER:                  -8.283
REMARK INTRA:                  -0.914
REMARK UNBOUND:                -0.824
REMARK  Name = 
REMARK  6 active torsions:
REMARK  status: ('A' for Active; 'I' for Inactive)
REMARK    1  A    between atoms: N_4  and  C_5
REMARK    2  A    between atoms: C_9  and  C_10
REMARK    3  A    between atoms: C_10  and  C_11
REMARK    4  A    between atoms: C_14  and  C_15
REMARK    5  A    between atoms: C_15  and  N_16
REMARK    6  A    between atoms: C_17  and  C_19
REMARK                            x       y       z     vdW  Elec       q    Type
REMARK                         _______ _______ _______ _____ _____    ______ ____
ROOT
ATOM      1  C   UNL     1      47.294   5.953  14.128  0.00  0.00    +0.000 A 
ATOM      2  C   UNL     1      46.805   4.664  14.328  0.00  0.00    +0.000 A 
ATOM      3  C   UNL     1      47.217   3.951  15.454  0.00  0.00    +0.000 A 
ATOM      4  C   UNL     1      48.135   4.515  16.342  0.00  0.00    +0.000 A 
ATOM      5  C   UNL     1      48.599   5.790  16.039  0.00  0.00    +0.000 A 
ATOM      6  N   UNL     1      48.206   6.516  14.961  0.00  0.00    +0.000 NA
ENDROOT
BRANCH   1   7
ATOM      7  C   UNL     1      46.742   6.807  13.006  0.00  0.00    +0.000 C 
BRANCH   7  12
ATOM      8  C   UNL     1      44.807   5.015  10.216  0.00  0.00    +0.000 A 
ATOM      9  C   UNL     1      43.585   4.796  10.853  0.00  0.00    +0.000 A 
ATOM     10  C   UNL     1      43.352   5.299  12.129  0.00  0.00    +0.000 A 
ATOM     11  C   UNL     1      44.353   5.995  12.804  0.00  0.00    +0.000 A 
ATOM     12  C   UNL     1      45.619   6.150  12.224  0.00  0.00    +0.000 A 
ATOM     13  C   UNL     1      45.834   5.655  10.921  0.00  0.00    +0.000 A 
BRANCH   8  17
ATOM     14  N   UNL     1      45.534   3.268   7.119  0.00  0.00    +0.000 N 
ATOM     15  C   UNL     1      45.358   3.356   8.465  0.00  0.00    +0.000 C 
ATOM     16  O   UNL     1      45.463   2.338   9.140  0.00  0.00    +0.000 OA
ATOM     17  N   UNL     1      45.042   4.624   8.880  0.00  0.00    +0.000 N 
ATOM     18  H   UNL     1      45.868   2.352   6.848  0.00  0.00    +0.000 HD
ATOM     19  H   UNL     1      46.002   4.035   6.660  0.00  0.00    +0.000 HD
ATOM     20  H   UNL     1      44.723   5.252   8.155  0.00  0.00    +0.000 HD
ENDBRANCH   8  17
ENDBRANCH   7  12
ENDBRANCH   1   7
BRANCH   4  21
ATOM     21  C   UNL     1      48.585   3.801  17.585  0.00  0.00    +0.000 C 
BRANCH  21  22
ATOM     22  N   UNL     1      49.578   4.554  18.309  0.00  0.00    +0.000 N 
ATOM     23  C   UNL     1      49.498   4.735  19.675  0.00  0.00    +0.000 C 
ATOM     24  O   UNL     1      48.604   4.237  20.347  0.00  0.00    +0.000 OA
ATOM     25  H   UNL     1      50.168   5.180  17.771  0.00  0.00    +0.000 HD
BRANCH  23  26
ATOM     26  C   UNL     1      50.601   5.492  20.284  0.00  0.00    +0.000 A 
ATOM     27  C   UNL     1      50.329   6.609  21.066  0.00  0.00    +0.000 A 
ATOM     28  S   UNL     1      51.721   7.318  21.753  0.00  0.00    +0.000 S 
ATOM     29  C   UNL     1      52.744   6.204  20.973  0.00  0.00    +0.000 A 
ATOM     30  N   UNL     1      54.096   6.271  21.113  0.00  0.00    +0.000 NA
ATOM     31  C   UNL     1      54.748   5.381  20.440  0.00  0.00    +0.000 A 
ATOM     32  N   UNL     1      54.168   4.428  19.642  0.00  0.00    +0.000 N 
ATOM     33  C   UNL     1      52.809   4.296  19.503  0.00  0.00    +0.000 A 
ATOM     34  O   UNL     1      52.321   3.392  18.838  0.00  0.00    +0.000 OA
ATOM     35  C   UNL     1      52.028   5.288  20.223  0.00  0.00    +0.000 A 
ATOM     36  H   UNL     1      54.735   3.749  19.154  0.00  0.00    +0.000 HD
ENDBRANCH  23  26
ENDBRANCH  21  22
ENDBRANCH   4  21
TORSDOF 6
ENDMDL
