MODEL 1
REMARK VINA RESULT:    -8.836      0.000      0.000
REMARK INTER + INTRA:         -12.973
REMARK INTER:                 -11.936
REMARK INTRA:                  -1.037
REMARK UNBOUND:                -1.037
REMARK  Name = 
REMARK  9 active torsions:
REMARK  status: ('A' for Active; 'I' for Inactive)
REMARK    1  A    between atoms: C_1  and  C_2
REMARK    2  A    between atoms: C_4  and  C_5
REMARK    3  A    between atoms: C_5  and  C_6
REMARK    4  A    between atoms: C_5  and  C_7
REMARK    5  A    between atoms: C_7  and  N_8
REMARK    6  A    between atoms: N_8  and  C_9
REMARK    7  A    between atoms: C_13  and  C_14
REMARK    8  A    between atoms: C_19  and  C_20
REMARK    9  A    between atoms: C_27  and  C_28
REMARK                            x       y       z     vdW  Elec       q    Type
REMARK                         _______ _______ _______ _____ _____    ______ ____
ROOT
ATOM      1  C   UNL     1      43.153   4.358  12.424  0.00  0.00    +0.000 C 
ATOM      2  C   UNL     1      42.319   5.472  11.777  0.00  0.00    +0.000 C 
ENDROOT
BRANCH   1   6
ATOM      3  C   UNL     1      47.328   3.571  14.809  0.00  0.00    +0.000 C 
ATOM      4  C   UNL     1      46.504   4.555  14.022  0.00  0.00    +0.000 A 
ATOM      5  N   UNL     1      45.300   4.087  13.615  0.00  0.00    +0.000 NA
ATOM      6  C   UNL     1      44.514   4.883  12.865  0.00  0.00    +0.000 A 
ATOM      7  C   UNL     1      44.921   6.165  12.508  0.00  0.00    +0.000 A 
ATOM      8  C   UNL     1      46.167   6.684  12.915  0.00  0.00    +0.000 A 
ATOM      9  C   UNL     1      46.973   5.852  13.731  0.00  0.00    +0.000 A 
ATOM     10  C   UNL     1      48.307   6.264  14.298  0.00  0.00    +0.000 C 
BRANCH   8  11
ATOM     11  C   UNL     1      46.533   8.056  12.456  0.00  0.00    +0.000 A 
ATOM     12  C   UNL     1      47.850   8.413  12.116  0.00  0.00    +0.000 A 
ATOM     13  C   UNL     1      48.185   9.715  11.725  0.00  0.00    +0.000 A 
ATOM     14  C   UNL     1      47.192  10.676  11.578  0.00  0.00    +0.000 A 
ATOM     15  C   UNL     1      45.872  10.333  11.835  0.00  0.00    +0.000 A 
ATOM     16 CL   UNL     1      44.623  11.489  11.575  0.00  0.00    +0.000 Cl
ATOM     17  C   UNL     1      45.547   9.053  12.290  0.00  0.00    +0.000 A 
ENDBRANCH   8  11
ENDBRANCH   1   6
BRANCH   1  18
ATOM     18  C   UNL     1      43.247   3.164  11.443  0.00  0.00    +0.000 C 
BRANCH  18  19
ATOM     19  N   UNL     1      44.640   2.844  11.093  0.00  0.00    +0.000 N 
ATOM     20  H   UNL     1      44.874   1.915  11.452  0.00  0.00    +0.000 HD
BRANCH  19  21
ATOM     21  C   UNL     1      45.138   3.124   9.822  0.00  0.00    +0.000 A 
ATOM     22  C   UNL     1      45.101   4.388   9.228  0.00  0.00    +0.000 A 
ATOM     23  N   UNL     1      45.638   4.705   8.025  0.00  0.00    +0.000 NA
ATOM     24  C   UNL     1      46.289   3.712   7.381  0.00  0.00    +0.000 A 
ATOM     25  C   UNL     1      46.431   2.422   7.881  0.00  0.00    +0.000 A 
ATOM     26  C   UNL     1      45.855   2.140   9.125  0.00  0.00    +0.000 A 
BRANCH  25  27
ATOM     27  C   UNL     1      47.188   1.449   7.058  0.00  0.00    +0.000 C 
ATOM     28  N   UNL     1      48.196   1.894   6.251  0.00  0.00    +0.000 N 
ATOM     29  O   UNL     1      46.932   0.250   7.093  0.00  0.00    +0.000 OA
ATOM     30  H   UNL     1      48.485   2.856   6.160  0.00  0.00    +0.000 HD
ATOM     31  H   UNL     1      48.690   1.198   5.712  0.00  0.00    +0.000 HD
ENDBRANCH  25  27
ENDBRANCH  19  21
ENDBRANCH  18  19
ENDBRANCH   1  18
TORSDOF 6
ENDMDL
MODEL 2
REMARK VINA RESULT:    -8.638      1.517      1.942
REMARK INTER + INTRA:         -12.705
REMARK INTER:                 -11.944
REMARK INTRA:                  -0.762
REMARK UNBOUND:                -1.037
REMARK  Name = 
REMARK  9 active torsions:
REMARK  status: ('A' for Active; 'I' for Inactive)
REMARK    1  A    between atoms: C_1  and  C_2
REMARK    2  A    between atoms: C_4  and  C_5
REMARK    3  A    between atoms: C_5  and  C_6
REMARK    4  A    between atoms: C_5  and  C_7
REMARK    5  A    between atoms: C_7  and  N_8
REMARK    6  A    between atoms: N_8  and  C_9
REMARK    7  A    between atoms: C_13  and  C_14
REMARK    8  A    between atoms: C_19  and  C_20
REMARK    9  A    between atoms: C_27  and  C_28
REMARK                            x       y       z     vdW  Elec       q    Type
REMARK                         _______ _______ _______ _____ _____    ______ ____
ROOT
ATOM      1  C   UNL     1      44.742   4.127  11.568  0.00  0.00    +0.000 C 
ATOM      2  C   UNL     1      43.565   3.592  12.395  0.00  0.00    +0.000 C 
ENDROOT
BRANCH   1   6
ATOM      3  C   UNL     1      47.227   4.076  15.758  0.00  0.00    +0.000 C 
ATOM      4  C   UNL     1      46.965   4.808  14.469  0.00  0.00    +0.000 A 
ATOM      5  N   UNL     1      46.049   4.221  13.661  0.00  0.00    +0.000 NA
ATOM      6  C   UNL     1      45.785   4.782  12.466  0.00  0.00    +0.000 A 
ATOM      7  C   UNL     1      46.434   5.943  12.057  0.00  0.00    +0.000 A 
ATOM      8  C   UNL     1      47.391   6.580  12.873  0.00  0.00    +0.000 A 
ATOM      9  C   UNL     1      47.638   6.002  14.142  0.00  0.00    +0.000 A 
ATOM     10  C   UNL     1      48.588   6.579  15.161  0.00  0.00    +0.000 C 
BRANCH   8  11
ATOM     11  C   UNL     1      48.059   7.802  12.337  0.00  0.00    +0.000 A 
ATOM     12  C   UNL     1      49.373   7.786  11.834  0.00  0.00    +0.000 A 
ATOM     13  C   UNL     1      50.001   8.948  11.371  0.00  0.00    +0.000 A 
ATOM     14  C   UNL     1      49.299  10.146  11.316  0.00  0.00    +0.000 A 
ATOM     15  C   UNL     1      47.976  10.177  11.736  0.00  0.00    +0.000 A 
ATOM     16 CL   UNL     1      47.068  11.632  11.593  0.00  0.00    +0.000 Cl
ATOM     17  C   UNL     1      47.371   9.033  12.261  0.00  0.00    +0.000 A 
ENDBRANCH   8  11
ENDBRANCH   1   6
BRANCH   1  18
ATOM     18  C   UNL     1      44.198   5.076  10.472  0.00  0.00    +0.000 C 
BRANCH  18  19
ATOM     19  N   UNL     1      43.945   4.372   9.205  0.00  0.00    +0.000 N 
ATOM     20  H   UNL     1      43.680   5.051   8.487  0.00  0.00    +0.000 HD
BRANCH  19  21
ATOM     21  C   UNL     1      44.798   3.360   8.769  0.00  0.00    +0.000 A 
ATOM     22  C   UNL     1      44.741   2.039   9.220  0.00  0.00    +0.000 A 
ATOM     23  N   UNL     1      45.510   1.020   8.765  0.00  0.00    +0.000 NA
ATOM     24  C   UNL     1      46.370   1.321   7.767  0.00  0.00    +0.000 A 
ATOM     25  C   UNL     1      46.495   2.587   7.203  0.00  0.00    +0.000 A 
ATOM     26  C   UNL     1      45.684   3.608   7.710  0.00  0.00    +0.000 A 
BRANCH  25  27
ATOM     27  C   UNL     1      47.477   2.751   6.104  0.00  0.00    +0.000 C 
ATOM     28  N   UNL     1      48.804   2.553   6.355  0.00  0.00    +0.000 N 
ATOM     29  O   UNL     1      47.119   3.053   4.970  0.00  0.00    +0.000 OA
ATOM     30  H   UNL     1      49.194   2.296   7.249  0.00  0.00    +0.000 HD
ATOM     31  H   UNL     1      49.438   2.670   5.578  0.00  0.00    +0.000 HD
ENDBRANCH  25  27
ENDBRANCH  19  21
ENDBRANCH  18  19
ENDBRANCH   1  18
TORSDOF 6
ENDMDL
MODEL 3
REMARK VINA RESULT:    -8.144      2.480      4.393
REMARK INTER + INTRA:         -12.038
REMARK INTER:                 -11.163
REMARK INTRA:                  -0.875
REMARK UNBOUND:                -1.037
REMARK  Name = 
REMARK  9 active torsions:
REMARK  status: ('A' for Active; 'I' for Inactive)
REMARK    1  A    between atoms: C_1  and  C_2
REMARK    2  A    between atoms: C_4  and  C_5
REMARK    3  A    between atoms: C_5  and  C_6
REMARK    4  A    between atoms: C_5  and  C_7
REMARK    5  A    between atoms: C_7  and  N_8
REMARK    6  A    between atoms: N_8  and  C_9
REMARK    7  A    between atoms: C_13  and  C_14
REMARK    8  A    between atoms: C_19  and  C_20
REMARK    9  A    between atoms: C_27  and  C_28
REMARK                            x       y       z     vdW  Elec       q    Type
REMARK                         _______ _______ _______ _____ _____    ______ ____
ROOT
ATOM      1  C   UNL     1      43.860   3.999  12.495  0.00  0.00    +0.000 C 
ATOM      2  C   UNL     1      42.953   4.955  11.707  0.00  0.00    +0.000 C 
ENDROOT
BRANCH   1   6
ATOM      3  C   UNL     1      46.996   7.694  11.993  0.00  0.00    +0.000 C 
ATOM      4  C   UNL     1      46.641   6.452  12.766  0.00  0.00    +0.000 A 
ATOM      5  N   UNL     1      45.525   5.816  12.334  0.00  0.00    +0.000 NA
ATOM      6  C   UNL     1      45.106   4.721  12.995  0.00  0.00    +0.000 A 
ATOM      7  C   UNL     1      45.797   4.240  14.103  0.00  0.00    +0.000 A 
ATOM      8  C   UNL     1      46.962   4.876  14.579  0.00  0.00    +0.000 A 
ATOM      9  C   UNL     1      47.415   6.009  13.857  0.00  0.00    +0.000 A 
ATOM     10  C   UNL     1      48.667   6.777  14.193  0.00  0.00    +0.000 C 
BRANCH   8  11
ATOM     11  C   UNL     1      47.618   4.309  15.793  0.00  0.00    +0.000 A 
ATOM     12  C   UNL     1      48.177   3.019  15.818  0.00  0.00    +0.000 A 
ATOM     13  C   UNL     1      48.755   2.485  16.976  0.00  0.00    +0.000 A 
ATOM     14  C   UNL     1      48.868   3.265  18.121  0.00  0.00    +0.000 A 
ATOM     15  C   UNL     1      48.391   4.568  18.105  0.00  0.00    +0.000 A 
ATOM     16 CL   UNL     1      48.601   5.572  19.487  0.00  0.00    +0.000 Cl
ATOM     17  C   UNL     1      47.755   5.077  16.970  0.00  0.00    +0.000 A 
ENDBRANCH   8  11
ENDBRANCH   1   6
BRANCH   1  18
ATOM     18  C   UNL     1      44.180   2.767  11.615  0.00  0.00    +0.000 C 
BRANCH  18  19
ATOM     19  N   UNL     1      43.833   2.989  10.203  0.00  0.00    +0.000 N 
ATOM     20  H   UNL     1      42.993   3.571  10.148  0.00  0.00    +0.000 HD
BRANCH  19  21
ATOM     21  C   UNL     1      44.818   3.293   9.265  0.00  0.00    +0.000 A 
ATOM     22  C   UNL     1      45.238   4.591   8.964  0.00  0.00    +0.000 A 
ATOM     23  N   UNL     1      46.240   4.913   8.110  0.00  0.00    +0.000 NA
ATOM     24  C   UNL     1      46.897   3.878   7.543  0.00  0.00    +0.000 A 
ATOM     25  C   UNL     1      46.603   2.541   7.790  0.00  0.00    +0.000 A 
ATOM     26  C   UNL     1      45.557   2.257   8.674  0.00  0.00    +0.000 A 
BRANCH  25  27
ATOM     27  C   UNL     1      47.429   1.521   7.098  0.00  0.00    +0.000 C 
ATOM     28  N   UNL     1      48.577   1.904   6.467  0.00  0.00    +0.000 N 
ATOM     29  O   UNL     1      47.104   0.338   7.088  0.00  0.00    +0.000 OA
ATOM     30  H   UNL     1      48.931   2.848   6.426  0.00  0.00    +0.000 HD
ATOM     31  H   UNL     1      49.112   1.177   6.014  0.00  0.00    +0.000 HD
ENDBRANCH  25  27
ENDBRANCH  19  21
ENDBRANCH  18  19
ENDBRANCH   1  18
TORSDOF 6
ENDMDL
MODEL 4
REMARK VINA RESULT:    -7.967      2.688      3.927
REMARK INTER + INTRA:         -11.799
REMARK INTER:                 -10.799
REMARK INTRA:                  -0.999
REMARK UNBOUND:                -1.037
REMARK  Name = 
REMARK  9 active torsions:
REMARK  status: ('A' for Active; 'I' for Inactive)
REMARK    1  A    between atoms: C_1  and  C_2
REMARK    2  A    between atoms: C_4  and  C_5
REMARK    3  A    between atoms: C_5  and  C_6
REMARK    4  A    between atoms: C_5  and  C_7
REMARK    5  A    between atoms: C_7  and  N_8
REMARK    6  A    between atoms: N_8  and  C_9
REMARK    7  A    between atoms: C_13  and  C_14
REMARK    8  A    between atoms: C_19  and  C_20
REMARK    9  A    between atoms: C_27  and  C_28
REMARK                            x       y       z     vdW  Elec       q    Type
REMARK                         _______ _______ _______ _____ _____    ______ ____
ROOT
ATOM      1  C   UNL     1      45.413   5.247  11.779  0.00  0.00    +0.000 C 
ATOM      2  C   UNL     1      45.187   4.630  13.166  0.00  0.00    +0.000 C 
ENDROOT
BRANCH   1   6
ATOM      3  C   UNL     1      44.596  10.046  12.002  0.00  0.00    +0.000 C 
ATOM      4  C   UNL     1      45.632   8.954  11.972  0.00  0.00    +0.000 A 
ATOM      5  N   UNL     1      45.130   7.698  11.883  0.00  0.00    +0.000 NA
ATOM      6  C   UNL     1      45.982   6.657  11.896  0.00  0.00    +0.000 A 
ATOM      7  C   UNL     1      47.355   6.852  11.999  0.00  0.00    +0.000 A 
ATOM      8  C   UNL     1      47.912   8.144  12.092  0.00  0.00    +0.000 A 
ATOM      9  C   UNL     1      47.011   9.235  12.044  0.00  0.00    +0.000 A 
ATOM     10  C   UNL     1      47.435  10.681  12.078  0.00  0.00    +0.000 C 
BRANCH   8  11
ATOM     11  C   UNL     1      49.394   8.255  12.232  0.00  0.00    +0.000 A 
ATOM     12  C   UNL     1      50.016   8.561  13.456  0.00  0.00    +0.000 A 
ATOM     13  C   UNL     1      51.406   8.700  13.564  0.00  0.00    +0.000 A 
ATOM     14  C   UNL     1      52.219   8.450  12.465  0.00  0.00    +0.000 A 
ATOM     15  C   UNL     1      51.638   8.073  11.262  0.00  0.00    +0.000 A 
ATOM     16 CL   UNL     1      52.637   7.677   9.918  0.00  0.00    +0.000 Cl
ATOM     17  C   UNL     1      50.249   8.000  11.137  0.00  0.00    +0.000 A 
ENDBRANCH   8  11
ENDBRANCH   1   6
BRANCH   1  18
ATOM     18  C   UNL     1      44.088   5.189  10.979  0.00  0.00    +0.000 C 
BRANCH  18  19
ATOM     19  N   UNL     1      44.319   4.996   9.539  0.00  0.00    +0.000 N 
ATOM     20  H   UNL     1      44.649   5.873   9.128  0.00  0.00    +0.000 HD
BRANCH  19  21
ATOM     21  C   UNL     1      44.959   3.851   9.067  0.00  0.00    +0.000 A 
ATOM     22  C   UNL     1      44.716   2.563   9.549  0.00  0.00    +0.000 A 
ATOM     23  N   UNL     1      45.270   1.426   9.063  0.00  0.00    +0.000 NA
ATOM     24  C   UNL     1      46.094   1.569   8.002  0.00  0.00    +0.000 A 
ATOM     25  C   UNL     1      46.387   2.790   7.404  0.00  0.00    +0.000 A 
ATOM     26  C   UNL     1      45.795   3.938   7.943  0.00  0.00    +0.000 A 
BRANCH  25  27
ATOM     27  C   UNL     1      47.300   2.776   6.236  0.00  0.00    +0.000 C 
ATOM     28  N   UNL     1      48.619   2.479   6.419  0.00  0.00    +0.000 N 
ATOM     29  O   UNL     1      46.891   3.020   5.105  0.00  0.00    +0.000 OA
ATOM     30  H   UNL     1      49.047   2.259   7.306  0.00  0.00    +0.000 HD
ATOM     31  H   UNL     1      49.206   2.476   5.597  0.00  0.00    +0.000 HD
ENDBRANCH  25  27
ENDBRANCH  19  21
ENDBRANCH  18  19
ENDBRANCH   1  18
TORSDOF 6
ENDMDL
MODEL 5
REMARK VINA RESULT:    -7.911      2.695      3.924
REMARK INTER + INTRA:         -11.723
REMARK INTER:                 -10.706
REMARK INTRA:                  -1.017
REMARK UNBOUND:                -1.037
REMARK  Name = 
REMARK  9 active torsions:
REMARK  status: ('A' for Active; 'I' for Inactive)
REMARK    1  A    between atoms: C_1  and  C_2
REMARK    2  A    between atoms: C_4  and  C_5
REMARK    3  A    between atoms: C_5  and  C_6
REMARK    4  A    between atoms: C_5  and  C_7
REMARK    5  A    between atoms: C_7  and  N_8
REMARK    6  A    between atoms: N_8  and  C_9
REMARK    7  A    between atoms: C_13  and  C_14
REMARK    8  A    between atoms: C_19  and  C_20
REMARK    9  A    between atoms: C_27  and  C_28
REMARK                            x       y       z     vdW  Elec       q    Type
REMARK                         _______ _______ _______ _____ _____    ______ ____
ROOT
ATOM      1  C   UNL     1      45.556   5.249  11.472  0.00  0.00    +0.000 C 
ATOM      2  C   UNL     1      45.563   4.416  12.761  0.00  0.00    +0.000 C 
ENDROOT
BRANCH   1   6
ATOM      3  C   UNL     1      44.653  10.010  11.985  0.00  0.00    +0.000 C 
ATOM      4  C   UNL     1      45.705   8.934  11.945  0.00  0.00    +0.000 A 
ATOM      5  N   UNL     1      45.229   7.683  11.733  0.00  0.00    +0.000 NA
ATOM      6  C   UNL     1      46.095   6.652  11.728  0.00  0.00    +0.000 A 
ATOM      7  C   UNL     1      47.455   6.854  11.934  0.00  0.00    +0.000 A 
ATOM      8  C   UNL     1      47.985   8.141  12.156  0.00  0.00    +0.000 A 
ATOM      9  C   UNL     1      47.072   9.224  12.128  0.00  0.00    +0.000 A 
ATOM     10  C   UNL     1      47.471  10.669  12.293  0.00  0.00    +0.000 C 
BRANCH   8  11
ATOM     11  C   UNL     1      49.453   8.258  12.402  0.00  0.00    +0.000 A 
ATOM     12  C   UNL     1      50.382   8.425  11.360  0.00  0.00    +0.000 A 
ATOM     13  C   UNL     1      51.760   8.494  11.601  0.00  0.00    +0.000 A 
ATOM     14  C   UNL     1      52.240   8.485  12.905  0.00  0.00    +0.000 A 
ATOM     15  C   UNL     1      51.341   8.395  13.959  0.00  0.00    +0.000 A 
ATOM     16 CL   UNL     1      51.914   8.468  15.580  0.00  0.00    +0.000 Cl
ATOM     17  C   UNL     1      49.972   8.259  13.715  0.00  0.00    +0.000 A 
ENDBRANCH   8  11
ENDBRANCH   1   6
BRANCH   1  18
ATOM     18  C   UNL     1      44.127   5.244  10.875  0.00  0.00    +0.000 C 
BRANCH  18  19
ATOM     19  N   UNL     1      44.123   4.865   9.454  0.00  0.00    +0.000 N 
ATOM     20  H   UNL     1      44.233   5.705   8.879  0.00  0.00    +0.000 HD
BRANCH  19  21
ATOM     21  C   UNL     1      44.836   3.754   9.009  0.00  0.00    +0.000 A 
ATOM     22  C   UNL     1      44.659   2.460   9.506  0.00  0.00    +0.000 A 
ATOM     23  N   UNL     1      45.287   1.351   9.047  0.00  0.00    +0.000 NA
ATOM     24  C   UNL     1      46.121   1.527   7.998  0.00  0.00    +0.000 A 
ATOM     25  C   UNL     1      46.355   2.755   7.388  0.00  0.00    +0.000 A 
ATOM     26  C   UNL     1      45.688   3.874   7.900  0.00  0.00    +0.000 A 
BRANCH  25  27
ATOM     27  C   UNL     1      47.289   2.779   6.237  0.00  0.00    +0.000 C 
ATOM     28  N   UNL     1      48.605   2.475   6.435  0.00  0.00    +0.000 N 
ATOM     29  O   UNL     1      46.901   3.060   5.107  0.00  0.00    +0.000 OA
ATOM     30  H   UNL     1      49.017   2.226   7.322  0.00  0.00    +0.000 HD
ATOM     31  H   UNL     1      49.206   2.498   5.624  0.00  0.00    +0.000 HD
ENDBRANCH  25  27
ENDBRANCH  19  21
ENDBRANCH  18  19
ENDBRANCH   1  18
TORSDOF 6
ENDMDL
MODEL 6
REMARK VINA RESULT:    -7.831      2.828      4.720
REMARK INTER + INTRA:         -11.615
REMARK INTER:                 -11.152
REMARK INTRA:                  -0.463
REMARK UNBOUND:                -1.037
REMARK  Name = 
REMARK  9 active torsions:
REMARK  status: ('A' for Active; 'I' for Inactive)
REMARK    1  A    between atoms: C_1  and  C_2
REMARK    2  A    between atoms: C_4  and  C_5
REMARK    3  A    between atoms: C_5  and  C_6
REMARK    4  A    between atoms: C_5  and  C_7
REMARK    5  A    between atoms: C_7  and  N_8
REMARK    6  A    between atoms: N_8  and  C_9
REMARK    7  A    between atoms: C_13  and  C_14
REMARK    8  A    between atoms: C_19  and  C_20
REMARK    9  A    between atoms: C_27  and  C_28
REMARK                            x       y       z     vdW  Elec       q    Type
REMARK                         _______ _______ _______ _____ _____    ______ ____
ROOT
ATOM      1  C   UNL     1      45.129   5.026  11.897  0.00  0.00    +0.000 C 
ATOM      2  C   UNL     1      43.828   5.043  12.711  0.00  0.00    +0.000 C 
ENDROOT
BRANCH   1   6
ATOM      3  C   UNL     1      48.761   8.250  12.290  0.00  0.00    +0.000 C 
ATOM      4  C   UNL     1      48.053   7.081  12.922  0.00  0.00    +0.000 A 
ATOM      5  N   UNL     1      47.010   6.596  12.205  0.00  0.00    +0.000 NA
ATOM      6  C   UNL     1      46.291   5.579  12.715  0.00  0.00    +0.000 A 
ATOM      7  C   UNL     1      46.601   5.028  13.954  0.00  0.00    +0.000 A 
ATOM      8  C   UNL     1      47.679   5.507  14.726  0.00  0.00    +0.000 A 
ATOM      9  C   UNL     1      48.452   6.555  14.167  0.00  0.00    +0.000 A 
ATOM     10  C   UNL     1      49.668   7.151  14.828  0.00  0.00    +0.000 C 
BRANCH   8  11
ATOM     11  C   UNL     1      47.917   4.877  16.058  0.00  0.00    +0.000 A 
ATOM     12  C   UNL     1      47.725   3.503  16.289  0.00  0.00    +0.000 A 
ATOM     13  C   UNL     1      47.914   2.932  17.553  0.00  0.00    +0.000 A 
ATOM     14  C   UNL     1      48.387   3.708  18.604  0.00  0.00    +0.000 A 
ATOM     15  C   UNL     1      48.657   5.053  18.388  0.00  0.00    +0.000 A 
ATOM     16 CL   UNL     1      49.324   6.005  19.657  0.00  0.00    +0.000 Cl
ATOM     17  C   UNL     1      48.404   5.636  17.144  0.00  0.00    +0.000 A 
ENDBRANCH   8  11
ENDBRANCH   1   6
BRANCH   1  18
ATOM     18  C   UNL     1      44.903   5.786  10.567  0.00  0.00    +0.000 C 
BRANCH  18  19
ATOM     19  N   UNL     1      44.282   4.933   9.541  0.00  0.00    +0.000 N 
ATOM     20  H   UNL     1      43.906   5.522   8.794  0.00  0.00    +0.000 HD
BRANCH  19  21
ATOM     21  C   UNL     1      44.911   3.767   9.108  0.00  0.00    +0.000 A 
ATOM     22  C   UNL     1      44.544   2.483   9.516  0.00  0.00    +0.000 A 
ATOM     23  N   UNL     1      45.089   1.329   9.060  0.00  0.00    +0.000 NA
ATOM     24  C   UNL     1      46.038   1.453   8.106  0.00  0.00    +0.000 A 
ATOM     25  C   UNL     1      46.465   2.671   7.587  0.00  0.00    +0.000 A 
ATOM     26  C   UNL     1      45.877   3.836   8.093  0.00  0.00    +0.000 A 
BRANCH  25  27
ATOM     27  C   UNL     1      47.507   2.637   6.533  0.00  0.00    +0.000 C 
ATOM     28  N   UNL     1      47.279   3.269   5.345  0.00  0.00    +0.000 N 
ATOM     29  O   UNL     1      48.574   2.058   6.710  0.00  0.00    +0.000 OA
ATOM     30  H   UNL     1      46.439   3.776   5.108  0.00  0.00    +0.000 HD
ATOM     31  H   UNL     1      48.016   3.226   4.656  0.00  0.00    +0.000 HD
ENDBRANCH  25  27
ENDBRANCH  19  21
ENDBRANCH  18  19
ENDBRANCH   1  18
TORSDOF 6
ENDMDL
MODEL 7
REMARK VINA RESULT:    -7.438      4.113      7.643
REMARK INTER + INTRA:         -11.084
REMARK INTER:                  -9.841
REMARK INTRA:                  -1.243
REMARK UNBOUND:                -1.037
REMARK  Name = 
REMARK  9 active torsions:
REMARK  status: ('A' for Active; 'I' for Inactive)
REMARK    1  A    between atoms: C_1  and  C_2
REMARK    2  A    between atoms: C_4  and  C_5
REMARK    3  A    between atoms: C_5  and  C_6
REMARK    4  A    between atoms: C_5  and  C_7
REMARK    5  A    between atoms: C_7  and  N_8
REMARK    6  A    between atoms: N_8  and  C_9
REMARK    7  A    between atoms: C_13  and  C_14
REMARK    8  A    between atoms: C_19  and  C_20
REMARK    9  A    between atoms: C_27  and  C_28
REMARK                            x       y       z     vdW  Elec       q    Type
REMARK                         _______ _______ _______ _____ _____    ______ ____
ROOT
ATOM      1  C   UNL     1      49.134   7.660  12.686  0.00  0.00    +0.000 C 
ATOM      2  C   UNL     1      49.812   8.973  12.272  0.00  0.00    +0.000 C 
ENDROOT
BRANCH   1   6
ATOM      3  C   UNL     1      44.900  10.020  12.191  0.00  0.00    +0.000 C 
ATOM      4  C   UNL     1      45.634   8.718  12.013  0.00  0.00    +0.000 A 
ATOM      5  N   UNL     1      46.932   8.741  12.399  0.00  0.00    +0.000 NA
ATOM      6  C   UNL     1      47.678   7.633  12.233  0.00  0.00    +0.000 A 
ATOM      7  C   UNL     1      47.139   6.479  11.676  0.00  0.00    +0.000 A 
ATOM      8  C   UNL     1      45.792   6.419  11.264  0.00  0.00    +0.000 A 
ATOM      9  C   UNL     1      45.004   7.578  11.473  0.00  0.00    +0.000 A 
ATOM     10  C   UNL     1      43.537   7.672  11.141  0.00  0.00    +0.000 C 
BRANCH   8  11
ATOM     11  C   UNL     1      45.309   5.148  10.646  0.00  0.00    +0.000 A 
ATOM     12  C   UNL     1      44.464   4.252  11.324  0.00  0.00    +0.000 A 
ATOM     13  C   UNL     1      44.050   3.045  10.747  0.00  0.00    +0.000 A 
ATOM     14  C   UNL     1      44.401   2.744   9.436  0.00  0.00    +0.000 A 
ATOM     15  C   UNL     1      45.173   3.644   8.716  0.00  0.00    +0.000 A 
ATOM     16 CL   UNL     1      45.543   3.323   7.066  0.00  0.00    +0.000 Cl
ATOM     17  C   UNL     1      45.641   4.816   9.315  0.00  0.00    +0.000 A 
ENDBRANCH   8  11
ENDBRANCH   1   6
BRANCH   1  18
ATOM     18  C   UNL     1      49.302   7.465  14.212  0.00  0.00    +0.000 C 
BRANCH  18  19
ATOM     19  N   UNL     1      48.045   7.062  14.861  0.00  0.00    +0.000 N 
ATOM     20  H   UNL     1      47.256   7.342  14.273  0.00  0.00    +0.000 HD
BRANCH  19  21
ATOM     21  C   UNL     1      47.918   5.807  15.454  0.00  0.00    +0.000 A 
ATOM     22  C   UNL     1      47.373   4.691  14.814  0.00  0.00    +0.000 A 
ATOM     23  N   UNL     1      47.301   3.444  15.339  0.00  0.00    +0.000 NA
ATOM     24  C   UNL     1      47.837   3.281  16.568  0.00  0.00    +0.000 A 
ATOM     25  C   UNL     1      48.444   4.301  17.294  0.00  0.00    +0.000 A 
ATOM     26  C   UNL     1      48.491   5.574  16.713  0.00  0.00    +0.000 A 
BRANCH  25  27
ATOM     27  C   UNL     1      48.998   3.956  18.625  0.00  0.00    +0.000 C 
ATOM     28  N   UNL     1      48.335   3.064  19.417  0.00  0.00    +0.000 N 
ATOM     29  O   UNL     1      50.047   4.451  19.026  0.00  0.00    +0.000 OA
ATOM     30  H   UNL     1      47.473   2.600  19.173  0.00  0.00    +0.000 HD
ATOM     31  H   UNL     1      48.750   2.853  20.313  0.00  0.00    +0.000 HD
ENDBRANCH  25  27
ENDBRANCH  19  21
ENDBRANCH  18  19
ENDBRANCH   1  18
TORSDOF 6
ENDMDL
MODEL 8
REMARK VINA RESULT:    -6.962      3.581      5.198
REMARK INTER + INTRA:         -10.441
REMARK INTER:                  -9.203
REMARK INTRA:                  -1.238
REMARK UNBOUND:                -1.037
REMARK  Name = 
REMARK  9 active torsions:
REMARK  status: ('A' for Active; 'I' for Inactive)
REMARK    1  A    between atoms: C_1  and  C_2
REMARK    2  A    between atoms: C_4  and  C_5
REMARK    3  A    between atoms: C_5  and  C_6
REMARK    4  A    between atoms: C_5  and  C_7
REMARK    5  A    between atoms: C_7  and  N_8
REMARK    6  A    between atoms: N_8  and  C_9
REMARK    7  A    between atoms: C_13  and  C_14
REMARK    8  A    between atoms: C_19  and  C_20
REMARK    9  A    between atoms: C_27  and  C_28
REMARK                            x       y       z     vdW  Elec       q    Type
REMARK                         _______ _______ _______ _____ _____    ______ ____
ROOT
ATOM      1  C   UNL     1      46.927   6.239  12.727  0.00  0.00    +0.000 C 
ATOM      2  C   UNL     1      47.361   5.749  14.115  0.00  0.00    +0.000 C 
ENDROOT
BRANCH   1   6
ATOM      3  C   UNL     1      47.192  10.989  11.675  0.00  0.00    +0.000 C 
ATOM      4  C   UNL     1      47.930   9.678  11.735  0.00  0.00    +0.000 A 
ATOM      5  N   UNL     1      47.184   8.626  12.149  0.00  0.00    +0.000 NA
ATOM      6  C   UNL     1      47.775   7.423  12.277  0.00  0.00    +0.000 A 
ATOM      7  C   UNL     1      49.125   7.250  11.992  0.00  0.00    +0.000 A 
ATOM      8  C   UNL     1      49.931   8.323  11.558  0.00  0.00    +0.000 A 
ATOM      9  C   UNL     1      49.294   9.578  11.394  0.00  0.00    +0.000 A 
ATOM     10  C   UNL     1      49.989  10.816  10.889  0.00  0.00    +0.000 C 
BRANCH   8  11
ATOM     11  C   UNL     1      51.377   8.050  11.307  0.00  0.00    +0.000 A 
ATOM     12  C   UNL     1      51.834   7.402  10.146  0.00  0.00    +0.000 A 
ATOM     13  C   UNL     1      53.190   7.119   9.942  0.00  0.00    +0.000 A 
ATOM     14  C   UNL     1      54.138   7.556  10.859  0.00  0.00    +0.000 A 
ATOM     15  C   UNL     1      53.724   8.264  11.979  0.00  0.00    +0.000 A 
ATOM     16 CL   UNL     1      54.894   8.885  13.078  0.00  0.00    +0.000 Cl
ATOM     17  C   UNL     1      52.366   8.488  12.215  0.00  0.00    +0.000 A 
ENDBRANCH   8  11
ENDBRANCH   1   6
BRANCH   1  18
ATOM     18  C   UNL     1      45.410   6.550  12.754  0.00  0.00    +0.000 C 
BRANCH  18  19
ATOM     19  N   UNL     1      44.796   6.428  11.423  0.00  0.00    +0.000 N 
ATOM     20  H   UNL     1      45.118   7.197  10.829  0.00  0.00    +0.000 HD
BRANCH  19  21
ATOM     21  C   UNL     1      44.714   5.191  10.785  0.00  0.00    +0.000 A 
ATOM     22  C   UNL     1      43.812   4.186  11.140  0.00  0.00    +0.000 A 
ATOM     23  N   UNL     1      43.663   3.003  10.497  0.00  0.00    +0.000 NA
ATOM     24  C   UNL     1      44.433   2.816   9.403  0.00  0.00    +0.000 A 
ATOM     25  C   UNL     1      45.341   3.754   8.922  0.00  0.00    +0.000 A 
ATOM     26  C   UNL     1      45.465   4.959   9.622  0.00  0.00    +0.000 A 
BRANCH  25  27
ATOM     27  C   UNL     1      46.103   3.403   7.699  0.00  0.00    +0.000 C 
ATOM     28  N   UNL     1      46.541   2.122   7.526  0.00  0.00    +0.000 N 
ATOM     29  O   UNL     1      46.340   4.241   6.834  0.00  0.00    +0.000 OA
ATOM     30  H   UNL     1      46.390   1.364   8.175  0.00  0.00    +0.000 HD
ATOM     31  H   UNL     1      47.051   1.925   6.677  0.00  0.00    +0.000 HD
ENDBRANCH  25  27
ENDBRANCH  19  21
ENDBRANCH  18  19
ENDBRANCH   1  18
TORSDOF 6
ENDMDL
MODEL 9
REMARK VINA RESULT:    -6.846      4.532      7.326
REMARK INTER + INTRA:         -10.284
REMARK INTER:                  -8.893
REMARK INTRA:                  -1.391
REMARK UNBOUND:                -1.037
REMARK  Name = 
REMARK  9 active torsions:
REMARK  status: ('A' for Active; 'I' for Inactive)
REMARK    1  A    between atoms: C_1  and  C_2
REMARK    2  A    between atoms: C_4  and  C_5
REMARK    3  A    between atoms: C_5  and  C_6
REMARK    4  A    between atoms: C_5  and  C_7
REMARK    5  A    between atoms: C_7  and  N_8
REMARK    6  A    between atoms: N_8  and  C_9
REMARK    7  A    between atoms: C_13  and  C_14
REMARK    8  A    between atoms: C_19  and  C_20
REMARK    9  A    between atoms: C_27  and  C_28
REMARK                            x       y       z     vdW  Elec       q    Type
REMARK                         _______ _______ _______ _____ _____    ______ ____
ROOT
ATOM      1  C   UNL     1      48.676   9.201  15.154  0.00  0.00    +0.000 C 
ATOM      2  C   UNL     1      50.085   9.802  15.054  0.00  0.00    +0.000 C 
ENDROOT
BRANCH   1   6
ATOM      3  C   UNL     1      47.319   8.837  19.819  0.00  0.00    +0.000 C 
ATOM      4  C   UNL     1      47.934   8.136  18.638  0.00  0.00    +0.000 A 
ATOM      5  N   UNL     1      48.043   8.895  17.521  0.00  0.00    +0.000 NA
ATOM      6  C   UNL     1      48.540   8.336  16.402  0.00  0.00    +0.000 A 
ATOM      7  C   UNL     1      48.938   7.004  16.379  0.00  0.00    +0.000 A 
ATOM      8  C   UNL     1      48.840   6.184  17.522  0.00  0.00    +0.000 A 
ATOM      9  C   UNL     1      48.347   6.790  18.705  0.00  0.00    +0.000 A 
ATOM     10  C   UNL     1      48.225   6.079  20.028  0.00  0.00    +0.000 C 
BRANCH   8  11
ATOM     11  C   UNL     1      49.260   4.758  17.395  0.00  0.00    +0.000 A 
ATOM     12  C   UNL     1      48.389   3.752  16.939  0.00  0.00    +0.000 A 
ATOM     13  C   UNL     1      48.785   2.411  16.861  0.00  0.00    +0.000 A 
ATOM     14  C   UNL     1      50.096   2.053  17.156  0.00  0.00    +0.000 A 
ATOM     15  C   UNL     1      50.999   3.036  17.537  0.00  0.00    +0.000 A 
ATOM     16 CL   UNL     1      52.644   2.620  17.822  0.00  0.00    +0.000 Cl
ATOM     17  C   UNL     1      50.585   4.363  17.679  0.00  0.00    +0.000 A 
ENDBRANCH   8  11
ENDBRANCH   1   6
BRANCH   1  18
ATOM     18  C   UNL     1      48.361   8.436  13.845  0.00  0.00    +0.000 C 
BRANCH  18  19
ATOM     19  N   UNL     1      46.954   8.587  13.441  0.00  0.00    +0.000 N 
ATOM     20  H   UNL     1      46.844   9.459  12.916  0.00  0.00    +0.000 HD
BRANCH  19  21
ATOM     21  C   UNL     1      46.238   7.504  12.935  0.00  0.00    +0.000 A 
ATOM     22  C   UNL     1      45.252   7.609  11.951  0.00  0.00    +0.000 A 
ATOM     23  N   UNL     1      44.588   6.568  11.391  0.00  0.00    +0.000 NA
ATOM     24  C   UNL     1      44.952   5.335  11.807  0.00  0.00    +0.000 A 
ATOM     25  C   UNL     1      45.944   5.094  12.750  0.00  0.00    +0.000 A 
ATOM     26  C   UNL     1      46.598   6.199  13.305  0.00  0.00    +0.000 A 
BRANCH  25  27
ATOM     27  C   UNL     1      46.235   3.680  13.090  0.00  0.00    +0.000 C 
ATOM     28  N   UNL     1      45.426   2.694  12.603  0.00  0.00    +0.000 N 
ATOM     29  O   UNL     1      47.193   3.377  13.794  0.00  0.00    +0.000 OA
ATOM     30  H   UNL     1      44.621   2.841  12.012  0.00  0.00    +0.000 HD
ATOM     31  H   UNL     1      45.663   1.744  12.853  0.00  0.00    +0.000 HD
ENDBRANCH  25  27
ENDBRANCH  19  21
ENDBRANCH  18  19
ENDBRANCH   1  18
TORSDOF 6
ENDMDL
