MODEL 1
REMARK VINA RESULT:    -8.513      0.000      0.000
REMARK INTER + INTRA:         -12.712
REMARK INTER:                 -11.747
REMARK INTRA:                  -0.964
REMARK UNBOUND:                -0.964
REMARK  Name = 
REMARK  9 active torsions:
REMARK  status: ('A' for Active; 'I' for Inactive)
REMARK    1  A    between atoms: C_1  and  C_2
REMARK    2  A    between atoms: C_5  and  C_6
REMARK    3  A    between atoms: C_6  and  C_7
REMARK    4  A    between atoms: C_6  and  C_8
REMARK    5  A    between atoms: C_8  and  O_9
REMARK    6  A    between atoms: O_9  and  C_10
REMARK    7  A    between atoms: C_13  and  C_14
REMARK    8  A    between atoms: C_20  and  C_21
REMARK    9  A    between atoms: C_21  and  N_22
REMARK                            x       y       z     vdW  Elec       q    Type
REMARK                         _______ _______ _______ _____ _____    ______ ____
ROOT
ATOM      1  C   UNL     1      43.486   4.345  12.522  0.00  0.00    +0.000 C 
ATOM      2  C   UNL     1      42.532   5.347  11.864  0.00  0.00    +0.000 C 
ENDROOT
BRANCH   1   7
ATOM      3  C   UNL     1      48.650   6.706  13.688  0.00  0.00    +0.000 C 
ATOM      4  C   UNL     1      47.319   6.088  13.377  0.00  0.00    +0.000 A 
ATOM      5  C   UNL     1      46.551   6.587  12.321  0.00  0.00    +0.000 A 
ATOM      6  C   UNL     1      45.305   6.036  12.033  0.00  0.00    +0.000 A 
ATOM      7  C   UNL     1      44.850   4.967  12.793  0.00  0.00    +0.000 A 
ATOM      8  N   UNL     1      45.591   4.456  13.810  0.00  0.00    +0.000 NA
ATOM      9  C   UNL     1      46.797   5.015  14.108  0.00  0.00    +0.000 A 
BRANCH   9  10
ATOM     10  C   UNL     1      47.498   4.433  15.321  0.00  0.00    +0.000 C 
BRANCH  10  11
ATOM     11  N   UNL     1      47.786   2.999  15.223  0.00  0.00    +0.000 NA
ATOM     12  H   UNL     1      48.769   2.893  14.972  0.00  0.00    +0.000 HD
ATOM     13  H   UNL     1      47.255   2.618  14.442  0.00  0.00    +0.000 HD
ENDBRANCH  10  11
ENDBRANCH   9  10
ENDBRANCH   1   7
BRANCH   1  14
ATOM     14  C   UNL     1      43.630   3.074  11.663  0.00  0.00    +0.000 C 
BRANCH  14  15
ATOM     15  O   UNL     1      43.346   3.330  10.281  0.00  0.00    +0.000 OA
BRANCH  15  16
ATOM     16  C   UNL     1      44.369   3.042   9.411  0.00  0.00    +0.000 A 
ATOM     17  C   UNL     1      44.902   1.772   9.180  0.00  0.00    +0.000 A 
ATOM     18  C   UNL     1      45.938   1.592   8.259  0.00  0.00    +0.000 A 
ATOM     19  C   UNL     1      46.449   2.681   7.549  0.00  0.00    +0.000 A 
ATOM     20  C   UNL     1      45.931   3.960   7.785  0.00  0.00    +0.000 A 
ATOM     21  C   UNL     1      44.896   4.134   8.715  0.00  0.00    +0.000 A 
BRANCH  19  22
ATOM     22  C   UNL     1      47.540   2.421   6.573  0.00  0.00    +0.000 C 
ATOM     23  N   UNL     1      47.496   3.092   5.383  0.00  0.00    +0.000 N 
ATOM     24  O   UNL     1      48.424   1.603   6.800  0.00  0.00    +0.000 OA
ATOM     25  H   UNL     1      46.670   3.567   5.059  0.00  0.00    +0.000 HD
ATOM     26  H   UNL     1      48.175   2.800   4.688  0.00  0.00    +0.000 HD
ENDBRANCH  19  22
ENDBRANCH  15  16
ENDBRANCH  14  15
ENDBRANCH   1  14
TORSDOF 7
ENDMDL
MODEL 2
REMARK VINA RESULT:    -8.078      1.358      2.199
REMARK INTER + INTRA:         -12.112
REMARK INTER:                 -11.331
REMARK INTRA:                  -0.781
REMARK UNBOUND:                -0.964
REMARK  Name = 
REMARK  9 active torsions:
REMARK  status: ('A' for Active; 'I' for Inactive)
REMARK    1  A    between atoms: C_1  and  C_2
REMARK    2  A    between atoms: C_5  and  C_6
REMARK    3  A    between atoms: C_6  and  C_7
REMARK    4  A    between atoms: C_6  and  C_8
REMARK    5  A    between atoms: C_8  and  O_9
REMARK    6  A    between atoms: O_9  and  C_10
REMARK    7  A    between atoms: C_13  and  C_14
REMARK    8  A    between atoms: C_20  and  C_21
REMARK    9  A    between atoms: C_21  and  N_22
REMARK                            x       y       z     vdW  Elec       q    Type
REMARK                         _______ _______ _______ _____ _____    ______ ____
ROOT
ATOM      1  C   UNL     1      43.504   4.368  12.652  0.00  0.00    +0.000 C 
ATOM      2  C   UNL     1      42.424   5.297  12.087  0.00  0.00    +0.000 C 
ENDROOT
BRANCH   1   7
ATOM      3  C   UNL     1      48.451   7.270  13.495  0.00  0.00    +0.000 C 
ATOM      4  C   UNL     1      47.168   6.522  13.289  0.00  0.00    +0.000 A 
ATOM      5  C   UNL     1      47.071   5.186  13.691  0.00  0.00    +0.000 A 
ATOM      6  C   UNL     1      45.891   4.472  13.488  0.00  0.00    +0.000 A 
ATOM      7  C   UNL     1      44.807   5.116  12.907  0.00  0.00    +0.000 A 
ATOM      8  N   UNL     1      44.877   6.418  12.528  0.00  0.00    +0.000 NA
ATOM      9  C   UNL     1      46.041   7.106  12.702  0.00  0.00    +0.000 A 
BRANCH   9  10
ATOM     10  C   UNL     1      46.043   8.522  12.157  0.00  0.00    +0.000 C 
BRANCH  10  11
ATOM     11  N   UNL     1      45.034   9.401  12.754  0.00  0.00    +0.000 NA
ATOM     12  H   UNL     1      45.378  10.359  12.696  0.00  0.00    +0.000 HD
ATOM     13  H   UNL     1      44.968   9.187  13.748  0.00  0.00    +0.000 HD
ENDBRANCH  10  11
ENDBRANCH   9  10
ENDBRANCH   1   7
BRANCH   1  14
ATOM     14  C   UNL     1      43.743   3.167  11.717  0.00  0.00    +0.000 C 
BRANCH  14  15
ATOM     15  O   UNL     1      43.467   3.494  10.348  0.00  0.00    +0.000 OA
BRANCH  15  16
ATOM     16  C   UNL     1      44.449   3.144   9.454  0.00  0.00    +0.000 A 
ATOM     17  C   UNL     1      44.881   1.842   9.194  0.00  0.00    +0.000 A 
ATOM     18  C   UNL     1      45.883   1.600   8.251  0.00  0.00    +0.000 A 
ATOM     19  C   UNL     1      46.461   2.658   7.546  0.00  0.00    +0.000 A 
ATOM     20  C   UNL     1      46.046   3.969   7.812  0.00  0.00    +0.000 A 
ATOM     21  C   UNL     1      45.044   4.205   8.764  0.00  0.00    +0.000 A 
BRANCH  19  22
ATOM     22  C   UNL     1      47.512   2.333   6.546  0.00  0.00    +0.000 C 
ATOM     23  N   UNL     1      47.504   3.034   5.372  0.00  0.00    +0.000 N 
ATOM     24  O   UNL     1      48.328   1.441   6.738  0.00  0.00    +0.000 OA
ATOM     25  H   UNL     1      46.715   3.583   5.074  0.00  0.00    +0.000 HD
ATOM     26  H   UNL     1      48.145   2.704   4.659  0.00  0.00    +0.000 HD
ENDBRANCH  19  22
ENDBRANCH  15  16
ENDBRANCH  14  15
ENDBRANCH   1  14
TORSDOF 7
ENDMDL
MODEL 3
REMARK VINA RESULT:    -7.504      2.240      3.432
REMARK INTER + INTRA:         -11.319
REMARK INTER:                 -10.693
REMARK INTRA:                  -0.627
REMARK UNBOUND:                -0.964
REMARK  Name = 
REMARK  9 active torsions:
REMARK  status: ('A' for Active; 'I' for Inactive)
REMARK    1  A    between atoms: C_1  and  C_2
REMARK    2  A    between atoms: C_5  and  C_6
REMARK    3  A    between atoms: C_6  and  C_7
REMARK    4  A    between atoms: C_6  and  C_8
REMARK    5  A    between atoms: C_8  and  O_9
REMARK    6  A    between atoms: O_9  and  C_10
REMARK    7  A    between atoms: C_13  and  C_14
REMARK    8  A    between atoms: C_20  and  C_21
REMARK    9  A    between atoms: C_21  and  N_22
REMARK                            x       y       z     vdW  Elec       q    Type
REMARK                         _______ _______ _______ _____ _____    ______ ____
ROOT
ATOM      1  C   UNL     1      45.402   4.808  11.681  0.00  0.00    +0.000 C 
ATOM      2  C   UNL     1      45.780   3.989  12.920  0.00  0.00    +0.000 C 
ENDROOT
BRANCH   1   7
ATOM      3  C   UNL     1      46.958  10.376  12.096  0.00  0.00    +0.000 C 
ATOM      4  C   UNL     1      46.553   8.935  12.001  0.00  0.00    +0.000 A 
ATOM      5  C   UNL     1      47.506   7.932  12.206  0.00  0.00    +0.000 A 
ATOM      6  C   UNL     1      47.150   6.589  12.102  0.00  0.00    +0.000 A 
ATOM      7  C   UNL     1      45.831   6.263  11.820  0.00  0.00    +0.000 A 
ATOM      8  N   UNL     1      44.888   7.223  11.637  0.00  0.00    +0.000 NA
ATOM      9  C   UNL     1      45.244   8.536  11.712  0.00  0.00    +0.000 A 
BRANCH   9  10
ATOM     10  C   UNL     1      44.139   9.526  11.396  0.00  0.00    +0.000 C 
BRANCH  10  11
ATOM     11  N   UNL     1      42.980   8.941  10.715  0.00  0.00    +0.000 NA
ATOM     12  H   UNL     1      42.966   7.942  10.923  0.00  0.00    +0.000 HD
ATOM     13  H   UNL     1      43.127   9.015   9.709  0.00  0.00    +0.000 HD
ENDBRANCH  10  11
ENDBRANCH   9  10
ENDBRANCH   1   7
BRANCH   1  14
ATOM     14  C   UNL     1      43.890   4.713  11.398  0.00  0.00    +0.000 C 
BRANCH  14  15
ATOM     15  O   UNL     1      43.615   4.653   9.991  0.00  0.00    +0.000 OA
BRANCH  15  16
ATOM     16  C   UNL     1      44.517   3.929   9.250  0.00  0.00    +0.000 A 
ATOM     17  C   UNL     1      45.442   4.464   8.352  0.00  0.00    +0.000 A 
ATOM     18  C   UNL     1      46.324   3.631   7.658  0.00  0.00    +0.000 A 
ATOM     19  C   UNL     1      46.298   2.249   7.859  0.00  0.00    +0.000 A 
ATOM     20  C   UNL     1      45.361   1.702   8.746  0.00  0.00    +0.000 A 
ATOM     21  C   UNL     1      44.476   2.543   9.434  0.00  0.00    +0.000 A 
BRANCH  19  22
ATOM     22  C   UNL     1      47.270   1.419   7.102  0.00  0.00    +0.000 C 
ATOM     23  N   UNL     1      48.365   2.049   6.577  0.00  0.00    +0.000 N 
ATOM     24  O   UNL     1      47.082   0.224   6.908  0.00  0.00    +0.000 OA
ATOM     25  H   UNL     1      48.426   3.050   6.494  0.00  0.00    +0.000 HD
ATOM     26  H   UNL     1      48.940   1.488   5.958  0.00  0.00    +0.000 HD
ENDBRANCH  19  22
ENDBRANCH  15  16
ENDBRANCH  14  15
ENDBRANCH   1  14
TORSDOF 7
ENDMDL
MODEL 4
REMARK VINA RESULT:    -7.290      1.941      2.427
REMARK INTER + INTRA:         -11.025
REMARK INTER:                 -10.405
REMARK INTRA:                  -0.620
REMARK UNBOUND:                -0.964
REMARK  Name = 
REMARK  9 active torsions:
REMARK  status: ('A' for Active; 'I' for Inactive)
REMARK    1  A    between atoms: C_1  and  C_2
REMARK    2  A    between atoms: C_5  and  C_6
REMARK    3  A    between atoms: C_6  and  C_7
REMARK    4  A    between atoms: C_6  and  C_8
REMARK    5  A    between atoms: C_8  and  O_9
REMARK    6  A    between atoms: O_9  and  C_10
REMARK    7  A    between atoms: C_13  and  C_14
REMARK    8  A    between atoms: C_20  and  C_21
REMARK    9  A    between atoms: C_21  and  N_22
REMARK                            x       y       z     vdW  Elec       q    Type
REMARK                         _______ _______ _______ _____ _____    ______ ____
ROOT
ATOM      1  C   UNL     1      45.407   4.678  11.679  0.00  0.00    +0.000 C 
ATOM      2  C   UNL     1      45.696   3.757  12.869  0.00  0.00    +0.000 C 
ENDROOT
BRANCH   1   7
ATOM      3  C   UNL     1      47.584   9.959  12.664  0.00  0.00    +0.000 C 
ATOM      4  C   UNL     1      47.023   8.594  12.397  0.00  0.00    +0.000 A 
ATOM      5  C   UNL     1      45.692   8.458  11.991  0.00  0.00    +0.000 A 
ATOM      6  C   UNL     1      45.152   7.195  11.757  0.00  0.00    +0.000 A 
ATOM      7  C   UNL     1      45.962   6.078  11.908  0.00  0.00    +0.000 A 
ATOM      8  N   UNL     1      47.262   6.193  12.283  0.00  0.00    +0.000 NA
ATOM      9  C   UNL     1      47.781   7.427  12.537  0.00  0.00    +0.000 A 
BRANCH   9  10
ATOM     10  C   UNL     1      49.212   7.436  13.043  0.00  0.00    +0.000 C 
BRANCH  10  11
ATOM     11  N   UNL     1      50.225   7.310  11.991  0.00  0.00    +0.000 NA
ATOM     12  H   UNL     1      50.317   8.217  11.533  0.00  0.00    +0.000 HD
ATOM     13  H   UNL     1      49.871   6.672  11.279  0.00  0.00    +0.000 HD
ENDBRANCH  10  11
ENDBRANCH   9  10
ENDBRANCH   1   7
BRANCH   1  14
ATOM     14  C   UNL     1      43.896   4.736  11.381  0.00  0.00    +0.000 C 
BRANCH  14  15
ATOM     15  O   UNL     1      43.625   4.589   9.980  0.00  0.00    +0.000 OA
BRANCH  15  16
ATOM     16  C   UNL     1      44.530   3.823   9.286  0.00  0.00    +0.000 A 
ATOM     17  C   UNL     1      44.648   2.434   9.371  0.00  0.00    +0.000 A 
ATOM     18  C   UNL     1      45.600   1.754   8.607  0.00  0.00    +0.000 A 
ATOM     19  C   UNL     1      46.443   2.453   7.740  0.00  0.00    +0.000 A 
ATOM     20  C   UNL     1      46.342   3.848   7.661  0.00  0.00    +0.000 A 
ATOM     21  C   UNL     1      45.389   4.525   8.435  0.00  0.00    +0.000 A 
BRANCH  19  22
ATOM     22  C   UNL     1      47.424   1.671   6.945  0.00  0.00    +0.000 C 
ATOM     23  N   UNL     1      48.495   2.343   6.424  0.00  0.00    +0.000 N 
ATOM     24  O   UNL     1      47.264   0.478   6.718  0.00  0.00    +0.000 OA
ATOM     25  H   UNL     1      48.530   3.348   6.370  0.00  0.00    +0.000 HD
ATOM     26  H   UNL     1      49.075   1.816   5.781  0.00  0.00    +0.000 HD
ENDBRANCH  19  22
ENDBRANCH  15  16
ENDBRANCH  14  15
ENDBRANCH   1  14
TORSDOF 7
ENDMDL
MODEL 5
REMARK VINA RESULT:    -6.595      2.555      3.540
REMARK INTER + INTRA:         -10.066
REMARK INTER:                  -9.230
REMARK INTRA:                  -0.836
REMARK UNBOUND:                -0.964
REMARK  Name = 
REMARK  9 active torsions:
REMARK  status: ('A' for Active; 'I' for Inactive)
REMARK    1  A    between atoms: C_1  and  C_2
REMARK    2  A    between atoms: C_5  and  C_6
REMARK    3  A    between atoms: C_6  and  C_7
REMARK    4  A    between atoms: C_6  and  C_8
REMARK    5  A    between atoms: C_8  and  O_9
REMARK    6  A    between atoms: O_9  and  C_10
REMARK    7  A    between atoms: C_13  and  C_14
REMARK    8  A    between atoms: C_20  and  C_21
REMARK    9  A    between atoms: C_21  and  N_22
REMARK                            x       y       z     vdW  Elec       q    Type
REMARK                         _______ _______ _______ _____ _____    ______ ____
ROOT
ATOM      1  C   UNL     1      44.789   6.489  12.304  0.00  0.00    +0.000 C 
ATOM      2  C   UNL     1      43.643   6.970  11.408  0.00  0.00    +0.000 C 
ENDROOT
BRANCH   1   7
ATOM      3  C   UNL     1      49.442   9.870  11.584  0.00  0.00    +0.000 C 
ATOM      4  C   UNL     1      48.241   8.994  11.783  0.00  0.00    +0.000 A 
ATOM      5  C   UNL     1      48.372   7.604  11.687  0.00  0.00    +0.000 A 
ATOM      6  C   UNL     1      47.262   6.779  11.850  0.00  0.00    +0.000 A 
ATOM      7  C   UNL     1      46.032   7.354  12.135  0.00  0.00    +0.000 A 
ATOM      8  N   UNL     1      45.889   8.700  12.250  0.00  0.00    +0.000 NA
ATOM      9  C   UNL     1      46.971   9.507  12.063  0.00  0.00    +0.000 A 
BRANCH   9  10
ATOM     10  C   UNL     1      46.684  10.996  12.118  0.00  0.00    +0.000 C 
BRANCH  10  11
ATOM     11  N   UNL     1      45.259  11.337  12.137  0.00  0.00    +0.000 NA
ATOM     12  H   UNL     1      44.997  11.537  13.102  0.00  0.00    +0.000 HD
ATOM     13  H   UNL     1      44.727  10.510  11.869  0.00  0.00    +0.000 HD
ENDBRANCH  10  11
ENDBRANCH   9  10
ENDBRANCH   1   7
BRANCH   1  14
ATOM     14  C   UNL     1      45.118   5.008  12.032  0.00  0.00    +0.000 C 
BRANCH  14  15
ATOM     15  O   UNL     1      44.269   4.452  11.019  0.00  0.00    +0.000 OA
BRANCH  15  16
ATOM     16  C   UNL     1      44.922   3.957   9.916  0.00  0.00    +0.000 A 
ATOM     17  C   UNL     1      45.573   4.726   8.949  0.00  0.00    +0.000 A 
ATOM     18  C   UNL     1      46.218   4.113   7.871  0.00  0.00    +0.000 A 
ATOM     19  C   UNL     1      46.229   2.722   7.750  0.00  0.00    +0.000 A 
ATOM     20  C   UNL     1      45.564   1.945   8.707  0.00  0.00    +0.000 A 
ATOM     21  C   UNL     1      44.914   2.565   9.783  0.00  0.00    +0.000 A 
BRANCH  19  22
ATOM     22  C   UNL     1      46.944   2.132   6.588  0.00  0.00    +0.000 C 
ATOM     23  N   UNL     1      47.323   2.978   5.584  0.00  0.00    +0.000 N 
ATOM     24  O   UNL     1      47.148   0.927   6.504  0.00  0.00    +0.000 OA
ATOM     25  H   UNL     1      46.957   3.911   5.494  0.00  0.00    +0.000 HD
ATOM     26  H   UNL     1      47.689   2.533   4.749  0.00  0.00    +0.000 HD
ENDBRANCH  19  22
ENDBRANCH  15  16
ENDBRANCH  14  15
ENDBRANCH   1  14
TORSDOF 7
ENDMDL
MODEL 6
REMARK VINA RESULT:    -6.455      2.898      6.356
REMARK INTER + INTRA:          -9.872
REMARK INTER:                  -9.307
REMARK INTRA:                  -0.565
REMARK UNBOUND:                -0.964
REMARK  Name = 
REMARK  9 active torsions:
REMARK  status: ('A' for Active; 'I' for Inactive)
REMARK    1  A    between atoms: C_1  and  C_2
REMARK    2  A    between atoms: C_5  and  C_6
REMARK    3  A    between atoms: C_6  and  C_7
REMARK    4  A    between atoms: C_6  and  C_8
REMARK    5  A    between atoms: C_8  and  O_9
REMARK    6  A    between atoms: O_9  and  C_10
REMARK    7  A    between atoms: C_13  and  C_14
REMARK    8  A    between atoms: C_20  and  C_21
REMARK    9  A    between atoms: C_21  and  N_22
REMARK                            x       y       z     vdW  Elec       q    Type
REMARK                         _______ _______ _______ _____ _____    ______ ____
ROOT
ATOM      1  C   UNL     1      44.408   3.538  11.471  0.00  0.00    +0.000 C 
ATOM      2  C   UNL     1      43.225   2.577  11.627  0.00  0.00    +0.000 C 
ENDROOT
BRANCH   1   7
ATOM      3  C   UNL     1      46.756   3.174   6.183  0.00  0.00    +0.000 C 
ATOM      4  C   UNL     1      46.137   3.269   7.546  0.00  0.00    +0.000 A 
ATOM      5  C   UNL     1      45.864   4.524   8.098  0.00  0.00    +0.000 A 
ATOM      6  C   UNL     1      45.307   4.629   9.371  0.00  0.00    +0.000 A 
ATOM      7  C   UNL     1      45.003   3.469  10.069  0.00  0.00    +0.000 A 
ATOM      8  N   UNL     1      45.243   2.241   9.541  0.00  0.00    +0.000 NA
ATOM      9  C   UNL     1      45.813   2.141   8.308  0.00  0.00    +0.000 A 
BRANCH   9  10
ATOM     10  C   UNL     1      46.128   0.728   7.852  0.00  0.00    +0.000 C 
BRANCH  10  11
ATOM     11  N   UNL     1      47.558   0.452   7.688  0.00  0.00    +0.000 NA
ATOM     12  H   UNL     1      47.813   0.680   6.727  0.00  0.00    +0.000 HD
ATOM     13  H   UNL     1      47.705  -0.552   7.785  0.00  0.00    +0.000 HD
ENDBRANCH  10  11
ENDBRANCH   9  10
ENDBRANCH   1   7
BRANCH   1  14
ATOM     14  C   UNL     1      45.490   3.260  12.532  0.00  0.00    +0.000 C 
BRANCH  14  15
ATOM     15  O   UNL     1      45.465   4.233  13.586  0.00  0.00    +0.000 OA
BRANCH  15  16
ATOM     16  C   UNL     1      45.973   5.465  13.255  0.00  0.00    +0.000 A 
ATOM     17  C   UNL     1      47.328   5.794  13.199  0.00  0.00    +0.000 A 
ATOM     18  C   UNL     1      47.733   7.082  12.837  0.00  0.00    +0.000 A 
ATOM     19  C   UNL     1      46.787   8.058  12.517  0.00  0.00    +0.000 A 
ATOM     20  C   UNL     1      45.424   7.741  12.586  0.00  0.00    +0.000 A 
ATOM     21  C   UNL     1      45.024   6.449  12.955  0.00  0.00    +0.000 A 
BRANCH  19  22
ATOM     22  C   UNL     1      47.282   9.403  12.126  0.00  0.00    +0.000 C 
ATOM     23  N   UNL     1      46.416  10.455  12.247  0.00  0.00    +0.000 N 
ATOM     24  O   UNL     1      48.406   9.566  11.666  0.00  0.00    +0.000 OA
ATOM     25  H   UNL     1      45.426  10.329  12.374  0.00  0.00    +0.000 HD
ATOM     26  H   UNL     1      46.734  11.333  11.852  0.00  0.00    +0.000 HD
ENDBRANCH  19  22
ENDBRANCH  15  16
ENDBRANCH  14  15
ENDBRANCH   1  14
TORSDOF 7
ENDMDL
MODEL 7
REMARK VINA RESULT:    -6.342      2.759      6.091
REMARK INTER + INTRA:          -9.716
REMARK INTER:                  -9.295
REMARK INTRA:                  -0.421
REMARK UNBOUND:                -0.964
REMARK  Name = 
REMARK  9 active torsions:
REMARK  status: ('A' for Active; 'I' for Inactive)
REMARK    1  A    between atoms: C_1  and  C_2
REMARK    2  A    between atoms: C_5  and  C_6
REMARK    3  A    between atoms: C_6  and  C_7
REMARK    4  A    between atoms: C_6  and  C_8
REMARK    5  A    between atoms: C_8  and  O_9
REMARK    6  A    between atoms: O_9  and  C_10
REMARK    7  A    between atoms: C_13  and  C_14
REMARK    8  A    between atoms: C_20  and  C_21
REMARK    9  A    between atoms: C_21  and  N_22
REMARK                            x       y       z     vdW  Elec       q    Type
REMARK                         _______ _______ _______ _____ _____    ______ ____
ROOT
ATOM      1  C   UNL     1      43.275   3.749  11.088  0.00  0.00    +0.000 C 
ATOM      2  C   UNL     1      43.608   2.779  12.225  0.00  0.00    +0.000 C 
ENDROOT
BRANCH   1   7
ATOM      3  C   UNL     1      47.110   3.168   6.780  0.00  0.00    +0.000 C 
ATOM      4  C   UNL     1      46.108   3.321   7.886  0.00  0.00    +0.000 A 
ATOM      5  C   UNL     1      45.807   4.595   8.378  0.00  0.00    +0.000 A 
ATOM      6  C   UNL     1      44.893   4.750   9.418  0.00  0.00    +0.000 A 
ATOM      7  C   UNL     1      44.268   3.626   9.938  0.00  0.00    +0.000 A 
ATOM      8  N   UNL     1      44.534   2.383   9.460  0.00  0.00    +0.000 NA
ATOM      9  C   UNL     1      45.449   2.230   8.462  0.00  0.00    +0.000 A 
BRANCH   9  10
ATOM     10  C   UNL     1      45.744   0.795   8.068  0.00  0.00    +0.000 C 
BRANCH  10  11
ATOM     11  N   UNL     1      47.171   0.475   7.975  0.00  0.00    +0.000 NA
ATOM     12  H   UNL     1      47.695   1.343   8.087  0.00  0.00    +0.000 HD
ATOM     13  H   UNL     1      47.367   0.150   7.030  0.00  0.00    +0.000 HD
ENDBRANCH  10  11
ENDBRANCH   9  10
ENDBRANCH   1   7
BRANCH   1  14
ATOM     14  C   UNL     1      43.217   5.202  11.600  0.00  0.00    +0.000 C 
BRANCH  14  15
ATOM     15  O   UNL     1      43.758   5.321  12.923  0.00  0.00    +0.000 OA
BRANCH  15  16
ATOM     16  C   UNL     1      45.057   5.763  12.986  0.00  0.00    +0.000 A 
ATOM     17  C   UNL     1      45.544   6.932  12.398  0.00  0.00    +0.000 A 
ATOM     18  C   UNL     1      46.887   7.292  12.537  0.00  0.00    +0.000 A 
ATOM     19  C   UNL     1      47.762   6.490  13.275  0.00  0.00    +0.000 A 
ATOM     20  C   UNL     1      47.286   5.307  13.854  0.00  0.00    +0.000 A 
ATOM     21  C   UNL     1      45.938   4.949  13.706  0.00  0.00    +0.000 A 
BRANCH  19  22
ATOM     22  C   UNL     1      49.174   6.935  13.397  0.00  0.00    +0.000 C 
ATOM     23  N   UNL     1      49.847   7.227  12.243  0.00  0.00    +0.000 N 
ATOM     24  O   UNL     1      49.738   6.995  14.483  0.00  0.00    +0.000 OA
ATOM     25  H   UNL     1      49.511   6.951  11.335  0.00  0.00    +0.000 HD
ATOM     26  H   UNL     1      50.841   7.399  12.345  0.00  0.00    +0.000 HD
ENDBRANCH  19  22
ENDBRANCH  15  16
ENDBRANCH  14  15
ENDBRANCH   1  14
TORSDOF 7
ENDMDL
MODEL 8
REMARK VINA RESULT:    -6.196      3.807      6.441
REMARK INTER + INTRA:          -9.514
REMARK INTER:                  -8.964
REMARK INTRA:                  -0.550
REMARK UNBOUND:                -0.964
REMARK  Name = 
REMARK  9 active torsions:
REMARK  status: ('A' for Active; 'I' for Inactive)
REMARK    1  A    between atoms: C_1  and  C_2
REMARK    2  A    between atoms: C_5  and  C_6
REMARK    3  A    between atoms: C_6  and  C_7
REMARK    4  A    between atoms: C_6  and  C_8
REMARK    5  A    between atoms: C_8  and  O_9
REMARK    6  A    between atoms: O_9  and  C_10
REMARK    7  A    between atoms: C_13  and  C_14
REMARK    8  A    between atoms: C_20  and  C_21
REMARK    9  A    between atoms: C_21  and  N_22
REMARK                            x       y       z     vdW  Elec       q    Type
REMARK                         _______ _______ _______ _____ _____    ______ ____
ROOT
ATOM      1  C   UNL     1      48.027   3.247  16.578  0.00  0.00    +0.000 C 
ATOM      2  C   UNL     1      47.112   2.801  17.723  0.00  0.00    +0.000 C 
ENDROOT
BRANCH   1   7
ATOM      3  C   UNL     1      53.493   3.776  18.433  0.00  0.00    +0.000 C 
ATOM      4  C   UNL     1      52.083   3.643  17.941  0.00  0.00    +0.000 A 
ATOM      5  C   UNL     1      51.243   4.761  17.931  0.00  0.00    +0.000 A 
ATOM      6  C   UNL     1      49.924   4.649  17.495  0.00  0.00    +0.000 A 
ATOM      7  C   UNL     1      49.467   3.418  17.047  0.00  0.00    +0.000 A 
ATOM      8  N   UNL     1      50.273   2.325  17.032  0.00  0.00    +0.000 NA
ATOM      9  C   UNL     1      51.554   2.431  17.485  0.00  0.00    +0.000 A 
BRANCH   9  10
ATOM     10  C   UNL     1      52.339   1.133  17.517  0.00  0.00    +0.000 C 
BRANCH  10  11
ATOM     11  N   UNL     1      51.667   0.038  18.223  0.00  0.00    +0.000 NA
ATOM     12  H   UNL     1      51.861  -0.827  17.718  0.00  0.00    +0.000 HD
ATOM     13  H   UNL     1      50.660   0.181  18.154  0.00  0.00    +0.000 HD
ENDBRANCH  10  11
ENDBRANCH   9  10
ENDBRANCH   1   7
BRANCH   1  14
ATOM     14  C   UNL     1      47.510   4.547  15.932  0.00  0.00    +0.000 C 
BRANCH  14  15
ATOM     15  O   UNL     1      47.808   4.601  14.530  0.00  0.00    +0.000 OA
BRANCH  15  16
ATOM     16  C   UNL     1      46.717   4.724  13.705  0.00  0.00    +0.000 A 
ATOM     17  C   UNL     1      46.024   3.665  13.116  0.00  0.00    +0.000 A 
ATOM     18  C   UNL     1      44.915   3.908  12.299  0.00  0.00    +0.000 A 
ATOM     19  C   UNL     1      44.480   5.214  12.068  0.00  0.00    +0.000 A 
ATOM     20  C   UNL     1      45.180   6.283  12.641  0.00  0.00    +0.000 A 
ATOM     21  C   UNL     1      46.294   6.033  13.455  0.00  0.00    +0.000 A 
BRANCH  19  22
ATOM     22  C   UNL     1      43.287   5.405  11.202  0.00  0.00    +0.000 C 
ATOM     23  N   UNL     1      42.222   6.078  11.733  0.00  0.00    +0.000 N 
ATOM     24  O   UNL     1      43.232   4.938  10.071  0.00  0.00    +0.000 OA
ATOM     25  H   UNL     1      42.127   6.250  12.721  0.00  0.00    +0.000 HD
ATOM     26  H   UNL     1      41.378   6.079  11.172  0.00  0.00    +0.000 HD
ENDBRANCH  19  22
ENDBRANCH  15  16
ENDBRANCH  14  15
ENDBRANCH   1  14
TORSDOF 7
ENDMDL
MODEL 9
REMARK VINA RESULT:    -5.973      3.134      5.649
REMARK INTER + INTRA:          -9.207
REMARK INTER:                  -8.537
REMARK INTRA:                  -0.671
REMARK UNBOUND:                -0.964
REMARK  Name = 
REMARK  9 active torsions:
REMARK  status: ('A' for Active; 'I' for Inactive)
REMARK    1  A    between atoms: C_1  and  C_2
REMARK    2  A    between atoms: C_5  and  C_6
REMARK    3  A    between atoms: C_6  and  C_7
REMARK    4  A    between atoms: C_6  and  C_8
REMARK    5  A    between atoms: C_8  and  O_9
REMARK    6  A    between atoms: O_9  and  C_10
REMARK    7  A    between atoms: C_13  and  C_14
REMARK    8  A    between atoms: C_20  and  C_21
REMARK    9  A    between atoms: C_21  and  N_22
REMARK                            x       y       z     vdW  Elec       q    Type
REMARK                         _______ _______ _______ _____ _____    ______ ____
ROOT
ATOM      1  C   UNL     1      49.143   7.545  15.032  0.00  0.00    +0.000 C 
ATOM      2  C   UNL     1      50.537   8.140  14.805  0.00  0.00    +0.000 C 
ENDROOT
BRANCH   1   7
ATOM      3  C   UNL     1      48.826   4.315  19.836  0.00  0.00    +0.000 C 
ATOM      4  C   UNL     1      48.921   5.147  18.591  0.00  0.00    +0.000 A 
ATOM      5  C   UNL     1      49.365   6.471  18.674  0.00  0.00    +0.000 A 
ATOM      6  C   UNL     1      49.439   7.262  17.530  0.00  0.00    +0.000 A 
ATOM      7  C   UNL     1      49.092   6.709  16.306  0.00  0.00    +0.000 A 
ATOM      8  N   UNL     1      48.677   5.420  16.203  0.00  0.00    +0.000 NA
ATOM      9  C   UNL     1      48.578   4.656  17.327  0.00  0.00    +0.000 A 
BRANCH   9  10
ATOM     10  C   UNL     1      48.013   3.264  17.116  0.00  0.00    +0.000 C 
BRANCH  10  11
ATOM     11  N   UNL     1      46.595   3.129  17.463  0.00  0.00    +0.000 NA
ATOM     12  H   UNL     1      46.158   2.524  16.767  0.00  0.00    +0.000 HD
ATOM     13  H   UNL     1      46.150   4.040  17.359  0.00  0.00    +0.000 HD
ENDBRANCH  10  11
ENDBRANCH   9  10
ENDBRANCH   1   7
BRANCH   1  14
ATOM     14  C   UNL     1      48.696   6.708  13.817  0.00  0.00    +0.000 C 
BRANCH  14  15
ATOM     15  O   UNL     1      47.397   7.100  13.351  0.00  0.00    +0.000 OA
BRANCH  15  16
ATOM     16  C   UNL     1      46.632   6.084  12.832  0.00  0.00    +0.000 A 
ATOM     17  C   UNL     1      46.382   4.859  13.455  0.00  0.00    +0.000 A 
ATOM     18  C   UNL     1      45.575   3.899  12.838  0.00  0.00    +0.000 A 
ATOM     19  C   UNL     1      44.999   4.154  11.592  0.00  0.00    +0.000 A 
ATOM     20  C   UNL     1      45.258   5.373  10.953  0.00  0.00    +0.000 A 
ATOM     21  C   UNL     1      46.073   6.330  11.574  0.00  0.00    +0.000 A 
BRANCH  19  22
ATOM     22  C   UNL     1      44.140   3.099  10.996  0.00  0.00    +0.000 C 
ATOM     23  N   UNL     1      44.682   2.326  10.007  0.00  0.00    +0.000 N 
ATOM     24  O   UNL     1      42.973   2.950  11.337  0.00  0.00    +0.000 OA
ATOM     25  H   UNL     1      45.532   2.577   9.528  0.00  0.00    +0.000 HD
ATOM     26  H   UNL     1      44.038   1.706   9.529  0.00  0.00    +0.000 HD
ENDBRANCH  19  22
ENDBRANCH  15  16
ENDBRANCH  14  15
ENDBRANCH   1  14
TORSDOF 7
ENDMDL
