MODEL 1
REMARK VINA RESULT:    -8.384      0.000      0.000
REMARK INTER + INTRA:         -12.901
REMARK INTER:                 -11.815
REMARK INTRA:                  -1.086
REMARK UNBOUND:                -1.086
REMARK  Name = 
REMARK  7 active torsions:
REMARK  status: ('A' for Active; 'I' for Inactive)
REMARK    1  A    between atoms: C_2  and  C_20
REMARK    2  A    between atoms: N_3  and  C_4
REMARK    3  A    between atoms: C_4  and  C_5
REMARK    4  A    between atoms: C_9  and  C_10
REMARK    5  A    between atoms: C_10  and  N_11
REMARK    6  A    between atoms: N_11  and  C_12
REMARK    7  A    between atoms: C_12  and  C_13
REMARK                            x       y       z     vdW  Elec       q    Type
REMARK                         _______ _______ _______ _____ _____    ______ ____
ROOT
ATOM      1  C   UNL     1      46.816   6.796  11.640  0.00  0.00    +0.000 C 
ENDROOT
BRANCH   1   2
ATOM      2  C   UNL     1      45.387   6.307  11.549  0.00  0.00    +0.000 A 
ATOM      3  C   UNL     1      44.341   7.206  11.517  0.00  0.00    +0.000 A 
ATOM      4  C   UNL     1      43.081   6.670  11.396  0.00  0.00    +0.000 A 
ATOM      5  N   UNL     1      42.839   5.352  11.301  0.00  0.00    +0.000 NA
ATOM      6  C   UNL     1      43.919   4.536  11.289  0.00  0.00    +0.000 A 
ATOM      7  N   UNL     1      45.196   4.969  11.407  0.00  0.00    +0.000 NA
BRANCH   6   8
ATOM      8  C   UNL     1      43.688   3.043  11.136  0.00  0.00    +0.000 C 
BRANCH   8   9
ATOM      9  N   UNL     1      44.628   2.326  10.250  0.00  0.00    +0.000 NA
ATOM     10  H   UNL     1      44.310   1.355  10.207  0.00  0.00    +0.000 HD
BRANCH   9  11
ATOM     11  C   UNL     1      44.596   2.856   8.881  0.00  0.00    +0.000 C 
BRANCH  11  12
ATOM     12  C   UNL     1      45.796   2.389   8.099  0.00  0.00    +0.000 A 
ATOM     13  C   UNL     1      46.156   1.038   8.083  0.00  0.00    +0.000 A 
ATOM     14  C   UNL     1      47.266   0.655   7.345  0.00  0.00    +0.000 A 
ATOM     15  N   UNL     1      48.032   1.512   6.635  0.00  0.00    +0.000 NA
ATOM     16  C   UNL     1      47.670   2.812   6.666  0.00  0.00    +0.000 A 
ATOM     17  C   UNL     1      46.575   3.293   7.371  0.00  0.00    +0.000 A 
ENDBRANCH  11  12
ENDBRANCH   9  11
ENDBRANCH   8   9
ENDBRANCH   6   8
ENDBRANCH   1   2
BRANCH   1  20
ATOM     18  O   UNL     1      49.381   6.557  12.851  0.00  0.00    +0.000 OA
ATOM     19  C   UNL     1      48.397   6.829  13.529  0.00  0.00    +0.000 C 
ATOM     20  N   UNL     1      47.150   7.098  13.011  0.00  0.00    +0.000 N 
ATOM     21  H   UNL     1      46.362   7.052  13.642  0.00  0.00    +0.000 HD
BRANCH  19  22
ATOM     22  C   UNL     1      48.348   6.666  14.975  0.00  0.00    +0.000 A 
ATOM     23  C   UNL     1      48.835   7.625  15.845  0.00  0.00    +0.000 A 
ATOM     24  S   UNL     1      49.266   6.931  17.356  0.00  0.00    +0.000 S 
ATOM     25  C   UNL     1      48.629   5.414  16.903  0.00  0.00    +0.000 A 
ATOM     26  N   UNL     1      48.789   4.295  17.659  0.00  0.00    +0.000 NA
ATOM     27  C   UNL     1      48.177   3.252  17.197  0.00  0.00    +0.000 A 
ATOM     28  N   UNL     1      47.379   3.236  16.080  0.00  0.00    +0.000 N 
ATOM     29  C   UNL     1      47.197   4.340  15.276  0.00  0.00    +0.000 A 
ATOM     30  O   UNL     1      46.439   4.331  14.314  0.00  0.00    +0.000 OA
ATOM     31  C   UNL     1      47.971   5.490  15.697  0.00  0.00    +0.000 A 
ATOM     32  H   UNL     1      46.854   2.413  15.826  0.00  0.00    +0.000 HD
ENDBRANCH  19  22
ENDBRANCH   1  20
TORSDOF 7
ENDMDL
MODEL 2
REMARK VINA RESULT:    -8.297      2.069      3.517
REMARK INTER + INTRA:         -12.777
REMARK INTER:                 -11.950
REMARK INTRA:                  -0.828
REMARK UNBOUND:                -1.086
REMARK  Name = 
REMARK  7 active torsions:
REMARK  status: ('A' for Active; 'I' for Inactive)
REMARK    1  A    between atoms: C_2  and  C_20
REMARK    2  A    between atoms: N_3  and  C_4
REMARK    3  A    between atoms: C_4  and  C_5
REMARK    4  A    between atoms: C_9  and  C_10
REMARK    5  A    between atoms: C_10  and  N_11
REMARK    6  A    between atoms: N_11  and  C_12
REMARK    7  A    between atoms: C_12  and  C_13
REMARK                            x       y       z     vdW  Elec       q    Type
REMARK                         _______ _______ _______ _____ _____    ______ ____
ROOT
ATOM      1  C   UNL     1      46.601   4.198  14.648  0.00  0.00    +0.000 C 
ENDROOT
BRANCH   1   2
ATOM      2  C   UNL     1      46.713   5.159  13.485  0.00  0.00    +0.000 A 
ATOM      3  C   UNL     1      47.715   6.107  13.454  0.00  0.00    +0.000 A 
ATOM      4  C   UNL     1      47.758   6.911  12.341  0.00  0.00    +0.000 A 
ATOM      5  N   UNL     1      46.899   6.806  11.313  0.00  0.00    +0.000 NA
ATOM      6  C   UNL     1      45.975   5.820  11.392  0.00  0.00    +0.000 A 
ATOM      7  N   UNL     1      45.851   4.983  12.450  0.00  0.00    +0.000 NA
BRANCH   6   8
ATOM      8  C   UNL     1      45.016   5.641  10.230  0.00  0.00    +0.000 C 
BRANCH   8   9
ATOM      9  N   UNL     1      45.606   5.140   8.971  0.00  0.00    +0.000 NA
ATOM     10  H   UNL     1      46.579   4.901   9.176  0.00  0.00    +0.000 HD
BRANCH   9  11
ATOM     11  C   UNL     1      44.943   3.912   8.512  0.00  0.00    +0.000 C 
BRANCH  11  12
ATOM     12  C   UNL     1      45.931   2.989   7.848  0.00  0.00    +0.000 A 
ATOM     13  C   UNL     1      46.749   3.446   6.809  0.00  0.00    +0.000 A 
ATOM     14  C   UNL     1      47.646   2.559   6.232  0.00  0.00    +0.000 A 
ATOM     15  N   UNL     1      47.782   1.270   6.611  0.00  0.00    +0.000 NA
ATOM     16  C   UNL     1      46.981   0.848   7.612  0.00  0.00    +0.000 A 
ATOM     17  C   UNL     1      46.055   1.657   8.255  0.00  0.00    +0.000 A 
ENDBRANCH  11  12
ENDBRANCH   9  11
ENDBRANCH   8   9
ENDBRANCH   6   8
ENDBRANCH   1   2
BRANCH   1  20
ATOM     18  O   UNL     1      46.557   3.229  17.325  0.00  0.00    +0.000 OA
ATOM     19  C   UNL     1      47.262   4.184  17.021  0.00  0.00    +0.000 C 
ATOM     20  N   UNL     1      47.450   4.630  15.732  0.00  0.00    +0.000 N 
ATOM     21  H   UNL     1      47.825   5.561  15.609  0.00  0.00    +0.000 HD
BRANCH  19  22
ATOM     22  C   UNL     1      47.800   5.127  17.993  0.00  0.00    +0.000 A 
ATOM     23  C   UNL     1      47.007   5.738  18.948  0.00  0.00    +0.000 A 
ATOM     24  S   UNL     1      47.698   7.221  19.471  0.00  0.00    +0.000 S 
ATOM     25  C   UNL     1      49.119   6.940  18.570  0.00  0.00    +0.000 A 
ATOM     26  N   UNL     1      50.095   7.875  18.427  0.00  0.00    +0.000 NA
ATOM     27  C   UNL     1      51.132   7.463  17.771  0.00  0.00    +0.000 A 
ATOM     28  N   UNL     1      51.307   6.189  17.291  0.00  0.00    +0.000 N 
ATOM     29  C   UNL     1      50.342   5.211  17.400  0.00  0.00    +0.000 A 
ATOM     30  O   UNL     1      50.529   4.062  17.018  0.00  0.00    +0.000 OA
ATOM     31  C   UNL     1      49.119   5.679  18.018  0.00  0.00    +0.000 A 
ATOM     32  H   UNL     1      52.178   5.904  16.871  0.00  0.00    +0.000 HD
ENDBRANCH  19  22
ENDBRANCH   1  20
TORSDOF 7
ENDMDL
MODEL 3
REMARK VINA RESULT:    -7.921      2.334      3.204
REMARK INTER + INTRA:         -12.247
REMARK INTER:                 -11.249
REMARK INTRA:                  -0.998
REMARK UNBOUND:                -1.086
REMARK  Name = 
REMARK  7 active torsions:
REMARK  status: ('A' for Active; 'I' for Inactive)
REMARK    1  A    between atoms: C_2  and  C_20
REMARK    2  A    between atoms: N_3  and  C_4
REMARK    3  A    between atoms: C_4  and  C_5
REMARK    4  A    between atoms: C_9  and  C_10
REMARK    5  A    between atoms: C_10  and  N_11
REMARK    6  A    between atoms: N_11  and  C_12
REMARK    7  A    between atoms: C_12  and  C_13
REMARK                            x       y       z     vdW  Elec       q    Type
REMARK                         _______ _______ _______ _____ _____    ______ ____
ROOT
ATOM      1  C   UNL     1      47.187   4.491  15.238  0.00  0.00    +0.000 C 
ENDROOT
BRANCH   1   2
ATOM      2  C   UNL     1      46.646   4.923  13.892  0.00  0.00    +0.000 A 
ATOM      3  C   UNL     1      47.137   6.053  13.272  0.00  0.00    +0.000 A 
ATOM      4  C   UNL     1      46.611   6.347  12.037  0.00  0.00    +0.000 A 
ATOM      5  N   UNL     1      45.679   5.595  11.427  0.00  0.00    +0.000 NA
ATOM      6  C   UNL     1      45.284   4.474  12.075  0.00  0.00    +0.000 A 
ATOM      7  N   UNL     1      45.740   4.106  13.296  0.00  0.00    +0.000 NA
BRANCH   6   8
ATOM      8  C   UNL     1      44.265   3.576  11.397  0.00  0.00    +0.000 C 
BRANCH   8   9
ATOM      9  N   UNL     1      44.809   2.408  10.672  0.00  0.00    +0.000 NA
ATOM     10  H   UNL     1      44.422   1.575  11.123  0.00  0.00    +0.000 HD
BRANCH   9  11
ATOM     11  C   UNL     1      44.369   2.388   9.271  0.00  0.00    +0.000 C 
BRANCH  11  12
ATOM     12  C   UNL     1      45.554   2.396   8.340  0.00  0.00    +0.000 A 
ATOM     13  C   UNL     1      45.956   3.575   7.706  0.00  0.00    +0.000 A 
ATOM     14  C   UNL     1      47.055   3.533   6.861  0.00  0.00    +0.000 A 
ATOM     15  N   UNL     1      47.769   2.415   6.607  0.00  0.00    +0.000 NA
ATOM     16  C   UNL     1      47.364   1.287   7.227  0.00  0.00    +0.000 A 
ATOM     17  C   UNL     1      46.279   1.227   8.091  0.00  0.00    +0.000 A 
ENDBRANCH  11  12
ENDBRANCH   9  11
ENDBRANCH   8   9
ENDBRANCH   6   8
ENDBRANCH   1   2
BRANCH   1  20
ATOM     18  O   UNL     1      49.641   4.469  16.680  0.00  0.00    +0.000 OA
ATOM     19  C   UNL     1      48.925   5.464  16.686  0.00  0.00    +0.000 C 
ATOM     20  N   UNL     1      47.797   5.611  15.911  0.00  0.00    +0.000 N 
ATOM     21  H   UNL     1      47.142   6.336  16.172  0.00  0.00    +0.000 HD
BRANCH  19  22
ATOM     22  C   UNL     1      49.026   6.520  17.684  0.00  0.00    +0.000 A 
ATOM     23  C   UNL     1      49.936   7.556  17.576  0.00  0.00    +0.000 A 
ATOM     24  S   UNL     1      50.305   8.222  19.116  0.00  0.00    +0.000 S 
ATOM     25  C   UNL     1      49.118   7.260  19.877  0.00  0.00    +0.000 A 
ATOM     26  N   UNL     1      48.979   7.197  21.227  0.00  0.00    +0.000 NA
ATOM     27  C   UNL     1      47.981   6.474  21.624  0.00  0.00    +0.000 A 
ATOM     28  N   UNL     1      47.080   5.852  20.797  0.00  0.00    +0.000 N 
ATOM     29  C   UNL     1      47.186   5.877  19.423  0.00  0.00    +0.000 A 
ATOM     30  O   UNL     1      46.345   5.366  18.692  0.00  0.00    +0.000 OA
ATOM     31  C   UNL     1      48.365   6.572  18.952  0.00  0.00    +0.000 A 
ATOM     32  H   UNL     1      46.268   5.381  21.168  0.00  0.00    +0.000 HD
ENDBRANCH  19  22
ENDBRANCH   1  20
TORSDOF 7
ENDMDL
MODEL 4
REMARK VINA RESULT:    -7.828      1.907      3.132
REMARK INTER + INTRA:         -12.118
REMARK INTER:                 -11.260
REMARK INTRA:                  -0.858
REMARK UNBOUND:                -1.086
REMARK  Name = 
REMARK  7 active torsions:
REMARK  status: ('A' for Active; 'I' for Inactive)
REMARK    1  A    between atoms: C_2  and  C_20
REMARK    2  A    between atoms: N_3  and  C_4
REMARK    3  A    between atoms: C_4  and  C_5
REMARK    4  A    between atoms: C_9  and  C_10
REMARK    5  A    between atoms: C_10  and  N_11
REMARK    6  A    between atoms: N_11  and  C_12
REMARK    7  A    between atoms: C_12  and  C_13
REMARK                            x       y       z     vdW  Elec       q    Type
REMARK                         _______ _______ _______ _____ _____    ______ ____
ROOT
ATOM      1  C   UNL     1      46.576   4.175  14.591  0.00  0.00    +0.000 C 
ENDROOT
BRANCH   1   2
ATOM      2  C   UNL     1      46.153   4.896  13.330  0.00  0.00    +0.000 A 
ATOM      3  C   UNL     1      46.788   6.057  12.941  0.00  0.00    +0.000 A 
ATOM      4  C   UNL     1      46.359   6.621  11.764  0.00  0.00    +0.000 A 
ATOM      5  N   UNL     1      45.387   6.097  10.998  0.00  0.00    +0.000 NA
ATOM      6  C   UNL     1      44.846   4.930  11.419  0.00  0.00    +0.000 A 
ATOM      7  N   UNL     1      45.199   4.303  12.566  0.00  0.00    +0.000 NA
BRANCH   6   8
ATOM      8  C   UNL     1      43.777   4.284  10.557  0.00  0.00    +0.000 C 
BRANCH   8   9
ATOM      9  N   UNL     1      44.242   3.245   9.613  0.00  0.00    +0.000 NA
ATOM     10  H   UNL     1      43.418   2.701   9.344  0.00  0.00    +0.000 HD
BRANCH   9  11
ATOM     11  C   UNL     1      44.793   3.835   8.386  0.00  0.00    +0.000 C 
BRANCH  11  12
ATOM     12  C   UNL     1      45.835   2.930   7.781  0.00  0.00    +0.000 A 
ATOM     13  C   UNL     1      46.005   1.624   8.249  0.00  0.00    +0.000 A 
ATOM     14  C   UNL     1      46.975   0.827   7.657  0.00  0.00    +0.000 A 
ATOM     15  N   UNL     1      47.774   1.236   6.648  0.00  0.00    +0.000 NA
ATOM     16  C   UNL     1      47.596   2.502   6.213  0.00  0.00    +0.000 A 
ATOM     17  C   UNL     1      46.652   3.374   6.737  0.00  0.00    +0.000 A 
ENDBRANCH  11  12
ENDBRANCH   9  11
ENDBRANCH   8   9
ENDBRANCH   6   8
ENDBRANCH   1   2
BRANCH   1  20
ATOM     18  O   UNL     1      48.468   3.373  16.561  0.00  0.00    +0.000 OA
ATOM     19  C   UNL     1      48.176   4.555  16.425  0.00  0.00    +0.000 C 
ATOM     20  N   UNL     1      47.380   5.045  15.414  0.00  0.00    +0.000 N 
ATOM     21  H   UNL     1      46.989   5.970  15.534  0.00  0.00    +0.000 HD
BRANCH  19  22
ATOM     22  C   UNL     1      48.423   5.565  17.445  0.00  0.00    +0.000 A 
ATOM     23  C   UNL     1      48.132   5.355  18.781  0.00  0.00    +0.000 A 
ATOM     24  S   UNL     1      47.877   6.842  19.602  0.00  0.00    +0.000 S 
ATOM     25  C   UNL     1      48.339   7.743  18.228  0.00  0.00    +0.000 A 
ATOM     26  N   UNL     1      48.216   9.095  18.161  0.00  0.00    +0.000 NA
ATOM     27  C   UNL     1      48.683   9.616  17.072  0.00  0.00    +0.000 A 
ATOM     28  N   UNL     1      49.309   8.918  16.069  0.00  0.00    +0.000 N 
ATOM     29  C   UNL     1      49.446   7.548  16.086  0.00  0.00    +0.000 A 
ATOM     30  O   UNL     1      50.055   6.940  15.214  0.00  0.00    +0.000 OA
ATOM     31  C   UNL     1      48.821   6.923  17.233  0.00  0.00    +0.000 A 
ATOM     32  H   UNL     1      49.736   9.395  15.289  0.00  0.00    +0.000 HD
ENDBRANCH  19  22
ENDBRANCH   1  20
TORSDOF 7
ENDMDL
MODEL 5
REMARK VINA RESULT:    -7.628      1.744      2.397
REMARK INTER + INTRA:         -11.835
REMARK INTER:                 -11.341
REMARK INTRA:                  -0.494
REMARK UNBOUND:                -1.086
REMARK  Name = 
REMARK  7 active torsions:
REMARK  status: ('A' for Active; 'I' for Inactive)
REMARK    1  A    between atoms: C_2  and  C_20
REMARK    2  A    between atoms: N_3  and  C_4
REMARK    3  A    between atoms: C_4  and  C_5
REMARK    4  A    between atoms: C_9  and  C_10
REMARK    5  A    between atoms: C_10  and  N_11
REMARK    6  A    between atoms: N_11  and  C_12
REMARK    7  A    between atoms: C_12  and  C_13
REMARK                            x       y       z     vdW  Elec       q    Type
REMARK                         _______ _______ _______ _____ _____    ______ ____
ROOT
ATOM      1  C   UNL     1      47.417   6.550  13.519  0.00  0.00    +0.000 C 
ENDROOT
BRANCH   1   2
ATOM      2  C   UNL     1      46.603   5.421  12.926  0.00  0.00    +0.000 A 
ATOM      3  C   UNL     1      46.644   4.160  13.487  0.00  0.00    +0.000 A 
ATOM      4  C   UNL     1      45.845   3.208  12.902  0.00  0.00    +0.000 A 
ATOM      5  N   UNL     1      45.045   3.451  11.850  0.00  0.00    +0.000 NA
ATOM      6  C   UNL     1      45.021   4.723  11.387  0.00  0.00    +0.000 A 
ATOM      7  N   UNL     1      45.776   5.727  11.893  0.00  0.00    +0.000 NA
BRANCH   6   8
ATOM      8  C   UNL     1      44.096   5.046  10.228  0.00  0.00    +0.000 C 
BRANCH   8   9
ATOM      9  N   UNL     1      44.496   4.514   8.908  0.00  0.00    +0.000 NA
ATOM     10  H   UNL     1      45.462   4.811   8.751  0.00  0.00    +0.000 HD
BRANCH   9  11
ATOM     11  C   UNL     1      44.483   3.045   8.888  0.00  0.00    +0.000 C 
BRANCH  11  12
ATOM     12  C   UNL     1      45.692   2.511   8.166  0.00  0.00    +0.000 A 
ATOM     13  C   UNL     1      46.540   3.370   7.460  0.00  0.00    +0.000 A 
ATOM     14  C   UNL     1      47.643   2.832   6.814  0.00  0.00    +0.000 A 
ATOM     15  N   UNL     1      47.954   1.518   6.821  0.00  0.00    +0.000 NA
ATOM     16  C   UNL     1      47.122   0.705   7.505  0.00  0.00    +0.000 A 
ATOM     17  C   UNL     1      45.996   1.146   8.186  0.00  0.00    +0.000 A 
ENDBRANCH  11  12
ENDBRANCH   9  11
ENDBRANCH   8   9
ENDBRANCH   6   8
ENDBRANCH   1   2
BRANCH   1  20
ATOM     18  O   UNL     1      48.557   8.263  15.486  0.00  0.00    +0.000 OA
ATOM     19  C   UNL     1      48.612   7.046  15.615  0.00  0.00    +0.000 C 
ATOM     20  N   UNL     1      47.971   6.150  14.789  0.00  0.00    +0.000 N 
ATOM     21  H   UNL     1      48.282   5.188  14.813  0.00  0.00    +0.000 HD
BRANCH  19  22
ATOM     22  C   UNL     1      49.552   6.374  16.501  0.00  0.00    +0.000 A 
ATOM     23  C   UNL     1      50.783   6.917  16.824  0.00  0.00    +0.000 A 
ATOM     24  S   UNL     1      51.899   5.695  17.282  0.00  0.00    +0.000 S 
ATOM     25  C   UNL     1      50.689   4.492  17.229  0.00  0.00    +0.000 A 
ATOM     26  N   UNL     1      50.963   3.168  17.363  0.00  0.00    +0.000 NA
ATOM     27  C   UNL     1      49.916   2.408  17.370  0.00  0.00    +0.000 A 
ATOM     28  N   UNL     1      48.618   2.853  17.307  0.00  0.00    +0.000 N 
ATOM     29  C   UNL     1      48.291   4.183  17.159  0.00  0.00    +0.000 A 
ATOM     30  O   UNL     1      47.131   4.575  17.160  0.00  0.00    +0.000 OA
ATOM     31  C   UNL     1      49.446   5.045  17.021  0.00  0.00    +0.000 A 
ATOM     32  H   UNL     1      47.843   2.216  17.413  0.00  0.00    +0.000 HD
ENDBRANCH  19  22
ENDBRANCH   1  20
TORSDOF 7
ENDMDL
MODEL 6
REMARK VINA RESULT:    -7.511      2.282      3.171
REMARK INTER + INTRA:         -11.670
REMARK INTER:                 -10.810
REMARK INTRA:                  -0.860
REMARK UNBOUND:                -1.086
REMARK  Name = 
REMARK  7 active torsions:
REMARK  status: ('A' for Active; 'I' for Inactive)
REMARK    1  A    between atoms: C_2  and  C_20
REMARK    2  A    between atoms: N_3  and  C_4
REMARK    3  A    between atoms: C_4  and  C_5
REMARK    4  A    between atoms: C_9  and  C_10
REMARK    5  A    between atoms: C_10  and  N_11
REMARK    6  A    between atoms: N_11  and  C_12
REMARK    7  A    between atoms: C_12  and  C_13
REMARK                            x       y       z     vdW  Elec       q    Type
REMARK                         _______ _______ _______ _____ _____    ______ ____
ROOT
ATOM      1  C   UNL     1      47.996   6.812  13.656  0.00  0.00    +0.000 C 
ENDROOT
BRANCH   1   2
ATOM      2  C   UNL     1      47.067   5.755  13.099  0.00  0.00    +0.000 A 
ATOM      3  C   UNL     1      46.874   4.568  13.775  0.00  0.00    +0.000 A 
ATOM      4  C   UNL     1      45.985   3.685  13.212  0.00  0.00    +0.000 A 
ATOM      5  N   UNL     1      45.312   3.929  12.074  0.00  0.00    +0.000 NA
ATOM      6  C   UNL     1      45.517   5.135  11.496  0.00  0.00    +0.000 A 
ATOM      7  N   UNL     1      46.376   6.068  11.973  0.00  0.00    +0.000 NA
BRANCH   6   8
ATOM      8  C   UNL     1      44.740   5.466  10.234  0.00  0.00    +0.000 C 
BRANCH   8   9
ATOM      9  N   UNL     1      45.318   4.973   8.967  0.00  0.00    +0.000 NA
ATOM     10  H   UNL     1      46.328   4.897   9.113  0.00  0.00    +0.000 HD
BRANCH   9  11
ATOM     11  C   UNL     1      44.826   3.631   8.631  0.00  0.00    +0.000 C 
BRANCH  11  12
ATOM     12  C   UNL     1      45.914   2.806   7.995  0.00  0.00    +0.000 A 
ATOM     13  C   UNL     1      45.977   1.425   8.200  0.00  0.00    +0.000 A 
ATOM     14  C   UNL     1      46.996   0.708   7.589  0.00  0.00    +0.000 A 
ATOM     15  N   UNL     1      47.942   1.264   6.802  0.00  0.00    +0.000 NA
ATOM     16  C   UNL     1      47.866   2.599   6.619  0.00  0.00    +0.000 A 
ATOM     17  C   UNL     1      46.885   3.402   7.183  0.00  0.00    +0.000 A 
ENDBRANCH  11  12
ENDBRANCH   9  11
ENDBRANCH   8   9
ENDBRANCH   6   8
ENDBRANCH   1   2
BRANCH   1  20
ATOM     18  O   UNL     1      50.389   6.872  15.197  0.00  0.00    +0.000 OA
ATOM     19  C   UNL     1      49.318   6.597  15.723  0.00  0.00    +0.000 C 
ATOM     20  N   UNL     1      48.099   6.679  15.088  0.00  0.00    +0.000 N 
ATOM     21  H   UNL     1      47.319   6.191  15.509  0.00  0.00    +0.000 HD
BRANCH  19  22
ATOM     22  C   UNL     1      49.205   5.916  17.006  0.00  0.00    +0.000 A 
ATOM     23  C   UNL     1      49.213   4.536  17.114  0.00  0.00    +0.000 A 
ATOM     24  S   UNL     1      48.417   4.022  18.546  0.00  0.00    +0.000 S 
ATOM     25  C   UNL     1      48.240   5.630  19.091  0.00  0.00    +0.000 A 
ATOM     26  N   UNL     1      47.508   5.957  20.189  0.00  0.00    +0.000 NA
ATOM     27  C   UNL     1      47.545   7.214  20.495  0.00  0.00    +0.000 A 
ATOM     28  N   UNL     1      48.287   8.164  19.838  0.00  0.00    +0.000 N 
ATOM     29  C   UNL     1      49.034   7.883  18.715  0.00  0.00    +0.000 A 
ATOM     30  O   UNL     1      49.737   8.726  18.169  0.00  0.00    +0.000 OA
ATOM     31  C   UNL     1      48.911   6.510  18.273  0.00  0.00    +0.000 A 
ATOM     32  H   UNL     1      48.348   9.110  20.184  0.00  0.00    +0.000 HD
ENDBRANCH  19  22
ENDBRANCH   1  20
TORSDOF 7
ENDMDL
MODEL 7
REMARK VINA RESULT:    -7.190      2.498      3.618
REMARK INTER + INTRA:         -11.217
REMARK INTER:                 -10.323
REMARK INTRA:                  -0.895
REMARK UNBOUND:                -1.086
REMARK  Name = 
REMARK  7 active torsions:
REMARK  status: ('A' for Active; 'I' for Inactive)
REMARK    1  A    between atoms: C_2  and  C_20
REMARK    2  A    between atoms: N_3  and  C_4
REMARK    3  A    between atoms: C_4  and  C_5
REMARK    4  A    between atoms: C_9  and  C_10
REMARK    5  A    between atoms: C_10  and  N_11
REMARK    6  A    between atoms: N_11  and  C_12
REMARK    7  A    between atoms: C_12  and  C_13
REMARK                            x       y       z     vdW  Elec       q    Type
REMARK                         _______ _______ _______ _____ _____    ______ ____
ROOT
ATOM      1  C   UNL     1      46.953   4.975  14.242  0.00  0.00    +0.000 C 
ENDROOT
BRANCH   1   2
ATOM      2  C   UNL     1      45.862   5.265  13.235  0.00  0.00    +0.000 A 
ATOM      3  C   UNL     1      45.587   6.563  12.855  0.00  0.00    +0.000 A 
ATOM      4  C   UNL     1      44.605   6.726  11.909  0.00  0.00    +0.000 A 
ATOM      5  N   UNL     1      43.933   5.705  11.350  0.00  0.00    +0.000 NA
ATOM      6  C   UNL     1      44.293   4.458  11.736  0.00  0.00    +0.000 A 
ATOM      7  N   UNL     1      45.244   4.198  12.665  0.00  0.00    +0.000 NA
BRANCH   6   8
ATOM      8  C   UNL     1      43.588   3.278  11.093  0.00  0.00    +0.000 C 
BRANCH   8   9
ATOM      9  N   UNL     1      44.397   2.464  10.162  0.00  0.00    +0.000 NA
ATOM     10  H   UNL     1      43.858   1.617   9.966  0.00  0.00    +0.000 HD
BRANCH   9  11
ATOM     11  C   UNL     1      44.608   3.152   8.882  0.00  0.00    +0.000 C 
BRANCH  11  12
ATOM     12  C   UNL     1      45.774   2.554   8.140  0.00  0.00    +0.000 A 
ATOM     13  C   UNL     1      46.651   3.365   7.413  0.00  0.00    +0.000 A 
ATOM     14  C   UNL     1      47.713   2.767   6.750  0.00  0.00    +0.000 A 
ATOM     15  N   UNL     1      47.957   1.439   6.760  0.00  0.00    +0.000 NA
ATOM     16  C   UNL     1      47.098   0.673   7.464  0.00  0.00    +0.000 A 
ATOM     17  C   UNL     1      46.009   1.175   8.163  0.00  0.00    +0.000 A 
ENDBRANCH  11  12
ENDBRANCH   9  11
ENDBRANCH   8   9
ENDBRANCH   6   8
ENDBRANCH   1   2
BRANCH   1  20
ATOM     18  O   UNL     1      48.405   6.151  16.390  0.00  0.00    +0.000 OA
ATOM     19  C   UNL     1      48.558   6.553  15.243  0.00  0.00    +0.000 C 
ATOM     20  N   UNL     1      48.004   5.956  14.132  0.00  0.00    +0.000 N 
ATOM     21  H   UNL     1      47.968   6.498  13.279  0.00  0.00    +0.000 HD
BRANCH  19  22
ATOM     22  C   UNL     1      49.136   7.849  14.916  0.00  0.00    +0.000 A 
ATOM     23  C   UNL     1      48.362   8.933  14.542  0.00  0.00    +0.000 A 
ATOM     24  S   UNL     1      49.268  10.048  13.601  0.00  0.00    +0.000 S 
ATOM     25  C   UNL     1      50.713   9.178  13.863  0.00  0.00    +0.000 A 
ATOM     26  N   UNL     1      51.876   9.476  13.224  0.00  0.00    +0.000 NA
ATOM     27  C   UNL     1      52.885   8.759  13.599  0.00  0.00    +0.000 A 
ATOM     28  N   UNL     1      52.853   7.808  14.589  0.00  0.00    +0.000 N 
ATOM     29  C   UNL     1      51.697   7.463  15.256  0.00  0.00    +0.000 A 
ATOM     30  O   UNL     1      51.689   6.654  16.176  0.00  0.00    +0.000 OA
ATOM     31  C   UNL     1      50.525   8.159  14.769  0.00  0.00    +0.000 A 
ATOM     32  H   UNL     1      53.696   7.350  14.901  0.00  0.00    +0.000 HD
ENDBRANCH  19  22
ENDBRANCH   1  20
TORSDOF 7
ENDMDL
MODEL 8
REMARK VINA RESULT:    -6.837      3.594      7.415
REMARK INTER + INTRA:         -10.721
REMARK INTER:                  -9.643
REMARK INTRA:                  -1.078
REMARK UNBOUND:                -1.086
REMARK  Name = 
REMARK  7 active torsions:
REMARK  status: ('A' for Active; 'I' for Inactive)
REMARK    1  A    between atoms: C_2  and  C_20
REMARK    2  A    between atoms: N_3  and  C_4
REMARK    3  A    between atoms: C_4  and  C_5
REMARK    4  A    between atoms: C_9  and  C_10
REMARK    5  A    between atoms: C_10  and  N_11
REMARK    6  A    between atoms: N_11  and  C_12
REMARK    7  A    between atoms: C_12  and  C_13
REMARK                            x       y       z     vdW  Elec       q    Type
REMARK                         _______ _______ _______ _____ _____    ______ ____
ROOT
ATOM      1  C   UNL     1      47.408   4.289  16.591  0.00  0.00    +0.000 C 
ENDROOT
BRANCH   1   2
ATOM      2  C   UNL     1      48.684   5.102  16.606  0.00  0.00    +0.000 A 
ATOM      3  C   UNL     1      49.737   4.736  17.419  0.00  0.00    +0.000 A 
ATOM      4  C   UNL     1      50.867   5.513  17.338  0.00  0.00    +0.000 A 
ATOM      5  N   UNL     1      50.986   6.572  16.519  0.00  0.00    +0.000 NA
ATOM      6  C   UNL     1      49.929   6.839  15.716  0.00  0.00    +0.000 A 
ATOM      7  N   UNL     1      48.773   6.134  15.727  0.00  0.00    +0.000 NA
BRANCH   6   8
ATOM      8  C   UNL     1      50.043   8.000  14.744  0.00  0.00    +0.000 C 
BRANCH   8   9
ATOM      9  N   UNL     1      50.908   7.780  13.566  0.00  0.00    +0.000 NA
ATOM     10  H   UNL     1      51.379   6.883  13.709  0.00  0.00    +0.000 HD
BRANCH   9  11
ATOM     11  C   UNL     1      50.123   7.667  12.330  0.00  0.00    +0.000 C 
BRANCH  11  12
ATOM     12  C   UNL     1      50.015   9.002  11.642  0.00  0.00    +0.000 A 
ATOM     13  C   UNL     1      51.125   9.575  11.015  0.00  0.00    +0.000 A 
ATOM     14  C   UNL     1      50.975  10.805  10.391  0.00  0.00    +0.000 A 
ATOM     15  N   UNL     1      49.814  11.493  10.352  0.00  0.00    +0.000 NA
ATOM     16  C   UNL     1      48.755  10.926  10.966  0.00  0.00    +0.000 A 
ATOM     17  C   UNL     1      48.802   9.699  11.614  0.00  0.00    +0.000 A 
ENDBRANCH  11  12
ENDBRANCH   9  11
ENDBRANCH   8   9
ENDBRANCH   6   8
ENDBRANCH   1   2
BRANCH   1  20
ATOM     18  O   UNL     1      47.301   2.997  14.056  0.00  0.00    +0.000 OA
ATOM     19  C   UNL     1      46.705   4.052  14.242  0.00  0.00    +0.000 C 
ATOM     20  N   UNL     1      46.589   4.671  15.467  0.00  0.00    +0.000 N 
ATOM     21  H   UNL     1      46.314   5.644  15.474  0.00  0.00    +0.000 HD
BRANCH  19  22
ATOM     22  C   UNL     1      46.250   4.918  13.163  0.00  0.00    +0.000 A 
ATOM     23  C   UNL     1      46.953   6.043  12.771  0.00  0.00    +0.000 A 
ATOM     24  S   UNL     1      45.920   7.188  12.016  0.00  0.00    +0.000 S 
ATOM     25  C   UNL     1      44.602   6.103  12.049  0.00  0.00    +0.000 A 
ATOM     26  N   UNL     1      43.341   6.469  11.700  0.00  0.00    +0.000 NA
ATOM     27  C   UNL     1      42.484   5.498  11.716  0.00  0.00    +0.000 A 
ATOM     28  N   UNL     1      42.782   4.188  11.997  0.00  0.00    +0.000 N 
ATOM     29  C   UNL     1      44.042   3.772  12.367  0.00  0.00    +0.000 A 
ATOM     30  O   UNL     1      44.311   2.592  12.561  0.00  0.00    +0.000 OA
ATOM     31  C   UNL     1      44.994   4.856  12.482  0.00  0.00    +0.000 A 
ATOM     32  H   UNL     1      42.088   3.463  11.900  0.00  0.00    +0.000 HD
ENDBRANCH  19  22
ENDBRANCH   1  20
TORSDOF 7
ENDMDL
MODEL 9
REMARK VINA RESULT:    -6.832      3.604      7.151
REMARK INTER + INTRA:         -10.714
REMARK INTER:                  -9.738
REMARK INTRA:                  -0.976
REMARK UNBOUND:                -1.086
REMARK  Name = 
REMARK  7 active torsions:
REMARK  status: ('A' for Active; 'I' for Inactive)
REMARK    1  A    between atoms: C_2  and  C_20
REMARK    2  A    between atoms: N_3  and  C_4
REMARK    3  A    between atoms: C_4  and  C_5
REMARK    4  A    between atoms: C_9  and  C_10
REMARK    5  A    between atoms: C_10  and  N_11
REMARK    6  A    between atoms: N_11  and  C_12
REMARK    7  A    between atoms: C_12  and  C_13
REMARK                            x       y       z     vdW  Elec       q    Type
REMARK                         _______ _______ _______ _____ _____    ______ ____
ROOT
ATOM      1  C   UNL     1      47.455   4.389  16.493  0.00  0.00    +0.000 C 
ENDROOT
BRANCH   1   2
ATOM      2  C   UNL     1      48.732   5.200  16.490  0.00  0.00    +0.000 A 
ATOM      3  C   UNL     1      49.764   4.884  17.350  0.00  0.00    +0.000 A 
ATOM      4  C   UNL     1      50.897   5.654  17.251  0.00  0.00    +0.000 A 
ATOM      5  N   UNL     1      51.038   6.661  16.372  0.00  0.00    +0.000 NA
ATOM      6  C   UNL     1      50.003   6.879  15.528  0.00  0.00    +0.000 A 
ATOM      7  N   UNL     1      48.845   6.177  15.553  0.00  0.00    +0.000 NA
BRANCH   6   8
ATOM      8  C   UNL     1      50.143   7.978  14.491  0.00  0.00    +0.000 C 
BRANCH   8   9
ATOM      9  N   UNL     1      50.267   7.536  13.086  0.00  0.00    +0.000 NA
ATOM     10  H   UNL     1      49.500   6.880  12.914  0.00  0.00    +0.000 HD
BRANCH   9  11
ATOM     11  C   UNL     1      50.102   8.653  12.148  0.00  0.00    +0.000 C 
BRANCH  11  12
ATOM     12  C   UNL     1      51.136   8.590  11.055  0.00  0.00    +0.000 A 
ATOM     13  C   UNL     1      51.534   7.362  10.517  0.00  0.00    +0.000 A 
ATOM     14  C   UNL     1      52.486   7.356   9.509  0.00  0.00    +0.000 A 
ATOM     15  N   UNL     1      53.063   8.470   9.009  0.00  0.00    +0.000 NA
ATOM     16  C   UNL     1      52.668   9.645   9.543  0.00  0.00    +0.000 A 
ATOM     17  C   UNL     1      51.721   9.757  10.551  0.00  0.00    +0.000 A 
ENDBRANCH  11  12
ENDBRANCH   9  11
ENDBRANCH   8   9
ENDBRANCH   6   8
ENDBRANCH   1   2
BRANCH   1  20
ATOM     18  O   UNL     1      47.248   2.980  14.028  0.00  0.00    +0.000 OA
ATOM     19  C   UNL     1      46.702   4.068  14.170  0.00  0.00    +0.000 C 
ATOM     20  N   UNL     1      46.634   4.751  15.364  0.00  0.00    +0.000 N 
ATOM     21  H   UNL     1      46.402   5.734  15.327  0.00  0.00    +0.000 HD
BRANCH  19  22
ATOM     22  C   UNL     1      46.266   4.899  13.057  0.00  0.00    +0.000 A 
ATOM     23  C   UNL     1      47.012   5.970  12.597  0.00  0.00    +0.000 A 
ATOM     24  S   UNL     1      46.017   7.122  11.802  0.00  0.00    +0.000 S 
ATOM     25  C   UNL     1      44.653   6.102  11.911  0.00  0.00    +0.000 A 
ATOM     26  N   UNL     1      43.403   6.507  11.565  0.00  0.00    +0.000 NA
ATOM     27  C   UNL     1      42.504   5.580  11.644  0.00  0.00    +0.000 A 
ATOM     28  N   UNL     1      42.748   4.273  11.986  0.00  0.00    +0.000 N 
ATOM     29  C   UNL     1      43.994   3.818  12.356  0.00  0.00    +0.000 A 
ATOM     30  O   UNL     1      44.213   2.638  12.605  0.00  0.00    +0.000 OA
ATOM     31  C   UNL     1      44.996   4.862  12.400  0.00  0.00    +0.000 A 
ATOM     32  H   UNL     1      42.020   3.576  11.937  0.00  0.00    +0.000 HD
ENDBRANCH  19  22
ENDBRANCH   1  20
TORSDOF 7
ENDMDL
