MODEL 1
REMARK VINA RESULT:    -8.807      0.000      0.000
REMARK INTER + INTRA:         -12.714
REMARK INTER:                 -11.896
REMARK INTRA:                  -0.817
REMARK UNBOUND:                -0.817
REMARK  Name = 
REMARK  6 active torsions:
REMARK  status: ('A' for Active; 'I' for Inactive)
REMARK    1  A    between atoms: C_2  and  C_20
REMARK    2  A    between atoms: N_3  and  C_4
REMARK    3  A    between atoms: C_4  and  C_5
REMARK    4  A    between atoms: C_8  and  C_9
REMARK    5  A    between atoms: C_9  and  C_10
REMARK    6  A    between atoms: C_10  and  N_11
REMARK                            x       y       z     vdW  Elec       q    Type
REMARK                         _______ _______ _______ _____ _____    ______ ____
ROOT
ATOM      1  C   UNL     1      46.334   7.259  12.487  0.00  0.00    +0.000 A 
ATOM      2  C   UNL     1      47.420   6.388  12.630  0.00  0.00    +0.000 A 
ATOM      3  C   UNL     1      48.463   6.685  13.514  0.00  0.00    +0.000 A 
ATOM      4  C   UNL     1      48.444   7.854  14.288  0.00  0.00    +0.000 A 
ATOM      5  C   UNL     1      47.345   8.716  14.151  0.00  0.00    +0.000 A 
ATOM      6  C   UNL     1      46.301   8.419  13.267  0.00  0.00    +0.000 A 
ENDROOT
BRANCH   1   7
ATOM      7  C   UNL     1      45.228   6.954  11.513  0.00  0.00    +0.000 C 
BRANCH   7  10
ATOM      8  O   UNL     1      42.960   5.575  10.635  0.00  0.00    +0.000 OA
ATOM      9  C   UNL     1      44.048   5.004  10.617  0.00  0.00    +0.000 C 
ATOM     10  N   UNL     1      45.197   5.565  11.135  0.00  0.00    +0.000 N 
ATOM     11  H   UNL     1      46.056   5.044  10.987  0.00  0.00    +0.000 HD
BRANCH   9  12
ATOM     12  C   UNL     1      44.270   3.713   9.944  0.00  0.00    +0.000 A 
ATOM     13  N   UNL     1      43.766   2.559  10.440  0.00  0.00    +0.000 NA
ATOM     14  N   UNL     1      44.395   1.608   9.725  0.00  0.00    +0.000 N 
ATOM     15  C   UNL     1      45.318   2.089   8.838  0.00  0.00    +0.000 A 
ATOM     16  C   UNL     1      46.297   1.451   8.070  0.00  0.00    +0.000 A 
ATOM     17  C   UNL     1      47.053   2.253   7.210  0.00  0.00    +0.000 A 
ATOM     18  C   UNL     1      46.799   3.620   7.090  0.00  0.00    +0.000 A 
ATOM     19  C   UNL     1      45.846   4.245   7.903  0.00  0.00    +0.000 A 
ATOM     20  C   UNL     1      45.129   3.465   8.831  0.00  0.00    +0.000 A 
ATOM     21  H   UNL     1      44.178   0.637   9.919  0.00  0.00    +0.000 HD
ENDBRANCH   9  12
ENDBRANCH   7  10
ENDBRANCH   1   7
BRANCH   4  22
ATOM     22  C   UNL     1      49.548   8.231  15.262  0.00  0.00    +0.000 C 
BRANCH  22  23
ATOM     23  C   UNL     1      49.695   7.296  16.469  0.00  0.00    +0.000 C 
BRANCH  23  24
ATOM     24  N   UNL     1      48.405   6.737  16.894  0.00  0.00    +0.000 N 
ATOM     25  C   UNL     1      48.457   5.325  16.956  0.00  0.00    +0.000 A 
ATOM     26  C   UNL     1      47.307   4.633  17.330  0.00  0.00    +0.000 A 
ATOM     27  C   UNL     1      47.340   3.245  17.400  0.00  0.00    +0.000 A 
ATOM     28  C   UNL     1      48.523   2.601  17.097  0.00  0.00    +0.000 A 
ATOM     29  N   UNL     1      49.632   3.271  16.748  0.00  0.00    +0.000 NA
ATOM     30  N   UNL     1      49.594   4.642  16.688  0.00  0.00    +0.000 NA
ATOM     31  H   UNL     1      47.650   7.005  16.268  0.00  0.00    +0.000 HD
ENDBRANCH  23  24
ENDBRANCH  22  23
ENDBRANCH   4  22
TORSDOF 6
ENDMDL
MODEL 2
REMARK VINA RESULT:    -8.262      2.096      8.329
REMARK INTER + INTRA:         -11.977
REMARK INTER:                 -10.964
REMARK INTRA:                  -1.014
REMARK UNBOUND:                -0.817
REMARK  Name = 
REMARK  6 active torsions:
REMARK  status: ('A' for Active; 'I' for Inactive)
REMARK    1  A    between atoms: C_2  and  C_20
REMARK    2  A    between atoms: N_3  and  C_4
REMARK    3  A    between atoms: C_4  and  C_5
REMARK    4  A    between atoms: C_8  and  C_9
REMARK    5  A    between atoms: C_9  and  C_10
REMARK    6  A    between atoms: C_10  and  N_11
REMARK                            x       y       z     vdW  Elec       q    Type
REMARK                         _______ _______ _______ _____ _____    ______ ____
ROOT
ATOM      1  C   UNL     1      46.615   6.707  12.731  0.00  0.00    +0.000 A 
ATOM      2  C   UNL     1      45.580   7.163  11.908  0.00  0.00    +0.000 A 
ATOM      3  C   UNL     1      44.593   6.284  11.449  0.00  0.00    +0.000 A 
ATOM      4  C   UNL     1      44.607   4.928  11.808  0.00  0.00    +0.000 A 
ATOM      5  C   UNL     1      45.640   4.481  12.645  0.00  0.00    +0.000 A 
ATOM      6  C   UNL     1      46.627   5.360  13.106  0.00  0.00    +0.000 A 
ENDROOT
BRANCH   1   7
ATOM      7  C   UNL     1      47.694   7.647  13.200  0.00  0.00    +0.000 C 
BRANCH   7  10
ATOM      8  O   UNL     1      48.232   8.642  15.757  0.00  0.00    +0.000 OA
ATOM      9  C   UNL     1      48.695   7.551  15.432  0.00  0.00    +0.000 C 
ATOM     10  N   UNL     1      48.577   7.035  14.158  0.00  0.00    +0.000 N 
ATOM     11  H   UNL     1      48.918   6.088  14.025  0.00  0.00    +0.000 HD
BRANCH   9  12
ATOM     12  C   UNL     1      49.328   6.627  16.390  0.00  0.00    +0.000 A 
ATOM     13  N   UNL     1      50.526   6.901  16.955  0.00  0.00    +0.000 NA
ATOM     14  N   UNL     1      50.877   5.736  17.529  0.00  0.00    +0.000 N 
ATOM     15  C   UNL     1      49.996   4.714  17.312  0.00  0.00    +0.000 A 
ATOM     16  C   UNL     1      50.081   3.340  17.558  0.00  0.00    +0.000 A 
ATOM     17  C   UNL     1      48.952   2.570  17.257  0.00  0.00    +0.000 A 
ATOM     18  C   UNL     1      47.780   3.162  16.784  0.00  0.00    +0.000 A 
ATOM     19  C   UNL     1      47.736   4.532  16.501  0.00  0.00    +0.000 A 
ATOM     20  C   UNL     1      48.888   5.311  16.725  0.00  0.00    +0.000 A 
ATOM     21  H   UNL     1      51.759   5.692  18.027  0.00  0.00    +0.000 HD
ENDBRANCH   9  12
ENDBRANCH   7  10
ENDBRANCH   1   7
BRANCH   4  22
ATOM     22  C   UNL     1      43.565   3.928  11.338  0.00  0.00    +0.000 C 
BRANCH  22  23
ATOM     23  C   UNL     1      44.033   2.974  10.232  0.00  0.00    +0.000 C 
BRANCH  23  24
ATOM     24  N   UNL     1      44.631   3.694   9.100  0.00  0.00    +0.000 N 
ATOM     25  C   UNL     1      45.516   2.861   8.375  0.00  0.00    +0.000 A 
ATOM     26  C   UNL     1      46.182   3.395   7.274  0.00  0.00    +0.000 A 
ATOM     27  C   UNL     1      47.053   2.591   6.549  0.00  0.00    +0.000 A 
ATOM     28  C   UNL     1      47.222   1.281   6.949  0.00  0.00    +0.000 A 
ATOM     29  N   UNL     1      46.571   0.765   8.003  0.00  0.00    +0.000 NA
ATOM     30  N   UNL     1      45.707   1.564   8.710  0.00  0.00    +0.000 NA
ATOM     31  H   UNL     1      45.141   4.520   9.401  0.00  0.00    +0.000 HD
ENDBRANCH  23  24
ENDBRANCH  22  23
ENDBRANCH   4  22
TORSDOF 6
ENDMDL
MODEL 3
REMARK VINA RESULT:    -7.940      2.875      9.388
REMARK INTER + INTRA:         -11.542
REMARK INTER:                 -10.843
REMARK INTRA:                  -0.699
REMARK UNBOUND:                -0.817
REMARK  Name = 
REMARK  6 active torsions:
REMARK  status: ('A' for Active; 'I' for Inactive)
REMARK    1  A    between atoms: C_2  and  C_20
REMARK    2  A    between atoms: N_3  and  C_4
REMARK    3  A    between atoms: C_4  and  C_5
REMARK    4  A    between atoms: C_8  and  C_9
REMARK    5  A    between atoms: C_9  and  C_10
REMARK    6  A    between atoms: C_10  and  N_11
REMARK                            x       y       z     vdW  Elec       q    Type
REMARK                         _______ _______ _______ _____ _____    ______ ____
ROOT
ATOM      1  C   UNL     1      47.036   5.766  13.507  0.00  0.00    +0.000 A 
ATOM      2  C   UNL     1      46.570   4.447  13.536  0.00  0.00    +0.000 A 
ATOM      3  C   UNL     1      45.515   4.044  12.711  0.00  0.00    +0.000 A 
ATOM      4  C   UNL     1      44.903   4.945  11.827  0.00  0.00    +0.000 A 
ATOM      5  C   UNL     1      45.385   6.262  11.792  0.00  0.00    +0.000 A 
ATOM      6  C   UNL     1      46.442   6.665  12.617  0.00  0.00    +0.000 A 
ENDROOT
BRANCH   1   7
ATOM      7  C   UNL     1      48.152   6.206  14.417  0.00  0.00    +0.000 C 
BRANCH   7  10
ATOM      8  O   UNL     1      50.007   5.420  16.356  0.00  0.00    +0.000 OA
ATOM      9  C   UNL     1      48.859   5.687  16.704  0.00  0.00    +0.000 C 
ATOM     10  N   UNL     1      47.851   5.973  15.805  0.00  0.00    +0.000 N 
ATOM     11  H   UNL     1      46.965   6.267  16.205  0.00  0.00    +0.000 HD
BRANCH   9  12
ATOM     12  C   UNL     1      48.459   5.842  18.113  0.00  0.00    +0.000 A 
ATOM     13  N   UNL     1      47.799   4.864  18.774  0.00  0.00    +0.000 NA
ATOM     14  N   UNL     1      47.385   5.470  19.902  0.00  0.00    +0.000 N 
ATOM     15  C   UNL     1      47.695   6.800  19.971  0.00  0.00    +0.000 A 
ATOM     16  C   UNL     1      47.290   7.809  20.852  0.00  0.00    +0.000 A 
ATOM     17  C   UNL     1      47.850   9.077  20.665  0.00  0.00    +0.000 A 
ATOM     18  C   UNL     1      48.809   9.303  19.677  0.00  0.00    +0.000 A 
ATOM     19  C   UNL     1      49.163   8.291  18.778  0.00  0.00    +0.000 A 
ATOM     20  C   UNL     1      48.551   7.028  18.902  0.00  0.00    +0.000 A 
ATOM     21  H   UNL     1      46.856   4.927  20.575  0.00  0.00    +0.000 HD
ENDBRANCH   9  12
ENDBRANCH   7  10
ENDBRANCH   1   7
BRANCH   4  22
ATOM     22  C   UNL     1      43.752   4.566  10.910  0.00  0.00    +0.000 C 
BRANCH  22  23
ATOM     23  C   UNL     1      44.078   3.486   9.871  0.00  0.00    +0.000 C 
BRANCH  23  24
ATOM     24  N   UNL     1      44.802   4.033   8.716  0.00  0.00    +0.000 N 
ATOM     25  C   UNL     1      45.647   3.058   8.135  0.00  0.00    +0.000 A 
ATOM     26  C   UNL     1      46.419   3.419   7.033  0.00  0.00    +0.000 A 
ATOM     27  C   UNL     1      47.253   2.473   6.447  0.00  0.00    +0.000 A 
ATOM     28  C   UNL     1      47.280   1.201   6.982  0.00  0.00    +0.000 A 
ATOM     29  N   UNL     1      46.526   0.854   8.036  0.00  0.00    +0.000 NA
ATOM     30  N   UNL     1      45.700   1.791   8.605  0.00  0.00    +0.000 NA
ATOM     31  H   UNL     1      45.367   4.840   8.968  0.00  0.00    +0.000 HD
ENDBRANCH  23  24
ENDBRANCH  22  23
ENDBRANCH   4  22
TORSDOF 6
ENDMDL
MODEL 4
REMARK VINA RESULT:    -7.337      4.098      8.148
REMARK INTER + INTRA:         -10.728
REMARK INTER:                 -10.300
REMARK INTRA:                  -0.428
REMARK UNBOUND:                -0.817
REMARK  Name = 
REMARK  6 active torsions:
REMARK  status: ('A' for Active; 'I' for Inactive)
REMARK    1  A    between atoms: C_2  and  C_20
REMARK    2  A    between atoms: N_3  and  C_4
REMARK    3  A    between atoms: C_4  and  C_5
REMARK    4  A    between atoms: C_8  and  C_9
REMARK    5  A    between atoms: C_9  and  C_10
REMARK    6  A    between atoms: C_10  and  N_11
REMARK                            x       y       z     vdW  Elec       q    Type
REMARK                         _______ _______ _______ _____ _____    ______ ____
ROOT
ATOM      1  C   UNL     1      45.917   7.589  12.507  0.00  0.00    +0.000 A 
ATOM      2  C   UNL     1      46.620   6.499  13.033  0.00  0.00    +0.000 A 
ATOM      3  C   UNL     1      46.298   5.191  12.654  0.00  0.00    +0.000 A 
ATOM      4  C   UNL     1      45.273   4.937  11.732  0.00  0.00    +0.000 A 
ATOM      5  C   UNL     1      44.581   6.035  11.198  0.00  0.00    +0.000 A 
ATOM      6  C   UNL     1      44.903   7.343  11.576  0.00  0.00    +0.000 A 
ENDROOT
BRANCH   1   7
ATOM      7  C   UNL     1      46.244   8.993  12.938  0.00  0.00    +0.000 C 
BRANCH   7  10
ATOM      8  O   UNL     1      46.745  11.431  11.663  0.00  0.00    +0.000 OA
ATOM      9  C   UNL     1      45.581  11.068  11.819  0.00  0.00    +0.000 C 
ATOM     10  N   UNL     1      45.237   9.940  12.534  0.00  0.00    +0.000 N 
ATOM     11  H   UNL     1      44.254   9.685  12.523  0.00  0.00    +0.000 HD
BRANCH   9  12
ATOM     12  C   UNL     1      44.437  11.731  11.169  0.00  0.00    +0.000 A 
ATOM     13  N   UNL     1      43.305  12.021  11.850  0.00  0.00    +0.000 NA
ATOM     14  N   UNL     1      42.431  12.353  10.881  0.00  0.00    +0.000 N 
ATOM     15  C   UNL     1      42.926  12.234   9.612  0.00  0.00    +0.000 A 
ATOM     16  C   UNL     1      42.308  12.288   8.359  0.00  0.00    +0.000 A 
ATOM     17  C   UNL     1      43.135  12.176   7.237  0.00  0.00    +0.000 A 
ATOM     18  C   UNL     1      44.520  12.070   7.370  0.00  0.00    +0.000 A 
ATOM     19  C   UNL     1      45.112  11.971   8.635  0.00  0.00    +0.000 A 
ATOM     20  C   UNL     1      44.286  12.003   9.775  0.00  0.00    +0.000 A 
ATOM     21  H   UNL     1      41.490  12.617  11.151  0.00  0.00    +0.000 HD
ENDBRANCH   9  12
ENDBRANCH   7  10
ENDBRANCH   1   7
BRANCH   4  22
ATOM     22  C   UNL     1      44.877   3.539  11.286  0.00  0.00    +0.000 C 
BRANCH  22  23
ATOM     23  C   UNL     1      44.201   3.463   9.912  0.00  0.00    +0.000 C 
BRANCH  23  24
ATOM     24  N   UNL     1      45.056   4.003   8.847  0.00  0.00    +0.000 N 
ATOM     25  C   UNL     1      45.815   2.978   8.233  0.00  0.00    +0.000 A 
ATOM     26  C   UNL     1      46.693   3.325   7.208  0.00  0.00    +0.000 A 
ATOM     27  C   UNL     1      47.444   2.331   6.591  0.00  0.00    +0.000 A 
ATOM     28  C   UNL     1      47.287   1.028   7.019  0.00  0.00    +0.000 A 
ATOM     29  N   UNL     1      46.432   0.697   7.999  0.00  0.00    +0.000 NA
ATOM     30  N   UNL     1      45.688   1.682   8.599  0.00  0.00    +0.000 NA
ATOM     31  H   UNL     1      45.696   4.712   9.195  0.00  0.00    +0.000 HD
ENDBRANCH  23  24
ENDBRANCH  22  23
ENDBRANCH   4  22
TORSDOF 6
ENDMDL
MODEL 5
REMARK VINA RESULT:    -7.324      4.200      5.708
REMARK INTER + INTRA:         -10.710
REMARK INTER:                  -9.864
REMARK INTRA:                  -0.846
REMARK UNBOUND:                -0.817
REMARK  Name = 
REMARK  6 active torsions:
REMARK  status: ('A' for Active; 'I' for Inactive)
REMARK    1  A    between atoms: C_2  and  C_20
REMARK    2  A    between atoms: N_3  and  C_4
REMARK    3  A    between atoms: C_4  and  C_5
REMARK    4  A    between atoms: C_8  and  C_9
REMARK    5  A    between atoms: C_9  and  C_10
REMARK    6  A    between atoms: C_10  and  N_11
REMARK                            x       y       z     vdW  Elec       q    Type
REMARK                         _______ _______ _______ _____ _____    ______ ____
ROOT
ATOM      1  C   UNL     1      47.581   6.197  13.654  0.00  0.00    +0.000 A 
ATOM      2  C   UNL     1      47.349   6.454  12.299  0.00  0.00    +0.000 A 
ATOM      3  C   UNL     1      48.187   7.313  11.581  0.00  0.00    +0.000 A 
ATOM      4  C   UNL     1      49.286   7.931  12.194  0.00  0.00    +0.000 A 
ATOM      5  C   UNL     1      49.522   7.658  13.550  0.00  0.00    +0.000 A 
ATOM      6  C   UNL     1      48.684   6.797  14.269  0.00  0.00    +0.000 A 
ENDROOT
BRANCH   1   7
ATOM      7  C   UNL     1      46.661   5.296  14.434  0.00  0.00    +0.000 C 
BRANCH   7  10
ATOM      8  O   UNL     1      44.097   5.710  13.396  0.00  0.00    +0.000 OA
ATOM      9  C   UNL     1      44.729   4.716  13.044  0.00  0.00    +0.000 C 
ATOM     10  N   UNL     1      45.950   4.373  13.588  0.00  0.00    +0.000 N 
ATOM     11  H   UNL     1      46.424   3.583  13.160  0.00  0.00    +0.000 HD
BRANCH   9  12
ATOM     12  C   UNL     1      44.310   3.848  11.930  0.00  0.00    +0.000 A 
ATOM     13  N   UNL     1      43.619   2.705  12.143  0.00  0.00    +0.000 NA
ATOM     14  N   UNL     1      43.666   2.082  10.951  0.00  0.00    +0.000 N 
ATOM     15  C   UNL     1      44.402   2.737  10.003  0.00  0.00    +0.000 A 
ATOM     16  C   UNL     1      44.853   2.348   8.738  0.00  0.00    +0.000 A 
ATOM     17  C   UNL     1      45.552   3.303   7.992  0.00  0.00    +0.000 A 
ATOM     18  C   UNL     1      45.740   4.599   8.474  0.00  0.00    +0.000 A 
ATOM     19  C   UNL     1      45.321   4.950   9.763  0.00  0.00    +0.000 A 
ATOM     20  C   UNL     1      44.684   3.978  10.558  0.00  0.00    +0.000 A 
ATOM     21  H   UNL     1      43.206   1.183  10.859  0.00  0.00    +0.000 HD
ENDBRANCH   9  12
ENDBRANCH   7  10
ENDBRANCH   1   7
BRANCH   4  22
ATOM     22  C   UNL     1      50.228   8.876  11.466  0.00  0.00    +0.000 C 
BRANCH  22  23
ATOM     23  C   UNL     1      51.691   8.420  11.413  0.00  0.00    +0.000 C 
BRANCH  23  24
ATOM     24  N   UNL     1      51.866   7.224  10.577  0.00  0.00    +0.000 N 
ATOM     25  C   UNL     1      52.494   7.546   9.351  0.00  0.00    +0.000 A 
ATOM     26  C   UNL     1      52.722   6.524   8.432  0.00  0.00    +0.000 A 
ATOM     27  C   UNL     1      53.342   6.821   7.223  0.00  0.00    +0.000 A 
ATOM     28  C   UNL     1      53.714   8.128   6.981  0.00  0.00    +0.000 A 
ATOM     29  N   UNL     1      53.504   9.108   7.873  0.00  0.00    +0.000 NA
ATOM     30  N   UNL     1      52.898   8.806   9.067  0.00  0.00    +0.000 NA
ATOM     31  H   UNL     1      50.979   6.769  10.374  0.00  0.00    +0.000 HD
ENDBRANCH  23  24
ENDBRANCH  22  23
ENDBRANCH   4  22
TORSDOF 6
ENDMDL
MODEL 6
REMARK VINA RESULT:    -7.263      2.916      9.579
REMARK INTER + INTRA:         -10.629
REMARK INTER:                  -9.921
REMARK INTRA:                  -0.708
REMARK UNBOUND:                -0.817
REMARK  Name = 
REMARK  6 active torsions:
REMARK  status: ('A' for Active; 'I' for Inactive)
REMARK    1  A    between atoms: C_2  and  C_20
REMARK    2  A    between atoms: N_3  and  C_4
REMARK    3  A    between atoms: C_4  and  C_5
REMARK    4  A    between atoms: C_8  and  C_9
REMARK    5  A    between atoms: C_9  and  C_10
REMARK    6  A    between atoms: C_10  and  N_11
REMARK                            x       y       z     vdW  Elec       q    Type
REMARK                         _______ _______ _______ _____ _____    ______ ____
ROOT
ATOM      1  C   UNL     1      46.639   4.608  13.957  0.00  0.00    +0.000 A 
ATOM      2  C   UNL     1      46.281   5.887  13.516  0.00  0.00    +0.000 A 
ATOM      3  C   UNL     1      45.412   6.051  12.432  0.00  0.00    +0.000 A 
ATOM      4  C   UNL     1      44.869   4.944  11.766  0.00  0.00    +0.000 A 
ATOM      5  C   UNL     1      45.221   3.664  12.222  0.00  0.00    +0.000 A 
ATOM      6  C   UNL     1      46.089   3.499  13.307  0.00  0.00    +0.000 A 
ENDROOT
BRANCH   1   7
ATOM      7  C   UNL     1      47.598   4.431  15.104  0.00  0.00    +0.000 C 
BRANCH   7  10
ATOM      8  O   UNL     1      48.227   4.766  17.808  0.00  0.00    +0.000 OA
ATOM      9  C   UNL     1      48.341   5.724  17.046  0.00  0.00    +0.000 C 
ATOM     10  N   UNL     1      47.947   5.682  15.725  0.00  0.00    +0.000 N 
ATOM     11  H   UNL     1      48.170   6.500  15.165  0.00  0.00    +0.000 HD
BRANCH   9  12
ATOM     12  C   UNL     1      49.010   6.980  17.427  0.00  0.00    +0.000 A 
ATOM     13  N   UNL     1      50.251   7.287  16.982  0.00  0.00    +0.000 NA
ATOM     14  N   UNL     1      50.607   8.338  17.742  0.00  0.00    +0.000 N 
ATOM     15  C   UNL     1      49.685   8.685  18.690  0.00  0.00    +0.000 A 
ATOM     16  C   UNL     1      49.747   9.564  19.776  0.00  0.00    +0.000 A 
ATOM     17  C   UNL     1      48.580   9.725  20.530  0.00  0.00    +0.000 A 
ATOM     18  C   UNL     1      47.396   9.078  20.174  0.00  0.00    +0.000 A 
ATOM     19  C   UNL     1      47.371   8.167  19.111  0.00  0.00    +0.000 A 
ATOM     20  C   UNL     1      48.557   7.932  18.389  0.00  0.00    +0.000 A 
ATOM     21  H   UNL     1      51.519   8.755  17.591  0.00  0.00    +0.000 HD
ENDBRANCH   9  12
ENDBRANCH   7  10
ENDBRANCH   1   7
BRANCH   4  22
ATOM     22  C   UNL     1      43.924   5.061  10.582  0.00  0.00    +0.000 C 
BRANCH  22  23
ATOM     23  C   UNL     1      44.058   3.952   9.531  0.00  0.00    +0.000 C 
BRANCH  23  24
ATOM     24  N   UNL     1      44.932   4.349   8.419  0.00  0.00    +0.000 N 
ATOM     25  C   UNL     1      45.741   3.268   7.996  0.00  0.00    +0.000 A 
ATOM     26  C   UNL     1      46.642   3.481   6.954  0.00  0.00    +0.000 A 
ATOM     27  C   UNL     1      47.443   2.429   6.522  0.00  0.00    +0.000 A 
ATOM     28  C   UNL     1      47.310   1.205   7.145  0.00  0.00    +0.000 A 
ATOM     29  N   UNL     1      46.433   1.001   8.140  0.00  0.00    +0.000 NA
ATOM     30  N   UNL     1      45.641   2.041   8.556  0.00  0.00    +0.000 NA
ATOM     31  H   UNL     1      45.538   5.126   8.670  0.00  0.00    +0.000 HD
ENDBRANCH  23  24
ENDBRANCH  22  23
ENDBRANCH   4  22
TORSDOF 6
ENDMDL
MODEL 7
REMARK VINA RESULT:    -7.197      2.242      2.514
REMARK INTER + INTRA:         -10.539
REMARK INTER:                  -9.860
REMARK INTRA:                  -0.679
REMARK UNBOUND:                -0.817
REMARK  Name = 
REMARK  6 active torsions:
REMARK  status: ('A' for Active; 'I' for Inactive)
REMARK    1  A    between atoms: C_2  and  C_20
REMARK    2  A    between atoms: N_3  and  C_4
REMARK    3  A    between atoms: C_4  and  C_5
REMARK    4  A    between atoms: C_8  and  C_9
REMARK    5  A    between atoms: C_9  and  C_10
REMARK    6  A    between atoms: C_10  and  N_11
REMARK                            x       y       z     vdW  Elec       q    Type
REMARK                         _______ _______ _______ _____ _____    ______ ____
ROOT
ATOM      1  C   UNL     1      46.495   7.053  12.508  0.00  0.00    +0.000 A 
ATOM      2  C   UNL     1      47.093   6.317  13.538  0.00  0.00    +0.000 A 
ATOM      3  C   UNL     1      48.374   6.642  13.997  0.00  0.00    +0.000 A 
ATOM      4  C   UNL     1      49.088   7.717  13.448  0.00  0.00    +0.000 A 
ATOM      5  C   UNL     1      48.477   8.460  12.426  0.00  0.00    +0.000 A 
ATOM      6  C   UNL     1      47.195   8.135  11.967  0.00  0.00    +0.000 A 
ENDROOT
BRANCH   1   7
ATOM      7  C   UNL     1      45.130   6.683  11.994  0.00  0.00    +0.000 C 
BRANCH   7  10
ATOM      8  O   UNL     1      42.924   5.517  10.732  0.00  0.00    +0.000 OA
ATOM      9  C   UNL     1      43.976   4.885  10.797  0.00  0.00    +0.000 C 
ATOM     10  N   UNL     1      45.077   5.333  11.496  0.00  0.00    +0.000 N 
ATOM     11  H   UNL     1      45.921   4.775  11.408  0.00  0.00    +0.000 HD
BRANCH   9  12
ATOM     12  C   UNL     1      44.216   3.640  10.046  0.00  0.00    +0.000 A 
ATOM     13  N   UNL     1      43.722   2.453  10.465  0.00  0.00    +0.000 NA
ATOM     14  N   UNL     1      44.365   1.555   9.697  0.00  0.00    +0.000 N 
ATOM     15  C   UNL     1      45.288   2.100   8.848  0.00  0.00    +0.000 A 
ATOM     16  C   UNL     1      46.278   1.521   8.049  0.00  0.00    +0.000 A 
ATOM     17  C   UNL     1      47.031   2.384   7.245  0.00  0.00    +0.000 A 
ATOM     18  C   UNL     1      46.763   3.753   7.209  0.00  0.00    +0.000 A 
ATOM     19  C   UNL     1      45.798   4.316   8.053  0.00  0.00    +0.000 A 
ATOM     20  C   UNL     1      45.084   3.472   8.926  0.00  0.00    +0.000 A 
ATOM     21  H   UNL     1      44.157   0.572   9.828  0.00  0.00    +0.000 HD
ENDBRANCH   9  12
ENDBRANCH   7  10
ENDBRANCH   1   7
BRANCH   4  22
ATOM     22  C   UNL     1      50.482   8.115  13.904  0.00  0.00    +0.000 C 
BRANCH  22  23
ATOM     23  C   UNL     1      50.527   9.197  14.990  0.00  0.00    +0.000 C 
BRANCH  23  24
ATOM     24  N   UNL     1      49.191   9.501  15.519  0.00  0.00    +0.000 N 
ATOM     25  C   UNL     1      49.054   9.045  16.851  0.00  0.00    +0.000 A 
ATOM     26  C   UNL     1      47.836   9.242  17.500  0.00  0.00    +0.000 A 
ATOM     27  C   UNL     1      47.685   8.803  18.810  0.00  0.00    +0.000 A 
ATOM     28  C   UNL     1      48.756   8.187  19.424  0.00  0.00    +0.000 A 
ATOM     29  N   UNL     1      49.931   8.009  18.800  0.00  0.00    +0.000 NA
ATOM     30  N   UNL     1      50.076   8.451  17.509  0.00  0.00    +0.000 NA
ATOM     31  H   UNL     1      48.454   9.082  14.958  0.00  0.00    +0.000 HD
ENDBRANCH  23  24
ENDBRANCH  22  23
ENDBRANCH   4  22
TORSDOF 6
ENDMDL
MODEL 8
REMARK VINA RESULT:    -7.155      4.274      6.602
REMARK INTER + INTRA:         -10.482
REMARK INTER:                  -9.899
REMARK INTRA:                  -0.583
REMARK UNBOUND:                -0.817
REMARK  Name = 
REMARK  6 active torsions:
REMARK  status: ('A' for Active; 'I' for Inactive)
REMARK    1  A    between atoms: C_2  and  C_20
REMARK    2  A    between atoms: N_3  and  C_4
REMARK    3  A    between atoms: C_4  and  C_5
REMARK    4  A    between atoms: C_8  and  C_9
REMARK    5  A    between atoms: C_9  and  C_10
REMARK    6  A    between atoms: C_10  and  N_11
REMARK                            x       y       z     vdW  Elec       q    Type
REMARK                         _______ _______ _______ _____ _____    ______ ____
ROOT
ATOM      1  C   UNL     1      48.697   3.700  17.204  0.00  0.00    +0.000 A 
ATOM      2  C   UNL     1      49.328   2.470  16.990  0.00  0.00    +0.000 A 
ATOM      3  C   UNL     1      50.697   2.317  17.237  0.00  0.00    +0.000 A 
ATOM      4  C   UNL     1      51.469   3.386  17.714  0.00  0.00    +0.000 A 
ATOM      5  C   UNL     1      50.827   4.613  17.941  0.00  0.00    +0.000 A 
ATOM      6  C   UNL     1      49.457   4.765  17.695  0.00  0.00    +0.000 A 
ENDROOT
BRANCH   1   7
ATOM      7  C   UNL     1      47.231   3.872  16.909  0.00  0.00    +0.000 C 
BRANCH   7  10
ATOM      8  O   UNL     1      47.343   3.019  14.248  0.00  0.00    +0.000 OA
ATOM      9  C   UNL     1      46.975   4.166  14.491  0.00  0.00    +0.000 C 
ATOM     10  N   UNL     1      46.996   4.707  15.760  0.00  0.00    +0.000 N 
ATOM     11  H   UNL     1      46.586   5.631  15.860  0.00  0.00    +0.000 HD
BRANCH   9  12
ATOM     12  C   UNL     1      46.367   5.048  13.480  0.00  0.00    +0.000 A 
ATOM     13  N   UNL     1      46.756   6.336  13.336  0.00  0.00    +0.000 NA
ATOM     14  N   UNL     1      45.812   6.862  12.534  0.00  0.00    +0.000 N 
ATOM     15  C   UNL     1      44.808   5.995  12.204  0.00  0.00    +0.000 A 
ATOM     16  C   UNL     1      43.574   6.191  11.575  0.00  0.00    +0.000 A 
ATOM     17  C   UNL     1      42.793   5.055  11.341  0.00  0.00    +0.000 A 
ATOM     18  C   UNL     1      43.256   3.781  11.673  0.00  0.00    +0.000 A 
ATOM     19  C   UNL     1      44.473   3.614  12.344  0.00  0.00    +0.000 A 
ATOM     20  C   UNL     1      45.237   4.755  12.659  0.00  0.00    +0.000 A 
ATOM     21  H   UNL     1      45.889   7.840  12.277  0.00  0.00    +0.000 HD
ENDBRANCH   9  12
ENDBRANCH   7  10
ENDBRANCH   1   7
BRANCH   4  22
ATOM     22  C   UNL     1      52.959   3.280  17.997  0.00  0.00    +0.000 C 
BRANCH  22  23
ATOM     23  C   UNL     1      53.447   1.881  18.390  0.00  0.00    +0.000 C 
BRANCH  23  24
ATOM     24  N   UNL     1      54.121   1.199  17.277  0.00  0.00    +0.000 N 
ATOM     25  C   UNL     1      54.310  -0.174  17.558  0.00  0.00    +0.000 A 
ATOM     26  C   UNL     1      54.950  -0.966  16.607  0.00  0.00    +0.000 A 
ATOM     27  C   UNL     1      55.142  -2.319  16.866  0.00  0.00    +0.000 A 
ATOM     28  C   UNL     1      54.682  -2.829  18.063  0.00  0.00    +0.000 A 
ATOM     29  N   UNL     1      54.056  -2.066  18.972  0.00  0.00    +0.000 NA
ATOM     30  N   UNL     1      53.864  -0.733  18.707  0.00  0.00    +0.000 NA
ATOM     31  H   UNL     1      55.026   1.613  17.068  0.00  0.00    +0.000 HD
ENDBRANCH  23  24
ENDBRANCH  22  23
ENDBRANCH   4  22
TORSDOF 6
ENDMDL
MODEL 9
REMARK VINA RESULT:    -6.993      3.943      8.064
REMARK INTER + INTRA:         -10.263
REMARK INTER:                  -9.412
REMARK INTRA:                  -0.851
REMARK UNBOUND:                -0.817
REMARK  Name = 
REMARK  6 active torsions:
REMARK  status: ('A' for Active; 'I' for Inactive)
REMARK    1  A    between atoms: C_2  and  C_20
REMARK    2  A    between atoms: N_3  and  C_4
REMARK    3  A    between atoms: C_4  and  C_5
REMARK    4  A    between atoms: C_8  and  C_9
REMARK    5  A    between atoms: C_9  and  C_10
REMARK    6  A    between atoms: C_10  and  N_11
REMARK                            x       y       z     vdW  Elec       q    Type
REMARK                         _______ _______ _______ _____ _____    ______ ____
ROOT
ATOM      1  C   UNL     1      46.416   7.693  12.282  0.00  0.00    +0.000 A 
ATOM      2  C   UNL     1      47.140   6.520  12.521  0.00  0.00    +0.000 A 
ATOM      3  C   UNL     1      46.503   5.274  12.519  0.00  0.00    +0.000 A 
ATOM      4  C   UNL     1      45.127   5.166  12.268  0.00  0.00    +0.000 A 
ATOM      5  C   UNL     1      44.410   6.345  12.015  0.00  0.00    +0.000 A 
ATOM      6  C   UNL     1      45.047   7.591  12.016  0.00  0.00    +0.000 A 
ENDROOT
BRANCH   1   7
ATOM      7  C   UNL     1      47.097   9.035  12.315  0.00  0.00    +0.000 C 
BRANCH   7  10
ATOM      8  O   UNL     1      48.628  10.773  10.748  0.00  0.00    +0.000 OA
ATOM      9  C   UNL     1      49.198   9.903  11.404  0.00  0.00    +0.000 C 
ATOM     10  N   UNL     1      48.519   8.934  12.113  0.00  0.00    +0.000 N 
ATOM     11  H   UNL     1      49.087   8.321  12.691  0.00  0.00    +0.000 HD
BRANCH   9  12
ATOM     12  C   UNL     1      50.658   9.866  11.595  0.00  0.00    +0.000 A 
ATOM     13  N   UNL     1      51.331  10.913  12.124  0.00  0.00    +0.000 NA
ATOM     14  N   UNL     1      52.621  10.611  11.886  0.00  0.00    +0.000 N 
ATOM     15  C   UNL     1      52.806   9.454  11.181  0.00  0.00    +0.000 A 
ATOM     16  C   UNL     1      53.939   8.901  10.575  0.00  0.00    +0.000 A 
ATOM     17  C   UNL     1      53.787   7.651   9.967  0.00  0.00    +0.000 A 
ATOM     18  C   UNL     1      52.571   6.968  10.016  0.00  0.00    +0.000 A 
ATOM     19  C   UNL     1      51.440   7.563  10.586  0.00  0.00    +0.000 A 
ATOM     20  C   UNL     1      51.555   8.855  11.134  0.00  0.00    +0.000 A 
ATOM     21  H   UNL     1      53.333  11.261  12.198  0.00  0.00    +0.000 HD
ENDBRANCH   9  12
ENDBRANCH   7  10
ENDBRANCH   1   7
BRANCH   4  22
ATOM     22  C   UNL     1      44.381   3.842  12.256  0.00  0.00    +0.000 C 
BRANCH  22  23
ATOM     23  C   UNL     1      43.766   3.455  10.906  0.00  0.00    +0.000 C 
BRANCH  23  24
ATOM     24  N   UNL     1      44.476   2.332  10.279  0.00  0.00    +0.000 N 
ATOM     25  C   UNL     1      45.236   2.766   9.167  0.00  0.00    +0.000 A 
ATOM     26  C   UNL     1      45.962   1.819   8.448  0.00  0.00    +0.000 A 
ATOM     27  C   UNL     1      46.717   2.227   7.354  0.00  0.00    +0.000 A 
ATOM     28  C   UNL     1      46.722   3.567   7.024  0.00  0.00    +0.000 A 
ATOM     29  N   UNL     1      46.031   4.478   7.726  0.00  0.00    +0.000 NA
ATOM     30  N   UNL     1      45.293   4.069   8.809  0.00  0.00    +0.000 NA
ATOM     31  H   UNL     1      43.838   1.604   9.968  0.00  0.00    +0.000 HD
ENDBRANCH  23  24
ENDBRANCH  22  23
ENDBRANCH   4  22
TORSDOF 6
ENDMDL
