MODEL 1
REMARK VINA RESULT:    -8.036      0.000      0.000
REMARK INTER + INTRA:         -13.399
REMARK INTER:                 -12.264
REMARK INTRA:                  -1.135
REMARK UNBOUND:                -1.135
REMARK  Name = 
REMARK  10 active torsions:
REMARK  status: ('A' for Active; 'I' for Inactive)
REMARK    1  A    between atoms: C_1  and  C_2
REMARK    2  A    between atoms: C_2  and  N_3
REMARK    3  A    between atoms: C_2  and  C_14
REMARK    4  A    between atoms: N_3  and  C_4
REMARK    5  A    between atoms: C_4  and  C_5
REMARK    6  A    between atoms: N_8  and  C_9
REMARK    7  A    between atoms: C_9  and  C_10
REMARK    8  A    between atoms: C_17  and  C_18
REMARK    9  A    between atoms: C_18  and  N_19
REMARK   10  A    between atoms: C_20  and  C_22
REMARK                            x       y       z     vdW  Elec       q    Type
REMARK                         _______ _______ _______ _____ _____    ______ ____
ROOT
ATOM      1  C   UNL     1      44.970   5.005  13.177  0.00  0.00    +0.000 A 
ATOM      2  C   UNL     1      45.130   6.316  12.723  0.00  0.00    +0.000 A 
ATOM      3  C   UNL     1      46.320   6.993  12.997  0.00  0.00    +0.000 A 
ATOM      4  C   UNL     1      47.329   6.357  13.719  0.00  0.00    +0.000 A 
ATOM      5  C   UNL     1      47.077   5.065  14.159  0.00  0.00    +0.000 A 
ATOM      6  N   UNL     1      45.933   4.390  13.916  0.00  0.00    +0.000 NA
ENDROOT
BRANCH   1   8
ATOM      7  C   UNL     1      42.713   5.070  12.046  0.00  0.00    +0.000 C 
ATOM      8  C   UNL     1      43.677   4.222  12.886  0.00  0.00    +0.000 C 
BRANCH   8   9
ATOM      9  N   UNL     1      43.977   2.948  12.200  0.00  0.00    +0.000 NA
ATOM     10  H   UNL     1      43.086   2.528  11.927  0.00  0.00    +0.000 HD
BRANCH   9  11
ATOM     11  C   UNL     1      44.901   3.033  11.082  0.00  0.00    +0.000 C 
BRANCH  11  12
ATOM     12  C   UNL     1      44.168   2.876   9.729  0.00  0.00    +0.000 C 
ATOM     13  C   UNL     1      44.551   1.606   8.952  0.00  0.00    +0.000 C 
ATOM     14  C   UNL     1      45.977   1.667   8.404  0.00  0.00    +0.000 C 
ATOM     15  N   UNL     1      46.185   2.854   7.549  0.00  0.00    +0.000 NA
ATOM     16  C   UNL     1      45.869   4.094   8.270  0.00  0.00    +0.000 C 
ATOM     17  C   UNL     1      44.439   4.086   8.826  0.00  0.00    +0.000 C 
BRANCH  15  18
ATOM     18  C   UNL     1      47.572   2.845   7.032  0.00  0.00    +0.000 C 
BRANCH  18  19
ATOM     19  C   UNL     1      47.725   2.457   5.559  0.00  0.00    +0.000 C 
ATOM     20  F   UNL     1      46.553   2.717   4.915  0.00  0.00    +0.000 F 
ENDBRANCH  18  19
ENDBRANCH  15  18
ENDBRANCH  11  12
ENDBRANCH   9  11
ENDBRANCH   8   9
ENDBRANCH   1   8
BRANCH   4  21
ATOM     21  C   UNL     1      48.610   7.047  14.081  0.00  0.00    +0.000 C 
BRANCH  21  22
ATOM     22  N   UNL     1      48.567   7.512  15.447  0.00  0.00    +0.000 N 
ATOM     23  C   UNL     1      49.203   6.832  16.450  0.00  0.00    +0.000 C 
ATOM     24  O   UNL     1      49.870   5.825  16.229  0.00  0.00    +0.000 OA
ATOM     25  H   UNL     1      47.852   8.196  15.686  0.00  0.00    +0.000 HD
BRANCH  23  26
ATOM     26  C   UNL     1      49.104   7.406  17.797  0.00  0.00    +0.000 A 
ATOM     27  C   UNL     1      49.773   8.588  18.089  0.00  0.00    +0.000 A 
ATOM     28  S   UNL     1      49.516   9.147  19.678  0.00  0.00    +0.000 S 
ATOM     29  C   UNL     1      48.539   7.804  20.051  0.00  0.00    +0.000 A 
ATOM     30  N   UNL     1      48.001   7.655  21.290  0.00  0.00    +0.000 NA
ATOM     31  C   UNL     1      47.310   6.573  21.446  0.00  0.00    +0.000 A 
ATOM     32  N   UNL     1      47.105   5.631  20.470  0.00  0.00    +0.000 N 
ATOM     33  C   UNL     1      47.599   5.758  19.196  0.00  0.00    +0.000 A 
ATOM     34  O   UNL     1      47.352   4.927  18.328  0.00  0.00    +0.000 OA
ATOM     35  C   UNL     1      48.399   6.949  18.972  0.00  0.00    +0.000 A 
ATOM     36  H   UNL     1      46.545   4.812  20.654  0.00  0.00    +0.000 HD
ENDBRANCH  23  26
ENDBRANCH  21  22
ENDBRANCH   4  21
TORSDOF 9
ENDMDL
MODEL 2
REMARK VINA RESULT:    -7.322      2.260      2.614
REMARK INTER + INTRA:         -12.309
REMARK INTER:                 -11.012
REMARK INTRA:                  -1.297
REMARK UNBOUND:                -1.135
REMARK  Name = 
REMARK  10 active torsions:
REMARK  status: ('A' for Active; 'I' for Inactive)
REMARK    1  A    between atoms: C_1  and  C_2
REMARK    2  A    between atoms: C_2  and  N_3
REMARK    3  A    between atoms: C_2  and  C_14
REMARK    4  A    between atoms: N_3  and  C_4
REMARK    5  A    between atoms: C_4  and  C_5
REMARK    6  A    between atoms: N_8  and  C_9
REMARK    7  A    between atoms: C_9  and  C_10
REMARK    8  A    between atoms: C_17  and  C_18
REMARK    9  A    between atoms: C_18  and  N_19
REMARK   10  A    between atoms: C_20  and  C_22
REMARK                            x       y       z     vdW  Elec       q    Type
REMARK                         _______ _______ _______ _____ _____    ______ ____
ROOT
ATOM      1  C   UNL     1      45.097   5.409  12.902  0.00  0.00    +0.000 A 
ATOM      2  C   UNL     1      45.126   6.544  12.090  0.00  0.00    +0.000 A 
ATOM      3  C   UNL     1      46.300   7.296  12.009  0.00  0.00    +0.000 A 
ATOM      4  C   UNL     1      47.423   6.908  12.739  0.00  0.00    +0.000 A 
ATOM      5  C   UNL     1      47.300   5.785  13.546  0.00  0.00    +0.000 A 
ATOM      6  N   UNL     1      46.175   5.045  13.649  0.00  0.00    +0.000 NA
ENDROOT
BRANCH   1   8
ATOM      7  C   UNL     1      42.652   5.233  12.295  0.00  0.00    +0.000 C 
ATOM      8  C   UNL     1      43.825   4.548  13.008  0.00  0.00    +0.000 C 
BRANCH   8   9
ATOM      9  N   UNL     1      44.054   3.200  12.450  0.00  0.00    +0.000 NA
ATOM     10  H   UNL     1      43.139   2.783  12.267  0.00  0.00    +0.000 HD
BRANCH   9  11
ATOM     11  C   UNL     1      44.921   3.135  11.286  0.00  0.00    +0.000 C 
BRANCH  11  12
ATOM     12  C   UNL     1      44.104   3.095   9.974  0.00  0.00    +0.000 C 
ATOM     13  C   UNL     1      44.423   1.891   9.073  0.00  0.00    +0.000 C 
ATOM     14  C   UNL     1      45.813   1.986   8.444  0.00  0.00    +0.000 C 
ATOM     15  N   UNL     1      45.983   3.237   7.677  0.00  0.00    +0.000 NA
ATOM     16  C   UNL     1      45.727   4.417   8.515  0.00  0.00    +0.000 C 
ATOM     17  C   UNL     1      44.334   4.373   9.156  0.00  0.00    +0.000 C 
BRANCH  15  18
ATOM     18  C   UNL     1      47.335   3.261   7.076  0.00  0.00    +0.000 C 
BRANCH  18  19
ATOM     19  C   UNL     1      47.387   3.049   5.561  0.00  0.00    +0.000 C 
ATOM     20  F   UNL     1      46.239   2.431   5.166  0.00  0.00    +0.000 F 
ENDBRANCH  18  19
ENDBRANCH  15  18
ENDBRANCH  11  12
ENDBRANCH   9  11
ENDBRANCH   8   9
ENDBRANCH   1   8
BRANCH   4  21
ATOM     21  C   UNL     1      48.697   7.699  12.728  0.00  0.00    +0.000 C 
BRANCH  21  22
ATOM     22  N   UNL     1      49.644   7.150  13.669  0.00  0.00    +0.000 N 
ATOM     23  C   UNL     1      50.342   7.956  14.527  0.00  0.00    +0.000 C 
ATOM     24  O   UNL     1      50.164   9.170  14.565  0.00  0.00    +0.000 OA
ATOM     25  H   UNL     1      49.969   6.200  13.504  0.00  0.00    +0.000 HD
BRANCH  23  26
ATOM     26  C   UNL     1      51.267   7.287  15.449  0.00  0.00    +0.000 A 
ATOM     27  C   UNL     1      52.625   7.574  15.386  0.00  0.00    +0.000 A 
ATOM     28  S   UNL     1      53.554   6.753  16.554  0.00  0.00    +0.000 S 
ATOM     29  C   UNL     1      52.183   5.946  17.159  0.00  0.00    +0.000 A 
ATOM     30  N   UNL     1      52.291   5.055  18.179  0.00  0.00    +0.000 NA
ATOM     31  C   UNL     1      51.178   4.489  18.514  0.00  0.00    +0.000 A 
ATOM     32  N   UNL     1      49.966   4.741  17.923  0.00  0.00    +0.000 N 
ATOM     33  C   UNL     1      49.804   5.658  16.914  0.00  0.00    +0.000 A 
ATOM     34  O   UNL     1      48.699   5.903  16.443  0.00  0.00    +0.000 OA
ATOM     35  C   UNL     1      51.029   6.310  16.486  0.00  0.00    +0.000 A 
ATOM     36  H   UNL     1      49.131   4.272  18.240  0.00  0.00    +0.000 HD
ENDBRANCH  23  26
ENDBRANCH  21  22
ENDBRANCH   4  21
TORSDOF 9
ENDMDL
MODEL 3
REMARK VINA RESULT:    -7.183      3.042      3.391
REMARK INTER + INTRA:         -12.097
REMARK INTER:                 -11.166
REMARK INTRA:                  -0.931
REMARK UNBOUND:                -1.135
REMARK  Name = 
REMARK  10 active torsions:
REMARK  status: ('A' for Active; 'I' for Inactive)
REMARK    1  A    between atoms: C_1  and  C_2
REMARK    2  A    between atoms: C_2  and  N_3
REMARK    3  A    between atoms: C_2  and  C_14
REMARK    4  A    between atoms: N_3  and  C_4
REMARK    5  A    between atoms: C_4  and  C_5
REMARK    6  A    between atoms: N_8  and  C_9
REMARK    7  A    between atoms: C_9  and  C_10
REMARK    8  A    between atoms: C_17  and  C_18
REMARK    9  A    between atoms: C_18  and  N_19
REMARK   10  A    between atoms: C_20  and  C_22
REMARK                            x       y       z     vdW  Elec       q    Type
REMARK                         _______ _______ _______ _____ _____    ______ ____
ROOT
ATOM      1  C   UNL     1      46.193   5.568  13.504  0.00  0.00    +0.000 A 
ATOM      2  C   UNL     1      46.612   6.827  13.071  0.00  0.00    +0.000 A 
ATOM      3  C   UNL     1      47.709   7.432  13.686  0.00  0.00    +0.000 A 
ATOM      4  C   UNL     1      48.370   6.776  14.724  0.00  0.00    +0.000 A 
ATOM      5  C   UNL     1      47.871   5.541  15.114  0.00  0.00    +0.000 A 
ATOM      6  N   UNL     1      46.807   4.937  14.543  0.00  0.00    +0.000 NA
ENDROOT
BRANCH   1   8
ATOM      7  C   UNL     1      43.740   5.743  12.930  0.00  0.00    +0.000 C 
ATOM      8  C   UNL     1      44.994   4.864  12.843  0.00  0.00    +0.000 C 
BRANCH   8   9
ATOM      9  N   UNL     1      45.293   4.526  11.436  0.00  0.00    +0.000 NA
ATOM     10  H   UNL     1      46.236   4.863  11.233  0.00  0.00    +0.000 HD
BRANCH   9  11
ATOM     11  C   UNL     1      45.125   3.131  11.070  0.00  0.00    +0.000 C 
BRANCH  11  12
ATOM     12  C   UNL     1      44.330   2.985   9.750  0.00  0.00    +0.000 C 
ATOM     13  C   UNL     1      44.637   1.695   8.973  0.00  0.00    +0.000 C 
ATOM     14  C   UNL     1      46.040   1.701   8.366  0.00  0.00    +0.000 C 
ATOM     15  N   UNL     1      46.253   2.870   7.488  0.00  0.00    +0.000 NA
ATOM     16  C   UNL     1      46.010   4.128   8.207  0.00  0.00    +0.000 C 
ATOM     17  C   UNL     1      44.605   4.175   8.822  0.00  0.00    +0.000 C 
BRANCH  15  18
ATOM     18  C   UNL     1      47.616   2.807   6.915  0.00  0.00    +0.000 C 
BRANCH  18  19
ATOM     19  C   UNL     1      47.704   2.289   5.477  0.00  0.00    +0.000 C 
ATOM     20  F   UNL     1      46.702   2.854   4.747  0.00  0.00    +0.000 F 
ENDBRANCH  18  19
ENDBRANCH  15  18
ENDBRANCH  11  12
ENDBRANCH   9  11
ENDBRANCH   8   9
ENDBRANCH   1   8
BRANCH   4  21
ATOM     21  C   UNL     1      49.526   7.393  15.452  0.00  0.00    +0.000 C 
BRANCH  21  22
ATOM     22  N   UNL     1      50.437   6.375  15.915  0.00  0.00    +0.000 N 
ATOM     23  C   UNL     1      50.693   6.201  17.249  0.00  0.00    +0.000 C 
ATOM     24  O   UNL     1      50.130   6.873  18.109  0.00  0.00    +0.000 OA
ATOM     25  H   UNL     1      51.073   5.970  15.231  0.00  0.00    +0.000 HD
BRANCH  23  26
ATOM     26  C   UNL     1      51.626   5.126  17.604  0.00  0.00    +0.000 A 
ATOM     27  C   UNL     1      52.915   5.444  18.014  0.00  0.00    +0.000 A 
ATOM     28  S   UNL     1      53.854   4.087  18.437  0.00  0.00    +0.000 S 
ATOM     29  C   UNL     1      52.589   3.019  18.042  0.00  0.00    +0.000 A 
ATOM     30  N   UNL     1      52.749   1.674  18.158  0.00  0.00    +0.000 NA
ATOM     31  C   UNL     1      51.722   0.980  17.791  0.00  0.00    +0.000 A 
ATOM     32  N   UNL     1      50.547   1.513  17.325  0.00  0.00    +0.000 N 
ATOM     33  C   UNL     1      50.329   2.865  17.224  0.00  0.00    +0.000 A 
ATOM     34  O   UNL     1      49.248   3.314  16.856  0.00  0.00    +0.000 OA
ATOM     35  C   UNL     1      51.460   3.691  17.607  0.00  0.00    +0.000 A 
ATOM     36  H   UNL     1      49.778   0.915  17.064  0.00  0.00    +0.000 HD
ENDBRANCH  23  26
ENDBRANCH  21  22
ENDBRANCH   4  21
TORSDOF 9
ENDMDL
MODEL 4
REMARK VINA RESULT:    -6.875      4.398      9.695
REMARK INTER + INTRA:         -11.628
REMARK INTER:                  -9.766
REMARK INTRA:                  -1.862
REMARK UNBOUND:                -1.135
REMARK  Name = 
REMARK  10 active torsions:
REMARK  status: ('A' for Active; 'I' for Inactive)
REMARK    1  A    between atoms: C_1  and  C_2
REMARK    2  A    between atoms: C_2  and  N_3
REMARK    3  A    between atoms: C_2  and  C_14
REMARK    4  A    between atoms: N_3  and  C_4
REMARK    5  A    between atoms: C_4  and  C_5
REMARK    6  A    between atoms: N_8  and  C_9
REMARK    7  A    between atoms: C_9  and  C_10
REMARK    8  A    between atoms: C_17  and  C_18
REMARK    9  A    between atoms: C_18  and  N_19
REMARK   10  A    between atoms: C_20  and  C_22
REMARK                            x       y       z     vdW  Elec       q    Type
REMARK                         _______ _______ _______ _____ _____    ______ ____
ROOT
ATOM      1  C   UNL     1      49.770   4.936  17.361  0.00  0.00    +0.000 A 
ATOM      2  C   UNL     1      50.497   6.085  17.045  0.00  0.00    +0.000 A 
ATOM      3  C   UNL     1      50.021   6.942  16.049  0.00  0.00    +0.000 A 
ATOM      4  C   UNL     1      48.834   6.639  15.384  0.00  0.00    +0.000 A 
ATOM      5  C   UNL     1      48.190   5.461  15.737  0.00  0.00    +0.000 A 
ATOM      6  N   UNL     1      48.632   4.611  16.690  0.00  0.00    +0.000 NA
ENDROOT
BRANCH   1   8
ATOM      7  C   UNL     1      51.636   4.400  18.976  0.00  0.00    +0.000 C 
ATOM      8  C   UNL     1      50.256   3.974  18.461  0.00  0.00    +0.000 C 
BRANCH   8   9
ATOM      9  N   UNL     1      49.285   3.913  19.572  0.00  0.00    +0.000 NA
ATOM     10  H   UNL     1      49.441   3.034  20.070  0.00  0.00    +0.000 HD
BRANCH   9  11
ATOM     11  C   UNL     1      49.281   5.053  20.473  0.00  0.00    +0.000 C 
BRANCH  11  12
ATOM     12  C   UNL     1      47.843   5.556  20.741  0.00  0.00    +0.000 C 
ATOM     13  C   UNL     1      47.152   6.165  19.510  0.00  0.00    +0.000 C 
ATOM     14  C   UNL     1      47.764   7.506  19.104  0.00  0.00    +0.000 C 
ATOM     15  N   UNL     1      47.743   8.478  20.215  0.00  0.00    +0.000 NA
ATOM     16  C   UNL     1      48.431   7.949  21.401  0.00  0.00    +0.000 C 
ATOM     17  C   UNL     1      47.840   6.609  21.857  0.00  0.00    +0.000 C 
BRANCH  15  18
ATOM     18  C   UNL     1      48.326   9.758  19.755  0.00  0.00    +0.000 C 
BRANCH  18  19
ATOM     19  C   UNL     1      47.352  10.715  19.062  0.00  0.00    +0.000 C 
ATOM     20  F   UNL     1      47.479  10.568  17.713  0.00  0.00    +0.000 F 
ENDBRANCH  18  19
ENDBRANCH  15  18
ENDBRANCH  11  12
ENDBRANCH   9  11
ENDBRANCH   8   9
ENDBRANCH   1   8
BRANCH   4  21
ATOM     21  C   UNL     1      48.297   7.495  14.276  0.00  0.00    +0.000 C 
BRANCH  21  22
ATOM     22  N   UNL     1      47.047   6.967  13.787  0.00  0.00    +0.000 N 
ATOM     23  C   UNL     1      46.802   6.846  12.445  0.00  0.00    +0.000 C 
ATOM     24  O   UNL     1      47.647   7.139  11.603  0.00  0.00    +0.000 OA
ATOM     25  H   UNL     1      46.266   6.934  14.439  0.00  0.00    +0.000 HD
BRANCH  23  26
ATOM     26  C   UNL     1      45.501   6.284  12.064  0.00  0.00    +0.000 A 
ATOM     27  C   UNL     1      44.525   7.116  11.530  0.00  0.00    +0.000 A 
ATOM     28  S   UNL     1      43.094   6.301  11.093  0.00  0.00    +0.000 S 
ATOM     29  C   UNL     1      43.706   4.813  11.647  0.00  0.00    +0.000 A 
ATOM     30  N   UNL     1      42.956   3.682  11.583  0.00  0.00    +0.000 NA
ATOM     31  C   UNL     1      43.530   2.631  12.070  0.00  0.00    +0.000 A 
ATOM     32  N   UNL     1      44.792   2.611  12.609  0.00  0.00    +0.000 N 
ATOM     33  C   UNL     1      45.597   3.721  12.663  0.00  0.00    +0.000 A 
ATOM     34  O   UNL     1      46.742   3.660  13.100  0.00  0.00    +0.000 OA
ATOM     35  C   UNL     1      44.993   4.934  12.144  0.00  0.00    +0.000 A 
ATOM     36  H   UNL     1      45.186   1.753  12.963  0.00  0.00    +0.000 HD
ENDBRANCH  23  26
ENDBRANCH  21  22
ENDBRANCH   4  21
TORSDOF 9
ENDMDL
MODEL 5
REMARK VINA RESULT:    -6.744      3.739      9.362
REMARK INTER + INTRA:         -11.427
REMARK INTER:                 -10.071
REMARK INTRA:                  -1.355
REMARK UNBOUND:                -1.135
REMARK  Name = 
REMARK  10 active torsions:
REMARK  status: ('A' for Active; 'I' for Inactive)
REMARK    1  A    between atoms: C_1  and  C_2
REMARK    2  A    between atoms: C_2  and  N_3
REMARK    3  A    between atoms: C_2  and  C_14
REMARK    4  A    between atoms: N_3  and  C_4
REMARK    5  A    between atoms: C_4  and  C_5
REMARK    6  A    between atoms: N_8  and  C_9
REMARK    7  A    between atoms: C_9  and  C_10
REMARK    8  A    between atoms: C_17  and  C_18
REMARK    9  A    between atoms: C_18  and  N_19
REMARK   10  A    between atoms: C_20  and  C_22
REMARK                            x       y       z     vdW  Elec       q    Type
REMARK                         _______ _______ _______ _____ _____    ______ ____
ROOT
ATOM      1  C   UNL     1      50.423   7.459  15.133  0.00  0.00    +0.000 A 
ATOM      2  C   UNL     1      50.629   8.503  14.231  0.00  0.00    +0.000 A 
ATOM      3  C   UNL     1      49.755   8.658  13.153  0.00  0.00    +0.000 A 
ATOM      4  C   UNL     1      48.693   7.769  12.989  0.00  0.00    +0.000 A 
ATOM      5  C   UNL     1      48.578   6.740  13.914  0.00  0.00    +0.000 A 
ATOM      6  N   UNL     1      49.413   6.562  14.960  0.00  0.00    +0.000 NA
ENDROOT
BRANCH   1   8
ATOM      7  C   UNL     1      52.771   7.764  16.012  0.00  0.00    +0.000 C 
ATOM      8  C   UNL     1      51.358   7.263  16.341  0.00  0.00    +0.000 C 
BRANCH   8   9
ATOM      9  N   UNL     1      50.829   7.954  17.534  0.00  0.00    +0.000 NA
ATOM     10  H   UNL     1      50.956   8.958  17.390  0.00  0.00    +0.000 HD
BRANCH   9  11
ATOM     11  C   UNL     1      49.462   7.628  17.901  0.00  0.00    +0.000 C 
BRANCH  11  12
ATOM     12  C   UNL     1      49.416   6.681  19.124  0.00  0.00    +0.000 C 
ATOM     13  C   UNL     1      50.135   5.340  18.906  0.00  0.00    +0.000 C 
ATOM     14  C   UNL     1      49.395   4.435  17.921  0.00  0.00    +0.000 C 
ATOM     15  N   UNL     1      48.002   4.187  18.345  0.00  0.00    +0.000 NA
ATOM     16  C   UNL     1      47.266   5.446  18.524  0.00  0.00    +0.000 C 
ATOM     17  C   UNL     1      47.964   6.382  19.519  0.00  0.00    +0.000 C 
BRANCH  15  18
ATOM     18  C   UNL     1      47.347   3.290  17.367  0.00  0.00    +0.000 C 
BRANCH  18  19
ATOM     19  C   UNL     1      47.267   3.823  15.934  0.00  0.00    +0.000 C 
ATOM     20  F   UNL     1      47.669   2.840  15.079  0.00  0.00    +0.000 F 
ENDBRANCH  18  19
ENDBRANCH  15  18
ENDBRANCH  11  12
ENDBRANCH   9  11
ENDBRANCH   8   9
ENDBRANCH   1   8
BRANCH   4  21
ATOM     21  C   UNL     1      47.749   7.856  11.829  0.00  0.00    +0.000 C 
BRANCH  21  22
ATOM     22  N   UNL     1      47.028   6.617  11.665  0.00  0.00    +0.000 N 
ATOM     23  C   UNL     1      45.664   6.569  11.763  0.00  0.00    +0.000 C 
ATOM     24  O   UNL     1      44.992   7.579  11.950  0.00  0.00    +0.000 OA
ATOM     25  H   UNL     1      47.562   5.753  11.735  0.00  0.00    +0.000 HD
BRANCH  23  26
ATOM     26  C   UNL     1      45.037   5.256  11.564  0.00  0.00    +0.000 A 
ATOM     27  C   UNL     1      44.355   4.657  12.615  0.00  0.00    +0.000 A 
ATOM     28  S   UNL     1      43.644   3.163  12.207  0.00  0.00    +0.000 S 
ATOM     29  C   UNL     1      44.263   3.237  10.624  0.00  0.00    +0.000 A 
ATOM     30  N   UNL     1      44.035   2.233   9.737  0.00  0.00    +0.000 NA
ATOM     31  C   UNL     1      44.593   2.402   8.584  0.00  0.00    +0.000 A 
ATOM     32  N   UNL     1      45.353   3.491   8.236  0.00  0.00    +0.000 N 
ATOM     33  C   UNL     1      45.580   4.543   9.087  0.00  0.00    +0.000 A 
ATOM     34  O   UNL     1      46.218   5.529   8.730  0.00  0.00    +0.000 OA
ATOM     35  C   UNL     1      44.990   4.395  10.405  0.00  0.00    +0.000 A 
ATOM     36  H   UNL     1      45.752   3.566   7.313  0.00  0.00    +0.000 HD
ENDBRANCH  23  26
ENDBRANCH  21  22
ENDBRANCH   4  21
TORSDOF 9
ENDMDL
MODEL 6
REMARK VINA RESULT:    -6.654      3.332      4.502
REMARK INTER + INTRA:         -11.290
REMARK INTER:                  -9.860
REMARK INTRA:                  -1.430
REMARK UNBOUND:                -1.135
REMARK  Name = 
REMARK  10 active torsions:
REMARK  status: ('A' for Active; 'I' for Inactive)
REMARK    1  A    between atoms: C_1  and  C_2
REMARK    2  A    between atoms: C_2  and  N_3
REMARK    3  A    between atoms: C_2  and  C_14
REMARK    4  A    between atoms: N_3  and  C_4
REMARK    5  A    between atoms: C_4  and  C_5
REMARK    6  A    between atoms: N_8  and  C_9
REMARK    7  A    between atoms: C_9  and  C_10
REMARK    8  A    between atoms: C_17  and  C_18
REMARK    9  A    between atoms: C_18  and  N_19
REMARK   10  A    between atoms: C_20  and  C_22
REMARK                            x       y       z     vdW  Elec       q    Type
REMARK                         _______ _______ _______ _____ _____    ______ ____
ROOT
ATOM      1  C   UNL     1      47.460   7.757  13.646  0.00  0.00    +0.000 A 
ATOM      2  C   UNL     1      47.474   8.936  14.394  0.00  0.00    +0.000 A 
ATOM      3  C   UNL     1      48.395   9.074  15.434  0.00  0.00    +0.000 A 
ATOM      4  C   UNL     1      49.285   8.038  15.714  0.00  0.00    +0.000 A 
ATOM      5  C   UNL     1      49.184   6.888  14.943  0.00  0.00    +0.000 A 
ATOM      6  N   UNL     1      48.298   6.724  13.938  0.00  0.00    +0.000 NA
ENDROOT
BRANCH   1   8
ATOM      7  C   UNL     1      47.021   6.575  11.458  0.00  0.00    +0.000 C 
ATOM      8  C   UNL     1      46.467   7.571  12.484  0.00  0.00    +0.000 C 
BRANCH   8   9
ATOM      9  N   UNL     1      45.151   7.121  12.984  0.00  0.00    +0.000 NA
ATOM     10  H   UNL     1      44.439   7.488  12.350  0.00  0.00    +0.000 HD
BRANCH   9  11
ATOM     11  C   UNL     1      45.008   5.690  13.191  0.00  0.00    +0.000 C 
BRANCH  11  12
ATOM     12  C   UNL     1      43.569   5.215  12.879  0.00  0.00    +0.000 C 
ATOM     13  C   UNL     1      43.391   3.689  12.914  0.00  0.00    +0.000 C 
ATOM     14  C   UNL     1      44.092   2.994  11.746  0.00  0.00    +0.000 C 
ATOM     15  N   UNL     1      43.634   3.516  10.443  0.00  0.00    +0.000 NA
ATOM     16  C   UNL     1      43.825   4.970  10.353  0.00  0.00    +0.000 C 
ATOM     17  C   UNL     1      43.125   5.713  11.497  0.00  0.00    +0.000 C 
BRANCH  15  18
ATOM     18  C   UNL     1      44.328   2.791   9.356  0.00  0.00    +0.000 C 
BRANCH  18  19
ATOM     19  C   UNL     1      45.305   3.627   8.525  0.00  0.00    +0.000 C 
ATOM     20  F   UNL     1      45.130   3.323   7.208  0.00  0.00    +0.000 F 
ENDBRANCH  18  19
ENDBRANCH  15  18
ENDBRANCH  11  12
ENDBRANCH   9  11
ENDBRANCH   8   9
ENDBRANCH   1   8
BRANCH   4  21
ATOM     21  C   UNL     1      50.266   8.110  16.845  0.00  0.00    +0.000 C 
BRANCH  21  22
ATOM     22  N   UNL     1      50.979   6.863  16.980  0.00  0.00    +0.000 N 
ATOM     23  C   UNL     1      51.425   6.427  18.199  0.00  0.00    +0.000 C 
ATOM     24  O   UNL     1      51.204   7.053  19.232  0.00  0.00    +0.000 OA
ATOM     25  H   UNL     1      51.364   6.450  16.133  0.00  0.00    +0.000 HD
BRANCH  23  26
ATOM     26  C   UNL     1      52.125   5.137  18.218  0.00  0.00    +0.000 A 
ATOM     27  C   UNL     1      53.451   5.083  18.628  0.00  0.00    +0.000 A 
ATOM     28  S   UNL     1      54.101   3.508  18.641  0.00  0.00    +0.000 S 
ATOM     29  C   UNL     1      52.649   2.844  18.053  0.00  0.00    +0.000 A 
ATOM     30  N   UNL     1      52.537   1.511  17.813  0.00  0.00    +0.000 NA
ATOM     31  C   UNL     1      51.393   1.148  17.335  0.00  0.00    +0.000 A 
ATOM     32  N   UNL     1      50.347   2.000  17.082  0.00  0.00    +0.000 N 
ATOM     33  C   UNL     1      50.403   3.347  17.341  0.00  0.00    +0.000 A 
ATOM     34  O   UNL     1      49.433   4.075  17.157  0.00  0.00    +0.000 OA
ATOM     35  C   UNL     1      51.676   3.811  17.863  0.00  0.00    +0.000 A 
ATOM     36  H   UNL     1      49.474   1.650  16.718  0.00  0.00    +0.000 HD
ENDBRANCH  23  26
ENDBRANCH  21  22
ENDBRANCH   4  21
TORSDOF 9
ENDMDL
MODEL 7
REMARK VINA RESULT:    -6.649      4.376      5.412
REMARK INTER + INTRA:         -11.283
REMARK INTER:                 -10.045
REMARK INTRA:                  -1.239
REMARK UNBOUND:                -1.135
REMARK  Name = 
REMARK  10 active torsions:
REMARK  status: ('A' for Active; 'I' for Inactive)
REMARK    1  A    between atoms: C_1  and  C_2
REMARK    2  A    between atoms: C_2  and  N_3
REMARK    3  A    between atoms: C_2  and  C_14
REMARK    4  A    between atoms: N_3  and  C_4
REMARK    5  A    between atoms: C_4  and  C_5
REMARK    6  A    between atoms: N_8  and  C_9
REMARK    7  A    between atoms: C_9  and  C_10
REMARK    8  A    between atoms: C_17  and  C_18
REMARK    9  A    between atoms: C_18  and  N_19
REMARK   10  A    between atoms: C_20  and  C_22
REMARK                            x       y       z     vdW  Elec       q    Type
REMARK                         _______ _______ _______ _____ _____    ______ ____
ROOT
ATOM      1  C   UNL     1      47.508   6.267  14.397  0.00  0.00    +0.000 A 
ATOM      2  C   UNL     1      48.491   6.771  15.251  0.00  0.00    +0.000 A 
ATOM      3  C   UNL     1      48.942   5.985  16.313  0.00  0.00    +0.000 A 
ATOM      4  C   UNL     1      48.406   4.713  16.510  0.00  0.00    +0.000 A 
ATOM      5  C   UNL     1      47.411   4.300  15.634  0.00  0.00    +0.000 A 
ATOM      6  N   UNL     1      46.951   5.042  14.604  0.00  0.00    +0.000 NA
ENDROOT
BRANCH   1   8
ATOM      7  C   UNL     1      47.449   6.478  11.881  0.00  0.00    +0.000 C 
ATOM      8  C   UNL     1      46.994   7.099  13.208  0.00  0.00    +0.000 C 
BRANCH   8   9
ATOM      9  N   UNL     1      45.521   7.215  13.246  0.00  0.00    +0.000 NA
ATOM     10  H   UNL     1      45.295   8.187  13.468  0.00  0.00    +0.000 HD
BRANCH   9  11
ATOM     11  C   UNL     1      44.818   6.751  12.062  0.00  0.00    +0.000 C 
BRANCH  11  12
ATOM     12  C   UNL     1      43.770   5.670  12.415  0.00  0.00    +0.000 C 
ATOM     13  C   UNL     1      44.377   4.342  12.897  0.00  0.00    +0.000 C 
ATOM     14  C   UNL     1      45.083   3.583  11.774  0.00  0.00    +0.000 C 
ATOM     15  N   UNL     1      44.181   3.329  10.632  0.00  0.00    +0.000 NA
ATOM     16  C   UNL     1      43.610   4.580  10.114  0.00  0.00    +0.000 C 
ATOM     17  C   UNL     1      42.876   5.371  11.205  0.00  0.00    +0.000 C 
BRANCH  15  18
ATOM     18  C   UNL     1      44.912   2.574   9.591  0.00  0.00    +0.000 C 
BRANCH  18  19
ATOM     19  C   UNL     1      45.481   3.413   8.444  0.00  0.00    +0.000 C 
ATOM     20  F   UNL     1      44.790   3.124   7.306  0.00  0.00    +0.000 F 
ENDBRANCH  18  19
ENDBRANCH  15  18
ENDBRANCH  11  12
ENDBRANCH   9  11
ENDBRANCH   8   9
ENDBRANCH   1   8
BRANCH   4  21
ATOM     21  C   UNL     1      48.817   3.841  17.658  0.00  0.00    +0.000 C 
BRANCH  21  22
ATOM     22  N   UNL     1      50.207   3.470  17.543  0.00  0.00    +0.000 N 
ATOM     23  C   UNL     1      51.141   3.927  18.433  0.00  0.00    +0.000 C 
ATOM     24  O   UNL     1      50.834   4.634  19.389  0.00  0.00    +0.000 OA
ATOM     25  H   UNL     1      50.516   3.084  16.653  0.00  0.00    +0.000 HD
BRANCH  23  26
ATOM     26  C   UNL     1      52.522   3.474  18.226  0.00  0.00    +0.000 A 
ATOM     27  C   UNL     1      53.568   4.375  18.374  0.00  0.00    +0.000 A 
ATOM     28  S   UNL     1      55.108   3.681  18.150  0.00  0.00    +0.000 S 
ATOM     29  C   UNL     1      54.432   2.159  17.799  0.00  0.00    +0.000 A 
ATOM     30  N   UNL     1      55.222   1.099  17.488  0.00  0.00    +0.000 NA
ATOM     31  C   UNL     1      54.577   0.014  17.209  0.00  0.00    +0.000 A 
ATOM     32  N   UNL     1      53.210  -0.105  17.220  0.00  0.00    +0.000 N 
ATOM     33  C   UNL     1      52.374   0.930  17.561  0.00  0.00    +0.000 A 
ATOM     34  O   UNL     1      51.158   0.778  17.617  0.00  0.00    +0.000 OA
ATOM     35  C   UNL     1      53.049   2.178  17.867  0.00  0.00    +0.000 A 
ATOM     36  H   UNL     1      52.768  -0.985  17.002  0.00  0.00    +0.000 HD
ENDBRANCH  23  26
ENDBRANCH  21  22
ENDBRANCH   4  21
TORSDOF 9
ENDMDL
MODEL 8
REMARK VINA RESULT:    -6.602      4.044      9.398
REMARK INTER + INTRA:         -11.211
REMARK INTER:                  -9.280
REMARK INTRA:                  -1.931
REMARK UNBOUND:                -1.135
REMARK  Name = 
REMARK  10 active torsions:
REMARK  status: ('A' for Active; 'I' for Inactive)
REMARK    1  A    between atoms: C_1  and  C_2
REMARK    2  A    between atoms: C_2  and  N_3
REMARK    3  A    between atoms: C_2  and  C_14
REMARK    4  A    between atoms: N_3  and  C_4
REMARK    5  A    between atoms: C_4  and  C_5
REMARK    6  A    between atoms: N_8  and  C_9
REMARK    7  A    between atoms: C_9  and  C_10
REMARK    8  A    between atoms: C_17  and  C_18
REMARK    9  A    between atoms: C_18  and  N_19
REMARK   10  A    between atoms: C_20  and  C_22
REMARK                            x       y       z     vdW  Elec       q    Type
REMARK                         _______ _______ _______ _____ _____    ______ ____
ROOT
ATOM      1  C   UNL     1      48.783   5.475  19.983  0.00  0.00    +0.000 A 
ATOM      2  C   UNL     1      49.701   4.653  19.327  0.00  0.00    +0.000 A 
ATOM      3  C   UNL     1      49.327   4.025  18.137  0.00  0.00    +0.000 A 
ATOM      4  C   UNL     1      48.046   4.222  17.622  0.00  0.00    +0.000 A 
ATOM      5  C   UNL     1      47.186   5.030  18.352  0.00  0.00    +0.000 A 
ATOM      6  N   UNL     1      47.518   5.642  19.509  0.00  0.00    +0.000 NA
ENDROOT
BRANCH   1   8
ATOM      7  C   UNL     1      50.679   6.132  21.517  0.00  0.00    +0.000 C 
ATOM      8  C   UNL     1      49.163   6.194  21.290  0.00  0.00    +0.000 C 
BRANCH   8   9
ATOM      9  N   UNL     1      48.699   7.597  21.272  0.00  0.00    +0.000 NA
ATOM     10  H   UNL     1      48.376   7.826  22.214  0.00  0.00    +0.000 HD
BRANCH   9  11
ATOM     11  C   UNL     1      49.653   8.573  20.774  0.00  0.00    +0.000 C 
BRANCH  11  12
ATOM     12  C   UNL     1      48.950   9.687  19.963  0.00  0.00    +0.000 C 
ATOM     13  C   UNL     1      47.933   9.168  18.934  0.00  0.00    +0.000 C 
ATOM     14  C   UNL     1      48.605   8.456  17.760  0.00  0.00    +0.000 C 
ATOM     15  N   UNL     1      49.593   9.324  17.086  0.00  0.00    +0.000 NA
ATOM     16  C   UNL     1      50.609   9.809  18.030  0.00  0.00    +0.000 C 
ATOM     17  C   UNL     1      49.981  10.546  19.220  0.00  0.00    +0.000 C 
BRANCH  15  18
ATOM     18  C   UNL     1      50.191   8.590  15.949  0.00  0.00    +0.000 C 
BRANCH  18  19
ATOM     19  C   UNL     1      50.242   7.068  16.100  0.00  0.00    +0.000 C 
ATOM     20  F   UNL     1      49.378   6.510  15.205  0.00  0.00    +0.000 F 
ENDBRANCH  18  19
ENDBRANCH  15  18
ENDBRANCH  11  12
ENDBRANCH   9  11
ENDBRANCH   8   9
ENDBRANCH   1   8
BRANCH   4  21
ATOM     21  C   UNL     1      47.572   3.540  16.374  0.00  0.00    +0.000 C 
BRANCH  21  22
ATOM     22  N   UNL     1      46.927   4.484  15.493  0.00  0.00    +0.000 N 
ATOM     23  C   UNL     1      46.770   4.219  14.159  0.00  0.00    +0.000 C 
ATOM     24  O   UNL     1      47.130   3.154  13.663  0.00  0.00    +0.000 OA
ATOM     25  H   UNL     1      46.829   5.441  15.824  0.00  0.00    +0.000 HD
BRANCH  23  26
ATOM     26  C   UNL     1      46.087   5.244  13.362  0.00  0.00    +0.000 A 
ATOM     27  C   UNL     1      46.712   6.463  13.133  0.00  0.00    +0.000 A 
ATOM     28  S   UNL     1      45.810   7.523  12.150  0.00  0.00    +0.000 S 
ATOM     29  C   UNL     1      44.527   6.411  12.034  0.00  0.00    +0.000 A 
ATOM     30  N   UNL     1      43.402   6.713  11.334  0.00  0.00    +0.000 NA
ATOM     31  C   UNL     1      42.494   5.794  11.357  0.00  0.00    +0.000 A 
ATOM     32  N   UNL     1      42.615   4.595  12.014  0.00  0.00    +0.000 N 
ATOM     33  C   UNL     1      43.745   4.233  12.704  0.00  0.00    +0.000 A 
ATOM     34  O   UNL     1      43.846   3.132  13.234  0.00  0.00    +0.000 OA
ATOM     35  C   UNL     1      44.791   5.240  12.724  0.00  0.00    +0.000 A 
ATOM     36  H   UNL     1      41.871   3.915  11.984  0.00  0.00    +0.000 HD
ENDBRANCH  23  26
ENDBRANCH  21  22
ENDBRANCH   4  21
TORSDOF 9
ENDMDL
MODEL 9
REMARK VINA RESULT:    -6.335      3.925      8.912
REMARK INTER + INTRA:         -10.803
REMARK INTER:                  -9.768
REMARK INTRA:                  -1.035
REMARK UNBOUND:                -1.135
REMARK  Name = 
REMARK  10 active torsions:
REMARK  status: ('A' for Active; 'I' for Inactive)
REMARK    1  A    between atoms: C_1  and  C_2
REMARK    2  A    between atoms: C_2  and  N_3
REMARK    3  A    between atoms: C_2  and  C_14
REMARK    4  A    between atoms: N_3  and  C_4
REMARK    5  A    between atoms: C_4  and  C_5
REMARK    6  A    between atoms: N_8  and  C_9
REMARK    7  A    between atoms: C_9  and  C_10
REMARK    8  A    between atoms: C_17  and  C_18
REMARK    9  A    between atoms: C_18  and  N_19
REMARK   10  A    between atoms: C_20  and  C_22
REMARK                            x       y       z     vdW  Elec       q    Type
REMARK                         _______ _______ _______ _____ _____    ______ ____
ROOT
ATOM      1  C   UNL     1      48.985   9.106  17.628  0.00  0.00    +0.000 A 
ATOM      2  C   UNL     1      50.123   8.332  17.399  0.00  0.00    +0.000 A 
ATOM      3  C   UNL     1      50.356   7.821  16.120  0.00  0.00    +0.000 A 
ATOM      4  C   UNL     1      49.452   8.086  15.093  0.00  0.00    +0.000 A 
ATOM      5  C   UNL     1      48.331   8.839  15.412  0.00  0.00    +0.000 A 
ATOM      6  N   UNL     1      48.076   9.338  16.641  0.00  0.00    +0.000 NA
ENDROOT
BRANCH   1   8
ATOM      7  C   UNL     1      48.009  11.061  18.894  0.00  0.00    +0.000 C 
ATOM      8  C   UNL     1      48.699   9.697  19.021  0.00  0.00    +0.000 C 
BRANCH   8   9
ATOM      9  N   UNL     1      47.873   8.772  19.825  0.00  0.00    +0.000 NA
ATOM     10  H   UNL     1      47.103   8.455  19.233  0.00  0.00    +0.000 HD
BRANCH   9  11
ATOM     11  C   UNL     1      48.580   7.661  20.437  0.00  0.00    +0.000 C 
BRANCH  11  12
ATOM     12  C   UNL     1      47.675   6.412  20.555  0.00  0.00    +0.000 C 
ATOM     13  C   UNL     1      48.423   5.132  20.962  0.00  0.00    +0.000 C 
ATOM     14  C   UNL     1      49.338   4.615  19.852  0.00  0.00    +0.000 C 
ATOM     15  N   UNL     1      48.598   4.378  18.596  0.00  0.00    +0.000 NA
ATOM     16  C   UNL     1      47.900   5.592  18.150  0.00  0.00    +0.000 C 
ATOM     17  C   UNL     1      46.956   6.139  19.228  0.00  0.00    +0.000 C 
BRANCH  15  18
ATOM     18  C   UNL     1      49.530   3.859  17.571  0.00  0.00    +0.000 C 
BRANCH  18  19
ATOM     19  C   UNL     1      49.156   2.503  16.965  0.00  0.00    +0.000 C 
ATOM     20  F   UNL     1      50.278   1.733  16.893  0.00  0.00    +0.000 F 
ENDBRANCH  18  19
ENDBRANCH  15  18
ENDBRANCH  11  12
ENDBRANCH   9  11
ENDBRANCH   8   9
ENDBRANCH   1   8
BRANCH   4  21
ATOM     21  C   UNL     1      49.625   7.529  13.712  0.00  0.00    +0.000 C 
BRANCH  21  22
ATOM     22  N   UNL     1      48.342   7.270  13.104  0.00  0.00    +0.000 N 
ATOM     23  C   UNL     1      47.612   6.158  13.428  0.00  0.00    +0.000 C 
ATOM     24  O   UNL     1      47.995   5.357  14.277  0.00  0.00    +0.000 OA
ATOM     25  H   UNL     1      48.115   7.783  12.254  0.00  0.00    +0.000 HD
BRANCH  23  26
ATOM     26  C   UNL     1      46.316   6.006  12.758  0.00  0.00    +0.000 A 
ATOM     27  C   UNL     1      45.667   7.127  12.258  0.00  0.00    +0.000 A 
ATOM     28  S   UNL     1      44.200   6.774  11.466  0.00  0.00    +0.000 S 
ATOM     29  C   UNL     1      44.353   5.114  11.804  0.00  0.00    +0.000 A 
ATOM     30  N   UNL     1      43.397   4.230  11.412  0.00  0.00    +0.000 NA
ATOM     31  C   UNL     1      43.622   3.008  11.765  0.00  0.00    +0.000 A 
ATOM     32  N   UNL     1      44.723   2.589  12.470  0.00  0.00    +0.000 N 
ATOM     33  C   UNL     1      45.729   3.440  12.855  0.00  0.00    +0.000 A 
ATOM     34  O   UNL     1      46.728   3.028  13.436  0.00  0.00    +0.000 OA
ATOM     35  C   UNL     1      45.516   4.831  12.499  0.00  0.00    +0.000 A 
ATOM     36  H   UNL     1      44.844   1.616  12.705  0.00  0.00    +0.000 HD
ENDBRANCH  23  26
ENDBRANCH  21  22
ENDBRANCH   4  21
TORSDOF 9
ENDMDL
