MODEL 1
REMARK VINA RESULT:    -7.615      0.000      0.000
REMARK INTER + INTRA:         -11.359
REMARK INTER:                 -10.285
REMARK INTRA:                  -1.074
REMARK UNBOUND:                -1.074
REMARK  Name = 
REMARK  8 active torsions:
REMARK  status: ('A' for Active; 'I' for Inactive)
REMARK    1  A    between atoms: C_1  and  C_2
REMARK    2  A    between atoms: C_2  and  C_3
REMARK    3  A    between atoms: C_2  and  C_4
REMARK    4  A    between atoms: C_8  and  C_9
REMARK    5  A    between atoms: C_9  and  C_10
REMARK    6  A    between atoms: C_10  and  O_11
REMARK    7  A    between atoms: O_11  and  C_12
REMARK    8  A    between atoms: C_16  and  C_17
REMARK                            x       y       z     vdW  Elec       q    Type
REMARK                         _______ _______ _______ _____ _____    ______ ____
ROOT
ATOM      1  O   UNL     1      43.599   2.536  10.385  0.00  0.00    +0.000 OA
ENDROOT
BRANCH   1   2
ATOM      2  C   UNL     1      44.548   2.948   9.479  0.00  0.00    +0.000 A 
ATOM      3  C   UNL     1      44.796   4.282   9.138  0.00  0.00    +0.000 A 
ATOM      4  C   UNL     1      45.770   4.606   8.193  0.00  0.00    +0.000 A 
ATOM      5  C   UNL     1      46.519   3.599   7.593  0.00  0.00    +0.000 A 
ATOM      6  C   UNL     1      46.313   2.263   7.954  0.00  0.00    +0.000 A 
ATOM      7  C   UNL     1      45.324   1.938   8.896  0.00  0.00    +0.000 A 
BRANCH   6   8
ATOM      8  C   UNL     1      47.168   1.239   7.299  0.00  0.00    +0.000 C 
ATOM      9  N   UNL     1      48.168   1.682   6.482  0.00  0.00    +0.000 N 
ATOM     10  O   UNL     1      46.957   0.039   7.436  0.00  0.00    +0.000 OA
ATOM     11  H   UNL     1      48.217   2.636   6.154  0.00  0.00    +0.000 HD
ATOM     12  H   UNL     1      48.636   0.972   5.934  0.00  0.00    +0.000 HD
ENDBRANCH   6   8
ENDBRANCH   1   2
BRANCH   1  13
ATOM     13  C   UNL     1      43.227   3.524  11.358  0.00  0.00    +0.000 C 
BRANCH  13  14
ATOM     14  C   UNL     1      43.991   3.311  12.666  0.00  0.00    +0.000 C 
BRANCH  14  19
ATOM     15  C   UNL     1      45.630   6.770  12.875  0.00  0.00    +0.000 A 
ATOM     16  C   UNL     1      46.899   6.415  13.362  0.00  0.00    +0.000 A 
ATOM     17  C   UNL     1      47.235   5.080  13.585  0.00  0.00    +0.000 A 
ATOM     18  C   UNL     1      46.305   4.073  13.333  0.00  0.00    +0.000 A 
ATOM     19  C   UNL     1      45.032   4.393  12.847  0.00  0.00    +0.000 A 
ATOM     20  C   UNL     1      44.709   5.742  12.612  0.00  0.00    +0.000 A 
BRANCH  15  22
ATOM     21  C   UNL     1      46.602   9.077  12.734  0.00  0.00    +0.000 C 
ATOM     22  C   UNL     1      45.325   8.240  12.627  0.00  0.00    +0.000 C 
ATOM     23  C   UNL     1      44.613   8.526  11.301  0.00  0.00    +0.000 C 
ENDBRANCH  15  22
ENDBRANCH  14  19
ENDBRANCH  13  14
ENDBRANCH   1  13
TORSDOF 6
ENDMDL
MODEL 2
REMARK VINA RESULT:    -7.319      2.815      6.586
REMARK INTER + INTRA:         -10.960
REMARK INTER:                 -10.063
REMARK INTRA:                  -0.898
REMARK UNBOUND:                -1.074
REMARK  Name = 
REMARK  8 active torsions:
REMARK  status: ('A' for Active; 'I' for Inactive)
REMARK    1  A    between atoms: C_1  and  C_2
REMARK    2  A    between atoms: C_2  and  C_3
REMARK    3  A    between atoms: C_2  and  C_4
REMARK    4  A    between atoms: C_8  and  C_9
REMARK    5  A    between atoms: C_9  and  C_10
REMARK    6  A    between atoms: C_10  and  O_11
REMARK    7  A    between atoms: O_11  and  C_12
REMARK    8  A    between atoms: C_16  and  C_17
REMARK                            x       y       z     vdW  Elec       q    Type
REMARK                         _______ _______ _______ _____ _____    ______ ____
ROOT
ATOM      1  O   UNL     1      44.435   3.665  13.160  0.00  0.00    +0.000 OA
ENDROOT
BRANCH   1   2
ATOM      2  C   UNL     1      45.349   4.689  13.250  0.00  0.00    +0.000 A 
ATOM      3  C   UNL     1      46.659   4.547  13.720  0.00  0.00    +0.000 A 
ATOM      4  C   UNL     1      47.513   5.648  13.791  0.00  0.00    +0.000 A 
ATOM      5  C   UNL     1      47.071   6.900  13.376  0.00  0.00    +0.000 A 
ATOM      6  C   UNL     1      45.777   7.050  12.862  0.00  0.00    +0.000 A 
ATOM      7  C   UNL     1      44.915   5.944  12.803  0.00  0.00    +0.000 A 
BRANCH   6   8
ATOM      8  C   UNL     1      45.378   8.406  12.406  0.00  0.00    +0.000 C 
ATOM      9  N   UNL     1      44.208   8.520  11.711  0.00  0.00    +0.000 N 
ATOM     10  O   UNL     1      46.093   9.386  12.591  0.00  0.00    +0.000 OA
ATOM     11  H   UNL     1      43.725   7.719  11.331  0.00  0.00    +0.000 HD
ATOM     12  H   UNL     1      44.034   9.421  11.285  0.00  0.00    +0.000 HD
ENDBRANCH   6   8
ENDBRANCH   1   2
BRANCH   1  13
ATOM     13  C   UNL     1      43.480   3.802  12.098  0.00  0.00    +0.000 C 
BRANCH  13  14
ATOM     14  C   UNL     1      43.645   2.677  11.073  0.00  0.00    +0.000 C 
BRANCH  14  19
ATOM     15  C   UNL     1      45.964   2.531   8.023  0.00  0.00    +0.000 A 
ATOM     16  C   UNL     1      46.225   3.899   7.843  0.00  0.00    +0.000 A 
ATOM     17  C   UNL     1      45.693   4.852   8.712  0.00  0.00    +0.000 A 
ATOM     18  C   UNL     1      44.881   4.456   9.774  0.00  0.00    +0.000 A 
ATOM     19  C   UNL     1      44.603   3.100   9.981  0.00  0.00    +0.000 A 
ATOM     20  C   UNL     1      45.158   2.147   9.107  0.00  0.00    +0.000 A 
BRANCH  15  22
ATOM     21  C   UNL     1      47.871   2.108   6.452  0.00  0.00    +0.000 C 
ATOM     22  C   UNL     1      46.590   1.534   7.061  0.00  0.00    +0.000 C 
ATOM     23  C   UNL     1      46.863   0.152   7.665  0.00  0.00    +0.000 C 
ENDBRANCH  15  22
ENDBRANCH  14  19
ENDBRANCH  13  14
ENDBRANCH   1  13
TORSDOF 6
ENDMDL
MODEL 3
REMARK VINA RESULT:    -6.768      3.358      6.872
REMARK INTER + INTRA:         -10.216
REMARK INTER:                  -9.332
REMARK INTRA:                  -0.884
REMARK UNBOUND:                -1.074
REMARK  Name = 
REMARK  8 active torsions:
REMARK  status: ('A' for Active; 'I' for Inactive)
REMARK    1  A    between atoms: C_1  and  C_2
REMARK    2  A    between atoms: C_2  and  C_3
REMARK    3  A    between atoms: C_2  and  C_4
REMARK    4  A    between atoms: C_8  and  C_9
REMARK    5  A    between atoms: C_9  and  C_10
REMARK    6  A    between atoms: C_10  and  O_11
REMARK    7  A    between atoms: O_11  and  C_12
REMARK    8  A    between atoms: C_16  and  C_17
REMARK                            x       y       z     vdW  Elec       q    Type
REMARK                         _______ _______ _______ _____ _____    ______ ____
ROOT
ATOM      1  O   UNL     1      45.532   3.047  12.597  0.00  0.00    +0.000 OA
ENDROOT
BRANCH   1   2
ATOM      2  C   UNL     1      46.200   4.144  13.090  0.00  0.00    +0.000 A 
ATOM      3  C   UNL     1      46.346   5.359  12.412  0.00  0.00    +0.000 A 
ATOM      4  C   UNL     1      47.055   6.414  12.985  0.00  0.00    +0.000 A 
ATOM      5  C   UNL     1      47.613   6.270  14.251  0.00  0.00    +0.000 A 
ATOM      6  C   UNL     1      47.440   5.077  14.961  0.00  0.00    +0.000 A 
ATOM      7  C   UNL     1      46.736   4.012  14.378  0.00  0.00    +0.000 A 
BRANCH   6   8
ATOM      8  C   UNL     1      48.033   5.000  16.321  0.00  0.00    +0.000 C 
ATOM      9  N   UNL     1      47.194   5.169  17.386  0.00  0.00    +0.000 N 
ATOM     10  O   UNL     1      49.237   4.848  16.493  0.00  0.00    +0.000 OA
ATOM     11  H   UNL     1      46.259   5.535  17.285  0.00  0.00    +0.000 HD
ATOM     12  H   UNL     1      47.641   5.262  18.289  0.00  0.00    +0.000 HD
ENDBRANCH   6   8
ENDBRANCH   1   2
BRANCH   1  13
ATOM     13  C   UNL     1      44.133   3.253  12.356  0.00  0.00    +0.000 C 
BRANCH  13  14
ATOM     14  C   UNL     1      43.707   2.596  11.041  0.00  0.00    +0.000 C 
BRANCH  14  19
ATOM     15  C   UNL     1      46.239   2.415   8.168  0.00  0.00    +0.000 A 
ATOM     16  C   UNL     1      46.213   3.749   7.729  0.00  0.00    +0.000 A 
ATOM     17  C   UNL     1      45.421   4.700   8.370  0.00  0.00    +0.000 A 
ATOM     18  C   UNL     1      44.631   4.335   9.460  0.00  0.00    +0.000 A 
ATOM     19  C   UNL     1      44.635   3.014   9.922  0.00  0.00    +0.000 A 
ATOM     20  C   UNL     1      45.450   2.066   9.277  0.00  0.00    +0.000 A 
BRANCH  15  22
ATOM     21  C   UNL     1      46.621  -0.004   7.632  0.00  0.00    +0.000 C 
ATOM     22  C   UNL     1      47.140   1.424   7.447  0.00  0.00    +0.000 C 
ATOM     23  C   UNL     1      47.351   1.722   5.959  0.00  0.00    +0.000 C 
ENDBRANCH  15  22
ENDBRANCH  14  19
ENDBRANCH  13  14
ENDBRANCH   1  13
TORSDOF 6
ENDMDL
MODEL 4
REMARK VINA RESULT:    -6.586      3.405      6.949
REMARK INTER + INTRA:          -9.970
REMARK INTER:                  -9.271
REMARK INTRA:                  -0.699
REMARK UNBOUND:                -1.074
REMARK  Name = 
REMARK  8 active torsions:
REMARK  status: ('A' for Active; 'I' for Inactive)
REMARK    1  A    between atoms: C_1  and  C_2
REMARK    2  A    between atoms: C_2  and  C_3
REMARK    3  A    between atoms: C_2  and  C_4
REMARK    4  A    between atoms: C_8  and  C_9
REMARK    5  A    between atoms: C_9  and  C_10
REMARK    6  A    between atoms: C_10  and  O_11
REMARK    7  A    between atoms: O_11  and  C_12
REMARK    8  A    between atoms: C_16  and  C_17
REMARK                            x       y       z     vdW  Elec       q    Type
REMARK                         _______ _______ _______ _____ _____    ______ ____
ROOT
ATOM      1  O   UNL     1      46.927   5.859  12.530  0.00  0.00    +0.000 OA
ENDROOT
BRANCH   1   2
ATOM      2  C   UNL     1      47.475   5.844  13.792  0.00  0.00    +0.000 A 
ATOM      3  C   UNL     1      48.209   6.895  14.353  0.00  0.00    +0.000 A 
ATOM      4  C   UNL     1      48.742   6.785  15.637  0.00  0.00    +0.000 A 
ATOM      5  C   UNL     1      48.530   5.628  16.381  0.00  0.00    +0.000 A 
ATOM      6  C   UNL     1      47.762   4.586  15.851  0.00  0.00    +0.000 A 
ATOM      7  C   UNL     1      47.237   4.693  14.554  0.00  0.00    +0.000 A 
BRANCH   6   8
ATOM      8  C   UNL     1      47.547   3.392  16.710  0.00  0.00    +0.000 C 
ATOM      9  N   UNL     1      48.530   2.445  16.731  0.00  0.00    +0.000 N 
ATOM     10  O   UNL     1      46.506   3.226  17.336  0.00  0.00    +0.000 OA
ATOM     11  H   UNL     1      49.277   2.425  16.052  0.00  0.00    +0.000 HD
ATOM     12  H   UNL     1      48.298   1.579  17.200  0.00  0.00    +0.000 HD
ENDBRANCH   6   8
ENDBRANCH   1   2
BRANCH   1  13
ATOM     13  C   UNL     1      45.564   6.303  12.471  0.00  0.00    +0.000 C 
BRANCH  13  14
ATOM     14  C   UNL     1      45.087   6.396  11.019  0.00  0.00    +0.000 C 
BRANCH  14  19
ATOM     15  C   UNL     1      45.369   3.300   8.775  0.00  0.00    +0.000 A 
ATOM     16  C   UNL     1      44.584   2.392   9.504  0.00  0.00    +0.000 A 
ATOM     17  C   UNL     1      43.944   2.780  10.681  0.00  0.00    +0.000 A 
ATOM     18  C   UNL     1      44.083   4.082  11.157  0.00  0.00    +0.000 A 
ATOM     19  C   UNL     1      44.858   5.012  10.454  0.00  0.00    +0.000 A 
ATOM     20  C   UNL     1      45.486   4.613   9.260  0.00  0.00    +0.000 A 
BRANCH  15  22
ATOM     21  C   UNL     1      46.993   3.892   6.960  0.00  0.00    +0.000 C 
ATOM     22  C   UNL     1      46.025   2.830   7.486  0.00  0.00    +0.000 C 
ATOM     23  C   UNL     1      46.731   1.474   7.588  0.00  0.00    +0.000 C 
ENDBRANCH  15  22
ENDBRANCH  14  19
ENDBRANCH  13  14
ENDBRANCH   1  13
TORSDOF 6
ENDMDL
MODEL 5
REMARK VINA RESULT:    -6.563      1.750      2.440
REMARK INTER + INTRA:          -9.939
REMARK INTER:                  -9.170
REMARK INTRA:                  -0.769
REMARK UNBOUND:                -1.074
REMARK  Name = 
REMARK  8 active torsions:
REMARK  status: ('A' for Active; 'I' for Inactive)
REMARK    1  A    between atoms: C_1  and  C_2
REMARK    2  A    between atoms: C_2  and  C_3
REMARK    3  A    between atoms: C_2  and  C_4
REMARK    4  A    between atoms: C_8  and  C_9
REMARK    5  A    between atoms: C_9  and  C_10
REMARK    6  A    between atoms: C_10  and  O_11
REMARK    7  A    between atoms: O_11  and  C_12
REMARK    8  A    between atoms: C_16  and  C_17
REMARK                            x       y       z     vdW  Elec       q    Type
REMARK                         _______ _______ _______ _____ _____    ______ ____
ROOT
ATOM      1  O   UNL     1      44.040   4.612   9.253  0.00  0.00    +0.000 OA
ENDROOT
BRANCH   1   2
ATOM      2  C   UNL     1      44.706   3.476   8.853  0.00  0.00    +0.000 A 
ATOM      3  C   UNL     1      44.396   2.180   9.281  0.00  0.00    +0.000 A 
ATOM      4  C   UNL     1      45.137   1.087   8.834  0.00  0.00    +0.000 A 
ATOM      5  C   UNL     1      46.186   1.276   7.941  0.00  0.00    +0.000 A 
ATOM      6  C   UNL     1      46.482   2.560   7.470  0.00  0.00    +0.000 A 
ATOM      7  C   UNL     1      45.743   3.661   7.930  0.00  0.00    +0.000 A 
BRANCH   6   8
ATOM      8  C   UNL     1      47.594   2.690   6.493  0.00  0.00    +0.000 C 
ATOM      9  N   UNL     1      47.344   3.379   5.341  0.00  0.00    +0.000 N 
ATOM     10  O   UNL     1      48.682   2.154   6.678  0.00  0.00    +0.000 OA
ATOM     11  H   UNL     1      46.410   3.618   5.045  0.00  0.00    +0.000 HD
ATOM     12  H   UNL     1      48.064   3.325   4.631  0.00  0.00    +0.000 HD
ENDBRANCH   6   8
ENDBRANCH   1   2
BRANCH   1  13
ATOM     13  C   UNL     1      43.914   4.767  10.674  0.00  0.00    +0.000 C 
BRANCH  13  14
ATOM     14  C   UNL     1      44.337   6.174  11.104  0.00  0.00    +0.000 C 
BRANCH  14  19
ATOM     15  C   UNL     1      47.780   7.130  12.492  0.00  0.00    +0.000 A 
ATOM     16  C   UNL     1      47.951   6.119  13.452  0.00  0.00    +0.000 A 
ATOM     17  C   UNL     1      46.989   5.124  13.625  0.00  0.00    +0.000 A 
ATOM     18  C   UNL     1      45.833   5.124  12.847  0.00  0.00    +0.000 A 
ATOM     19  C   UNL     1      45.634   6.117  11.881  0.00  0.00    +0.000 A 
ATOM     20  C   UNL     1      46.617   7.107  11.705  0.00  0.00    +0.000 A 
BRANCH  15  22
ATOM     21  C   UNL     1      49.977   7.659  11.405  0.00  0.00    +0.000 C 
ATOM     22  C   UNL     1      48.872   8.176  12.329  0.00  0.00    +0.000 C 
ATOM     23  C   UNL     1      48.375   9.544  11.846  0.00  0.00    +0.000 C 
ENDBRANCH  15  22
ENDBRANCH  14  19
ENDBRANCH  13  14
ENDBRANCH   1  13
TORSDOF 6
ENDMDL
MODEL 6
REMARK VINA RESULT:    -6.549      2.876      6.519
REMARK INTER + INTRA:          -9.920
REMARK INTER:                  -9.097
REMARK INTRA:                  -0.823
REMARK UNBOUND:                -1.074
REMARK  Name = 
REMARK  8 active torsions:
REMARK  status: ('A' for Active; 'I' for Inactive)
REMARK    1  A    between atoms: C_1  and  C_2
REMARK    2  A    between atoms: C_2  and  C_3
REMARK    3  A    between atoms: C_2  and  C_4
REMARK    4  A    between atoms: C_8  and  C_9
REMARK    5  A    between atoms: C_9  and  C_10
REMARK    6  A    between atoms: C_10  and  O_11
REMARK    7  A    between atoms: O_11  and  C_12
REMARK    8  A    between atoms: C_16  and  C_17
REMARK                            x       y       z     vdW  Elec       q    Type
REMARK                         _______ _______ _______ _____ _____    ______ ____
ROOT
ATOM      1  O   UNL     1      44.521   4.774  12.771  0.00  0.00    +0.000 OA
ENDROOT
BRANCH   1   2
ATOM      2  C   UNL     1      45.325   5.890  12.748  0.00  0.00    +0.000 A 
ATOM      3  C   UNL     1      44.946   7.133  12.227  0.00  0.00    +0.000 A 
ATOM      4  C   UNL     1      45.835   8.207  12.232  0.00  0.00    +0.000 A 
ATOM      5  C   UNL     1      47.107   8.056  12.775  0.00  0.00    +0.000 A 
ATOM      6  C   UNL     1      47.486   6.832  13.339  0.00  0.00    +0.000 A 
ATOM      7  C   UNL     1      46.595   5.748  13.322  0.00  0.00    +0.000 A 
BRANCH   6   8
ATOM      8  C   UNL     1      48.846   6.746  13.931  0.00  0.00    +0.000 C 
ATOM      9  N   UNL     1      49.867   7.350  13.255  0.00  0.00    +0.000 N 
ATOM     10  O   UNL     1      49.065   6.111  14.957  0.00  0.00    +0.000 OA
ATOM     11  H   UNL     1      49.774   7.664  12.300  0.00  0.00    +0.000 HD
ATOM     12  H   UNL     1      50.800   7.152  13.595  0.00  0.00    +0.000 HD
ENDBRANCH   6   8
ENDBRANCH   1   2
BRANCH   1  13
ATOM     13  C   UNL     1      43.624   4.655  11.657  0.00  0.00    +0.000 C 
BRANCH  13  14
ATOM     14  C   UNL     1      43.875   3.351  10.896  0.00  0.00    +0.000 C 
BRANCH  14  19
ATOM     15  C   UNL     1      46.079   2.739   7.819  0.00  0.00    +0.000 A 
ATOM     16  C   UNL     1      46.543   4.043   7.582  0.00  0.00    +0.000 A 
ATOM     17  C   UNL     1      46.182   5.097   8.421  0.00  0.00    +0.000 A 
ATOM     18  C   UNL     1      45.342   4.869   9.510  0.00  0.00    +0.000 A 
ATOM     19  C   UNL     1      44.863   3.582   9.774  0.00  0.00    +0.000 A 
ATOM     20  C   UNL     1      45.246   2.523   8.930  0.00  0.00    +0.000 A 
BRANCH  15  22
ATOM     21  C   UNL     1      47.687   2.088   6.010  0.00  0.00    +0.000 C 
ATOM     22  C   UNL     1      46.523   1.623   6.886  0.00  0.00    +0.000 C 
ATOM     23  C   UNL     1      46.882   0.310   7.591  0.00  0.00    +0.000 C 
ENDBRANCH  15  22
ENDBRANCH  14  19
ENDBRANCH  13  14
ENDBRANCH   1  13
TORSDOF 6
ENDMDL
MODEL 7
REMARK VINA RESULT:    -6.439      1.451      2.154
REMARK INTER + INTRA:          -9.772
REMARK INTER:                  -9.188
REMARK INTRA:                  -0.583
REMARK UNBOUND:                -1.074
REMARK  Name = 
REMARK  8 active torsions:
REMARK  status: ('A' for Active; 'I' for Inactive)
REMARK    1  A    between atoms: C_1  and  C_2
REMARK    2  A    between atoms: C_2  and  C_3
REMARK    3  A    between atoms: C_2  and  C_4
REMARK    4  A    between atoms: C_8  and  C_9
REMARK    5  A    between atoms: C_9  and  C_10
REMARK    6  A    between atoms: C_10  and  O_11
REMARK    7  A    between atoms: O_11  and  C_12
REMARK    8  A    between atoms: C_16  and  C_17
REMARK                            x       y       z     vdW  Elec       q    Type
REMARK                         _______ _______ _______ _____ _____    ______ ____
ROOT
ATOM      1  O   UNL     1      44.636   5.014   9.431  0.00  0.00    +0.000 OA
ENDROOT
BRANCH   1   2
ATOM      2  C   UNL     1      45.046   3.776   8.994  0.00  0.00    +0.000 A 
ATOM      3  C   UNL     1      44.520   2.560   9.443  0.00  0.00    +0.000 A 
ATOM      4  C   UNL     1      45.010   1.349   8.954  0.00  0.00    +0.000 A 
ATOM      5  C   UNL     1      46.020   1.342   7.997  0.00  0.00    +0.000 A 
ATOM      6  C   UNL     1      46.527   2.551   7.506  0.00  0.00    +0.000 A 
ATOM      7  C   UNL     1      46.042   3.768   8.008  0.00  0.00    +0.000 A 
BRANCH   6   8
ATOM      8  C   UNL     1      47.581   2.475   6.462  0.00  0.00    +0.000 C 
ATOM      9  N   UNL     1      47.412   3.231   5.338  0.00  0.00    +0.000 N 
ATOM     10  O   UNL     1      48.543   1.722   6.570  0.00  0.00    +0.000 OA
ATOM     11  H   UNL     1      46.531   3.665   5.105  0.00  0.00    +0.000 HD
ATOM     12  H   UNL     1      48.061   3.049   4.583  0.00  0.00    +0.000 HD
ENDBRANCH   6   8
ENDBRANCH   1   2
BRANCH   1  13
ATOM     13  C   UNL     1      44.178   5.052  10.790  0.00  0.00    +0.000 C 
BRANCH  13  14
ATOM     14  C   UNL     1      45.349   4.889  11.761  0.00  0.00    +0.000 C 
BRANCH  14  19
ATOM     15  C   UNL     1      45.548   8.670  12.360  0.00  0.00    +0.000 A 
ATOM     16  C   UNL     1      46.691   8.734  13.173  0.00  0.00    +0.000 A 
ATOM     17  C   UNL     1      47.408   7.582  13.494  0.00  0.00    +0.000 A 
ATOM     18  C   UNL     1      46.992   6.341  13.015  0.00  0.00    +0.000 A 
ATOM     19  C   UNL     1      45.857   6.244  12.202  0.00  0.00    +0.000 A 
ATOM     20  C   UNL     1      45.150   7.415  11.871  0.00  0.00    +0.000 A 
BRANCH  15  22
ATOM     21  C   UNL     1      45.816  11.064  11.666  0.00  0.00    +0.000 C 
ATOM     22  C   UNL     1      44.817   9.961  12.021  0.00  0.00    +0.000 C 
ATOM     23  C   UNL     1      43.763   9.824  10.916  0.00  0.00    +0.000 C 
ENDBRANCH  15  22
ENDBRANCH  14  19
ENDBRANCH  13  14
ENDBRANCH   1  13
TORSDOF 6
ENDMDL
MODEL 8
REMARK VINA RESULT:    -6.355      1.955      3.496
REMARK INTER + INTRA:          -9.658
REMARK INTER:                  -9.061
REMARK INTRA:                  -0.596
REMARK UNBOUND:                -1.074
REMARK  Name = 
REMARK  8 active torsions:
REMARK  status: ('A' for Active; 'I' for Inactive)
REMARK    1  A    between atoms: C_1  and  C_2
REMARK    2  A    between atoms: C_2  and  C_3
REMARK    3  A    between atoms: C_2  and  C_4
REMARK    4  A    between atoms: C_8  and  C_9
REMARK    5  A    between atoms: C_9  and  C_10
REMARK    6  A    between atoms: C_10  and  O_11
REMARK    7  A    between atoms: O_11  and  C_12
REMARK    8  A    between atoms: C_16  and  C_17
REMARK                            x       y       z     vdW  Elec       q    Type
REMARK                         _______ _______ _______ _____ _____    ______ ____
ROOT
ATOM      1  O   UNL     1      45.069   5.405   9.532  0.00  0.00    +0.000 OA
ENDROOT
BRANCH   1   2
ATOM      2  C   UNL     1      45.260   4.108   9.117  0.00  0.00    +0.000 A 
ATOM      3  C   UNL     1      44.597   2.997   9.649  0.00  0.00    +0.000 A 
ATOM      4  C   UNL     1      44.866   1.713   9.175  0.00  0.00    +0.000 A 
ATOM      5  C   UNL     1      45.790   1.529   8.151  0.00  0.00    +0.000 A 
ATOM      6  C   UNL     1      46.430   2.634   7.579  0.00  0.00    +0.000 A 
ATOM      7  C   UNL     1      46.167   3.924   8.065  0.00  0.00    +0.000 A 
BRANCH   6   8
ATOM      8  C   UNL     1      47.381   2.371   6.468  0.00  0.00    +0.000 C 
ATOM      9  N   UNL     1      47.349   3.218   5.397  0.00  0.00    +0.000 N 
ATOM     10  O   UNL     1      48.130   1.401   6.475  0.00  0.00    +0.000 OA
ATOM     11  H   UNL     1      46.593   3.869   5.244  0.00  0.00    +0.000 HD
ATOM     12  H   UNL     1      47.896   2.934   4.594  0.00  0.00    +0.000 HD
ENDBRANCH   6   8
ENDBRANCH   1   2
BRANCH   1  13
ATOM     13  C   UNL     1      45.919   5.824  10.610  0.00  0.00    +0.000 C 
BRANCH  13  14
ATOM     14  C   UNL     1      45.213   5.648  11.956  0.00  0.00    +0.000 C 
BRANCH  14  19
ATOM     15  C   UNL     1      47.152   4.839  15.163  0.00  0.00    +0.000 A 
ATOM     16  C   UNL     1      48.172   5.801  15.087  0.00  0.00    +0.000 A 
ATOM     17  C   UNL     1      48.215   6.720  14.038  0.00  0.00    +0.000 A 
ATOM     18  C   UNL     1      47.242   6.689  13.040  0.00  0.00    +0.000 A 
ATOM     19  C   UNL     1      46.212   5.744  13.088  0.00  0.00    +0.000 A 
ATOM     20  C   UNL     1      46.170   4.832  14.158  0.00  0.00    +0.000 A 
BRANCH  15  22
ATOM     21  C   UNL     1      48.283   2.867  16.220  0.00  0.00    +0.000 C 
ATOM     22  C   UNL     1      47.139   3.877  16.341  0.00  0.00    +0.000 C 
ATOM     23  C   UNL     1      47.173   4.554  17.716  0.00  0.00    +0.000 C 
ENDBRANCH  15  22
ENDBRANCH  14  19
ENDBRANCH  13  14
ENDBRANCH   1  13
TORSDOF 6
ENDMDL
MODEL 9
REMARK VINA RESULT:    -6.193      4.634      7.484
REMARK INTER + INTRA:          -9.438
REMARK INTER:                  -8.859
REMARK INTRA:                  -0.579
REMARK UNBOUND:                -1.074
REMARK  Name = 
REMARK  8 active torsions:
REMARK  status: ('A' for Active; 'I' for Inactive)
REMARK    1  A    between atoms: C_1  and  C_2
REMARK    2  A    between atoms: C_2  and  C_3
REMARK    3  A    between atoms: C_2  and  C_4
REMARK    4  A    between atoms: C_8  and  C_9
REMARK    5  A    between atoms: C_9  and  C_10
REMARK    6  A    between atoms: C_10  and  O_11
REMARK    7  A    between atoms: O_11  and  C_12
REMARK    8  A    between atoms: C_16  and  C_17
REMARK                            x       y       z     vdW  Elec       q    Type
REMARK                         _______ _______ _______ _____ _____    ______ ____
ROOT
ATOM      1  O   UNL     1      46.494   3.917  15.613  0.00  0.00    +0.000 OA
ENDROOT
BRANCH   1   2
ATOM      2  C   UNL     1      47.452   4.002  16.596  0.00  0.00    +0.000 A 
ATOM      3  C   UNL     1      47.405   4.888  17.679  0.00  0.00    +0.000 A 
ATOM      4  C   UNL     1      48.433   4.915  18.621  0.00  0.00    +0.000 A 
ATOM      5  C   UNL     1      49.511   4.044  18.501  0.00  0.00    +0.000 A 
ATOM      6  C   UNL     1      49.552   3.122  17.448  0.00  0.00    +0.000 A 
ATOM      7  C   UNL     1      48.523   3.105  16.493  0.00  0.00    +0.000 A 
BRANCH   6   8
ATOM      8  C   UNL     1      50.714   2.199  17.395  0.00  0.00    +0.000 C 
ATOM      9  N   UNL     1      51.778   2.476  18.205  0.00  0.00    +0.000 N 
ATOM     10  O   UNL     1      50.752   1.252  16.616  0.00  0.00    +0.000 OA
ATOM     11  H   UNL     1      51.887   3.366  18.669  0.00  0.00    +0.000 HD
ATOM     12  H   UNL     1      52.611   1.925  18.043  0.00  0.00    +0.000 HD
ENDBRANCH   6   8
ENDBRANCH   1   2
BRANCH   1  13
ATOM     13  C   UNL     1      46.995   4.016  14.273  0.00  0.00    +0.000 C 
BRANCH  13  14
ATOM     14  C   UNL     1      46.593   5.350  13.641  0.00  0.00    +0.000 C 
BRANCH  14  19
ATOM     15  C   UNL     1      44.475   4.318  10.617  0.00  0.00    +0.000 A 
ATOM     16  C   UNL     1      43.192   4.628  11.094  0.00  0.00    +0.000 A 
ATOM     17  C   UNL     1      43.012   5.196  12.355  0.00  0.00    +0.000 A 
ATOM     18  C   UNL     1      44.114   5.456  13.169  0.00  0.00    +0.000 A 
ATOM     19  C   UNL     1      45.406   5.158  12.722  0.00  0.00    +0.000 A 
ATOM     20  C   UNL     1      45.576   4.601  11.442  0.00  0.00    +0.000 A 
BRANCH  15  22
ATOM     21  C   UNL     1      45.666   4.488   8.417  0.00  0.00    +0.000 C 
ATOM     22  C   UNL     1      44.615   3.723   9.224  0.00  0.00    +0.000 C 
ATOM     23  C   UNL     1      44.919   2.221   9.201  0.00  0.00    +0.000 C 
ENDBRANCH  15  22
ENDBRANCH  14  19
ENDBRANCH  13  14
ENDBRANCH   1  13
TORSDOF 6
ENDMDL
