MODEL 1
REMARK VINA RESULT:    -8.038      0.000      0.000
REMARK INTER + INTRA:         -11.298
REMARK INTER:                 -10.622
REMARK INTRA:                  -0.675
REMARK UNBOUND:                -0.675
REMARK  Name = 
REMARK  7 active torsions:
REMARK  status: ('A' for Active; 'I' for Inactive)
REMARK    1  A    between atoms: C_1  and  C_2
REMARK    2  A    between atoms: C_2  and  C_3
REMARK    3  A    between atoms: C_2  and  C_13
REMARK    4  A    between atoms: C_3  and  C_4
REMARK    5  A    between atoms: C_7  and  C_8
REMARK    6  A    between atoms: C_17  and  C_18
REMARK    7  A    between atoms: C_18  and  N_19
REMARK                            x       y       z     vdW  Elec       q    Type
REMARK                         _______ _______ _______ _____ _____    ______ ____
ROOT
ATOM      1  C   UNL     1      42.600   5.122  12.318  0.00  0.00    +0.000 C 
ATOM      2  C   UNL     1      43.828   4.565  11.585  0.00  0.00    +0.000 C 
ENDROOT
BRANCH   2   3
ATOM      3  C   UNL     1      45.113   5.087  12.225  0.00  0.00    +0.000 A 
ATOM      4  C   UNL     1      45.796   6.157  11.630  0.00  0.00    +0.000 A 
ATOM      5  C   UNL     1      46.998   6.627  12.165  0.00  0.00    +0.000 A 
ATOM      6  C   UNL     1      47.525   6.054  13.322  0.00  0.00    +0.000 A 
ATOM      7  C   UNL     1      46.848   5.012  13.963  0.00  0.00    +0.000 A 
ATOM      8  C   UNL     1      45.655   4.521  13.394  0.00  0.00    +0.000 A 
BRANCH   7   9
ATOM      9  C   UNL     1      47.386   4.417  15.243  0.00  0.00    +0.000 C 
BRANCH   9  10
ATOM     10  N   UNL     1      47.698   2.999  15.082  0.00  0.00    +0.000 NA
ATOM     11  H   UNL     1      47.769   2.578  16.007  0.00  0.00    +0.000 HD
ATOM     12  H   UNL     1      48.614   2.904  14.649  0.00  0.00    +0.000 HD
ENDBRANCH   9  10
ENDBRANCH   7   9
ENDBRANCH   2   3
BRANCH   2  13
ATOM     13  C   UNL     1      43.780   4.846  10.066  0.00  0.00    +0.000 C 
BRANCH  13  14
ATOM     14  C   UNL     1      44.718   3.971   9.259  0.00  0.00    +0.000 A 
ATOM     15  C   UNL     1      45.583   4.536   8.320  0.00  0.00    +0.000 A 
ATOM     16  C   UNL     1      46.430   3.700   7.590  0.00  0.00    +0.000 A 
ATOM     17  C   UNL     1      46.406   2.321   7.808  0.00  0.00    +0.000 A 
ATOM     18  C   UNL     1      45.523   1.847   8.761  0.00  0.00    +0.000 A 
ATOM     19  N   UNL     1      44.686   2.636   9.490  0.00  0.00    +0.000 NA
BRANCH  17  20
ATOM     20  C   UNL     1      47.312   1.454   7.006  0.00  0.00    +0.000 C 
ATOM     21  N   UNL     1      48.462   1.990   6.491  0.00  0.00    +0.000 N 
ATOM     22  O   UNL     1      47.046   0.276   6.800  0.00  0.00    +0.000 OA
ATOM     23  H   UNL     1      48.778   2.940   6.599  0.00  0.00    +0.000 HD
ATOM     24  H   UNL     1      49.047   1.362   5.954  0.00  0.00    +0.000 HD
ENDBRANCH  17  20
ENDBRANCH  13  14
ENDBRANCH   2  13
TORSDOF 6
ENDMDL
MODEL 2
REMARK VINA RESULT:    -7.944      1.573      2.243
REMARK INTER + INTRA:         -11.173
REMARK INTER:                 -10.343
REMARK INTRA:                  -0.830
REMARK UNBOUND:                -0.675
REMARK  Name = 
REMARK  7 active torsions:
REMARK  status: ('A' for Active; 'I' for Inactive)
REMARK    1  A    between atoms: C_1  and  C_2
REMARK    2  A    between atoms: C_2  and  C_3
REMARK    3  A    between atoms: C_2  and  C_13
REMARK    4  A    between atoms: C_3  and  C_4
REMARK    5  A    between atoms: C_7  and  C_8
REMARK    6  A    between atoms: C_17  and  C_18
REMARK    7  A    between atoms: C_18  and  N_19
REMARK                            x       y       z     vdW  Elec       q    Type
REMARK                         _______ _______ _______ _____ _____    ______ ____
ROOT
ATOM      1  C   UNL     1      42.529   5.031  12.304  0.00  0.00    +0.000 C 
ATOM      2  C   UNL     1      43.786   4.524  11.583  0.00  0.00    +0.000 C 
ENDROOT
BRANCH   2   3
ATOM      3  C   UNL     1      45.044   5.018  12.294  0.00  0.00    +0.000 A 
ATOM      4  C   UNL     1      45.862   4.101  12.971  0.00  0.00    +0.000 A 
ATOM      5  C   UNL     1      46.993   4.529  13.669  0.00  0.00    +0.000 A 
ATOM      6  C   UNL     1      47.345   5.878  13.681  0.00  0.00    +0.000 A 
ATOM      7  C   UNL     1      46.574   6.813  12.984  0.00  0.00    +0.000 A 
ATOM      8  C   UNL     1      45.414   6.376  12.313  0.00  0.00    +0.000 A 
BRANCH   7   9
ATOM      9  C   UNL     1      46.973   8.269  12.951  0.00  0.00    +0.000 C 
BRANCH   9  10
ATOM     10  N   UNL     1      47.009   8.842  14.294  0.00  0.00    +0.000 NA
ATOM     11  H   UNL     1      47.901   9.321  14.417  0.00  0.00    +0.000 HD
ATOM     12  H   UNL     1      46.986   8.092  14.980  0.00  0.00    +0.000 HD
ENDBRANCH   9  10
ENDBRANCH   7   9
ENDBRANCH   2   3
BRANCH   2  13
ATOM     13  C   UNL     1      43.785   4.890  10.082  0.00  0.00    +0.000 C 
BRANCH  13  14
ATOM     14  C   UNL     1      44.737   4.049   9.254  0.00  0.00    +0.000 A 
ATOM     15  C   UNL     1      44.762   2.660   9.396  0.00  0.00    +0.000 A 
ATOM     16  C   UNL     1      45.655   1.916   8.623  0.00  0.00    +0.000 A 
ATOM     17  C   UNL     1      46.502   2.561   7.721  0.00  0.00    +0.000 A 
ATOM     18  C   UNL     1      46.406   3.939   7.640  0.00  0.00    +0.000 A 
ATOM     19  N   UNL     1      45.546   4.693   8.379  0.00  0.00    +0.000 NA
BRANCH  17  20
ATOM     20  C   UNL     1      47.451   1.743   6.918  0.00  0.00    +0.000 C 
ATOM     21  N   UNL     1      48.547   2.347   6.364  0.00  0.00    +0.000 N 
ATOM     22  O   UNL     1      47.266   0.544   6.745  0.00  0.00    +0.000 OA
ATOM     23  H   UNL     1      48.795   3.320   6.443  0.00  0.00    +0.000 HD
ATOM     24  H   UNL     1      49.164   1.751   5.828  0.00  0.00    +0.000 HD
ENDBRANCH  17  20
ENDBRANCH  13  14
ENDBRANCH   2  13
TORSDOF 6
ENDMDL
MODEL 3
REMARK VINA RESULT:    -7.904      2.138      2.812
REMARK INTER + INTRA:         -11.121
REMARK INTER:                 -10.403
REMARK INTRA:                  -0.718
REMARK UNBOUND:                -0.675
REMARK  Name = 
REMARK  7 active torsions:
REMARK  status: ('A' for Active; 'I' for Inactive)
REMARK    1  A    between atoms: C_1  and  C_2
REMARK    2  A    between atoms: C_2  and  C_3
REMARK    3  A    between atoms: C_2  and  C_13
REMARK    4  A    between atoms: C_3  and  C_4
REMARK    5  A    between atoms: C_7  and  C_8
REMARK    6  A    between atoms: C_17  and  C_18
REMARK    7  A    between atoms: C_18  and  N_19
REMARK                            x       y       z     vdW  Elec       q    Type
REMARK                         _______ _______ _______ _____ _____    ______ ____
ROOT
ATOM      1  C   UNL     1      42.898   4.848  12.638  0.00  0.00    +0.000 C 
ATOM      2  C   UNL     1      44.136   4.712  11.741  0.00  0.00    +0.000 C 
ENDROOT
BRANCH   2   3
ATOM      3  C   UNL     1      45.182   5.761  12.112  0.00  0.00    +0.000 A 
ATOM      4  C   UNL     1      46.410   5.352  12.652  0.00  0.00    +0.000 A 
ATOM      5  C   UNL     1      47.369   6.290  13.044  0.00  0.00    +0.000 A 
ATOM      6  C   UNL     1      47.128   7.654  12.878  0.00  0.00    +0.000 A 
ATOM      7  C   UNL     1      45.931   8.093  12.306  0.00  0.00    +0.000 A 
ATOM      8  C   UNL     1      44.956   7.140  11.948  0.00  0.00    +0.000 A 
BRANCH   7   9
ATOM      9  C   UNL     1      45.681   9.565  12.078  0.00  0.00    +0.000 C 
BRANCH   9  10
ATOM     10  N   UNL     1      44.372   9.968  12.583  0.00  0.00    +0.000 NA
ATOM     11  H   UNL     1      44.207  10.937  12.315  0.00  0.00    +0.000 HD
ATOM     12  H   UNL     1      44.383   9.947  13.600  0.00  0.00    +0.000 HD
ENDBRANCH   9  10
ENDBRANCH   7   9
ENDBRANCH   2   3
BRANCH   2  13
ATOM     13  C   UNL     1      43.776   4.756  10.238  0.00  0.00    +0.000 C 
BRANCH  13  14
ATOM     14  C   UNL     1      44.729   3.964   9.365  0.00  0.00    +0.000 A 
ATOM     15  C   UNL     1      44.797   2.573   9.470  0.00  0.00    +0.000 A 
ATOM     16  C   UNL     1      45.690   1.875   8.656  0.00  0.00    +0.000 A 
ATOM     17  C   UNL     1      46.494   2.568   7.749  0.00  0.00    +0.000 A 
ATOM     18  C   UNL     1      46.357   3.943   7.705  0.00  0.00    +0.000 A 
ATOM     19  N   UNL     1      45.496   4.653   8.486  0.00  0.00    +0.000 NA
BRANCH  17  20
ATOM     20  C   UNL     1      47.444   1.797   6.901  0.00  0.00    +0.000 C 
ATOM     21  N   UNL     1      48.515   2.444   6.346  0.00  0.00    +0.000 N 
ATOM     22  O   UNL     1      47.282   0.601   6.691  0.00  0.00    +0.000 OA
ATOM     23  H   UNL     1      48.744   3.419   6.453  0.00  0.00    +0.000 HD
ATOM     24  H   UNL     1      49.134   1.880   5.778  0.00  0.00    +0.000 HD
ENDBRANCH  17  20
ENDBRANCH  13  14
ENDBRANCH   2  13
TORSDOF 6
ENDMDL
MODEL 4
REMARK VINA RESULT:    -7.732      1.555      1.954
REMARK INTER + INTRA:         -10.894
REMARK INTER:                 -10.174
REMARK INTRA:                  -0.719
REMARK UNBOUND:                -0.675
REMARK  Name = 
REMARK  7 active torsions:
REMARK  status: ('A' for Active; 'I' for Inactive)
REMARK    1  A    between atoms: C_1  and  C_2
REMARK    2  A    between atoms: C_2  and  C_3
REMARK    3  A    between atoms: C_2  and  C_13
REMARK    4  A    between atoms: C_3  and  C_4
REMARK    5  A    between atoms: C_7  and  C_8
REMARK    6  A    between atoms: C_17  and  C_18
REMARK    7  A    between atoms: C_18  and  N_19
REMARK                            x       y       z     vdW  Elec       q    Type
REMARK                         _______ _______ _______ _____ _____    ______ ____
ROOT
ATOM      1  C   UNL     1      43.091   4.612  12.743  0.00  0.00    +0.000 C 
ATOM      2  C   UNL     1      44.270   4.672  11.762  0.00  0.00    +0.000 C 
ENDROOT
BRANCH   2   3
ATOM      3  C   UNL     1      45.155   5.879  12.064  0.00  0.00    +0.000 A 
ATOM      4  C   UNL     1      44.756   7.154  11.637  0.00  0.00    +0.000 A 
ATOM      5  C   UNL     1      45.565   8.271  11.858  0.00  0.00    +0.000 A 
ATOM      6  C   UNL     1      46.777   8.138  12.535  0.00  0.00    +0.000 A 
ATOM      7  C   UNL     1      47.186   6.889  13.009  0.00  0.00    +0.000 A 
ATOM      8  C   UNL     1      46.379   5.763  12.749  0.00  0.00    +0.000 A 
BRANCH   7   9
ATOM      9  C   UNL     1      48.474   6.744  13.785  0.00  0.00    +0.000 C 
BRANCH   9  10
ATOM     10  N   UNL     1      49.637   6.812  12.906  0.00  0.00    +0.000 NA
ATOM     11  H   UNL     1      49.333   6.620  11.952  0.00  0.00    +0.000 HD
ATOM     12  H   UNL     1      50.291   6.074  13.155  0.00  0.00    +0.000 HD
ENDBRANCH   9  10
ENDBRANCH   7   9
ENDBRANCH   2   3
BRANCH   2  13
ATOM     13  C   UNL     1      43.805   4.647  10.288  0.00  0.00    +0.000 C 
BRANCH  13  14
ATOM     14  C   UNL     1      44.744   3.887   9.371  0.00  0.00    +0.000 A 
ATOM     15  C   UNL     1      44.830   2.495   9.441  0.00  0.00    +0.000 A 
ATOM     16  C   UNL     1      45.710   1.827   8.587  0.00  0.00    +0.000 A 
ATOM     17  C   UNL     1      46.482   2.551   7.676  0.00  0.00    +0.000 A 
ATOM     18  C   UNL     1      46.329   3.926   7.670  0.00  0.00    +0.000 A 
ATOM     19  N   UNL     1      45.480   4.606   8.490  0.00  0.00    +0.000 NA
BRANCH  17  20
ATOM     20  C   UNL     1      47.418   1.813   6.786  0.00  0.00    +0.000 C 
ATOM     21  N   UNL     1      48.477   2.482   6.233  0.00  0.00    +0.000 N 
ATOM     22  O   UNL     1      47.257   0.623   6.539  0.00  0.00    +0.000 OA
ATOM     23  H   UNL     1      48.705   3.454   6.368  0.00  0.00    +0.000 HD
ATOM     24  H   UNL     1      49.087   1.939   5.635  0.00  0.00    +0.000 HD
ENDBRANCH  17  20
ENDBRANCH  13  14
ENDBRANCH   2  13
TORSDOF 6
ENDMDL
MODEL 5
REMARK VINA RESULT:    -6.473      3.042      6.858
REMARK INTER + INTRA:          -9.229
REMARK INTER:                  -8.529
REMARK INTRA:                  -0.700
REMARK UNBOUND:                -0.675
REMARK  Name = 
REMARK  7 active torsions:
REMARK  status: ('A' for Active; 'I' for Inactive)
REMARK    1  A    between atoms: C_1  and  C_2
REMARK    2  A    between atoms: C_2  and  C_3
REMARK    3  A    between atoms: C_2  and  C_13
REMARK    4  A    between atoms: C_3  and  C_4
REMARK    5  A    between atoms: C_7  and  C_8
REMARK    6  A    between atoms: C_17  and  C_18
REMARK    7  A    between atoms: C_18  and  N_19
REMARK                            x       y       z     vdW  Elec       q    Type
REMARK                         _______ _______ _______ _____ _____    ______ ____
ROOT
ATOM      1  C   UNL     1      45.892   8.215  12.937  0.00  0.00    +0.000 C 
ATOM      2  C   UNL     1      46.530   7.419  11.789  0.00  0.00    +0.000 C 
ENDROOT
BRANCH   2   3
ATOM      3  C   UNL     1      45.526   6.426  11.206  0.00  0.00    +0.000 A 
ATOM      4  C   UNL     1      44.258   6.300  11.791  0.00  0.00    +0.000 A 
ATOM      5  C   UNL     1      43.335   5.369  11.310  0.00  0.00    +0.000 A 
ATOM      6  C   UNL     1      43.653   4.565  10.216  0.00  0.00    +0.000 A 
ATOM      7  C   UNL     1      44.893   4.694   9.584  0.00  0.00    +0.000 A 
ATOM      8  C   UNL     1      45.830   5.611  10.101  0.00  0.00    +0.000 A 
BRANCH   7   9
ATOM      9  C   UNL     1      45.228   3.861   8.369  0.00  0.00    +0.000 C 
BRANCH   9  10
ATOM     10  N   UNL     1      46.331   4.443   7.610  0.00  0.00    +0.000 NA
ATOM     11  H   UNL     1      46.061   5.380   7.315  0.00  0.00    +0.000 HD
ATOM     12  H   UNL     1      46.477   3.903   6.761  0.00  0.00    +0.000 HD
ENDBRANCH   9  10
ENDBRANCH   7   9
ENDBRANCH   2   3
BRANCH   2  13
ATOM     13  C   UNL     1      47.846   6.731  12.218  0.00  0.00    +0.000 C 
BRANCH  13  14
ATOM     14  C   UNL     1      47.730   5.963  13.520  0.00  0.00    +0.000 A 
ATOM     15  C   UNL     1      46.973   4.793  13.588  0.00  0.00    +0.000 A 
ATOM     16  C   UNL     1      46.882   4.114  14.805  0.00  0.00    +0.000 A 
ATOM     17  C   UNL     1      47.548   4.606  15.928  0.00  0.00    +0.000 A 
ATOM     18  C   UNL     1      48.281   5.768  15.770  0.00  0.00    +0.000 A 
ATOM     19  N   UNL     1      48.389   6.453  14.598  0.00  0.00    +0.000 NA
BRANCH  17  20
ATOM     20  C   UNL     1      47.424   3.867  17.214  0.00  0.00    +0.000 C 
ATOM     21  N   UNL     1      48.305   4.140  18.226  0.00  0.00    +0.000 N 
ATOM     22  O   UNL     1      46.553   3.021  17.380  0.00  0.00    +0.000 OA
ATOM     23  H   UNL     1      49.054   4.813  18.200  0.00  0.00    +0.000 HD
ATOM     24  H   UNL     1      48.181   3.614  19.082  0.00  0.00    +0.000 HD
ENDBRANCH  17  20
ENDBRANCH  13  14
ENDBRANCH   2  13
TORSDOF 6
ENDMDL
MODEL 6
REMARK VINA RESULT:    -6.444      2.448      6.535
REMARK INTER + INTRA:          -9.191
REMARK INTER:                  -9.864
REMARK INTRA:                   0.673
REMARK UNBOUND:                -0.675
REMARK  Name = 
REMARK  7 active torsions:
REMARK  status: ('A' for Active; 'I' for Inactive)
REMARK    1  A    between atoms: C_1  and  C_2
REMARK    2  A    between atoms: C_2  and  C_3
REMARK    3  A    between atoms: C_2  and  C_13
REMARK    4  A    between atoms: C_3  and  C_4
REMARK    5  A    between atoms: C_7  and  C_8
REMARK    6  A    between atoms: C_17  and  C_18
REMARK    7  A    between atoms: C_18  and  N_19
REMARK                            x       y       z     vdW  Elec       q    Type
REMARK                         _______ _______ _______ _____ _____    ______ ____
ROOT
ATOM      1  C   UNL     1      43.576   3.837  10.602  0.00  0.00    +0.000 C 
ATOM      2  C   UNL     1      44.451   4.477   9.514  0.00  0.00    +0.000 C 
ENDROOT
BRANCH   2   3
ATOM      3  C   UNL     1      45.192   3.400   8.725  0.00  0.00    +0.000 A 
ATOM      4  C   UNL     1      45.113   2.062   9.137  0.00  0.00    +0.000 A 
ATOM      5  C   UNL     1      45.816   1.061   8.464  0.00  0.00    +0.000 A 
ATOM      6  C   UNL     1      46.591   1.375   7.347  0.00  0.00    +0.000 A 
ATOM      7  C   UNL     1      46.660   2.693   6.886  0.00  0.00    +0.000 A 
ATOM      8  C   UNL     1      45.976   3.700   7.595  0.00  0.00    +0.000 A 
BRANCH   7   9
ATOM      9  C   UNL     1      47.458   3.035   5.650  0.00  0.00    +0.000 C 
BRANCH   9  10
ATOM     10  N   UNL     1      48.432   1.992   5.338  0.00  0.00    +0.000 NA
ATOM     11  H   UNL     1      49.353   2.313   5.632  0.00  0.00    +0.000 HD
ATOM     12  H   UNL     1      48.477   1.866   4.330  0.00  0.00    +0.000 HD
ENDBRANCH   9  10
ENDBRANCH   7   9
ENDBRANCH   2   3
BRANCH   2  13
ATOM     13  C   UNL     1      45.413   5.540  10.091  0.00  0.00    +0.000 C 
BRANCH  13  14
ATOM     14  C   UNL     1      45.908   5.215  11.486  0.00  0.00    +0.000 A 
ATOM     15  C   UNL     1      46.589   6.173  12.239  0.00  0.00    +0.000 A 
ATOM     16  C   UNL     1      47.037   5.838  13.518  0.00  0.00    +0.000 A 
ATOM     17  C   UNL     1      46.795   4.561  14.028  0.00  0.00    +0.000 A 
ATOM     18  C   UNL     1      46.108   3.676  13.218  0.00  0.00    +0.000 A 
ATOM     19  N   UNL     1      45.658   3.973  11.967  0.00  0.00    +0.000 NA
BRANCH  17  20
ATOM     20  C   UNL     1      47.294   4.229  15.390  0.00  0.00    +0.000 C 
ATOM     21  N   UNL     1      47.310   5.205  16.350  0.00  0.00    +0.000 N 
ATOM     22  O   UNL     1      47.691   3.102  15.665  0.00  0.00    +0.000 OA
ATOM     23  H   UNL     1      47.007   6.159  16.235  0.00  0.00    +0.000 HD
ATOM     24  H   UNL     1      47.656   4.932  17.261  0.00  0.00    +0.000 HD
ENDBRANCH  17  20
ENDBRANCH  13  14
ENDBRANCH   2  13
TORSDOF 6
ENDMDL
MODEL 7
REMARK VINA RESULT:    -6.434      2.630      6.113
REMARK INTER + INTRA:          -9.178
REMARK INTER:                  -9.232
REMARK INTRA:                   0.053
REMARK UNBOUND:                -0.675
REMARK  Name = 
REMARK  7 active torsions:
REMARK  status: ('A' for Active; 'I' for Inactive)
REMARK    1  A    between atoms: C_1  and  C_2
REMARK    2  A    between atoms: C_2  and  C_3
REMARK    3  A    between atoms: C_2  and  C_13
REMARK    4  A    between atoms: C_3  and  C_4
REMARK    5  A    between atoms: C_7  and  C_8
REMARK    6  A    between atoms: C_17  and  C_18
REMARK    7  A    between atoms: C_18  and  N_19
REMARK                            x       y       z     vdW  Elec       q    Type
REMARK                         _______ _______ _______ _____ _____    ______ ____
ROOT
ATOM      1  C   UNL     1      43.764   2.538  11.662  0.00  0.00    +0.000 C 
ATOM      2  C   UNL     1      43.588   3.634  10.601  0.00  0.00    +0.000 C 
ENDROOT
BRANCH   2   3
ATOM      3  C   UNL     1      44.655   3.501   9.515  0.00  0.00    +0.000 A 
ATOM      4  C   UNL     1      45.135   4.652   8.874  0.00  0.00    +0.000 A 
ATOM      5  C   UNL     1      46.076   4.560   7.846  0.00  0.00    +0.000 A 
ATOM      6  C   UNL     1      46.576   3.317   7.458  0.00  0.00    +0.000 A 
ATOM      7  C   UNL     1      46.147   2.154   8.104  0.00  0.00    +0.000 A 
ATOM      8  C   UNL     1      45.170   2.255   9.115  0.00  0.00    +0.000 A 
BRANCH   7   9
ATOM      9  C   UNL     1      46.717   0.808   7.724  0.00  0.00    +0.000 C 
BRANCH   9  10
ATOM     10  N   UNL     1      47.803   0.942   6.757  0.00  0.00    +0.000 NA
ATOM     11  H   UNL     1      48.618   0.447   7.117  0.00  0.00    +0.000 HD
ATOM     12  H   UNL     1      48.068   1.922   6.684  0.00  0.00    +0.000 HD
ENDBRANCH   9  10
ENDBRANCH   7   9
ENDBRANCH   2   3
BRANCH   2  13
ATOM     13  C   UNL     1      43.563   5.049  11.222  0.00  0.00    +0.000 C 
BRANCH  13  14
ATOM     14  C   UNL     1      44.777   5.355  12.076  0.00  0.00    +0.000 A 
ATOM     15  C   UNL     1      45.704   6.318  11.673  0.00  0.00    +0.000 A 
ATOM     16  C   UNL     1      46.815   6.570  12.481  0.00  0.00    +0.000 A 
ATOM     17  C   UNL     1      46.981   5.867  13.676  0.00  0.00    +0.000 A 
ATOM     18  C   UNL     1      46.012   4.936  14.002  0.00  0.00    +0.000 A 
ATOM     19  N   UNL     1      44.919   4.667  13.235  0.00  0.00    +0.000 NA
BRANCH  17  20
ATOM     20  C   UNL     1      48.180   6.149  14.511  0.00  0.00    +0.000 C 
ATOM     21  N   UNL     1      48.120   5.925  15.860  0.00  0.00    +0.000 N 
ATOM     22  O   UNL     1      49.214   6.580  14.014  0.00  0.00    +0.000 OA
ATOM     23  H   UNL     1      47.325   5.573  16.371  0.00  0.00    +0.000 HD
ATOM     24  H   UNL     1      48.959   6.130  16.387  0.00  0.00    +0.000 HD
ENDBRANCH  17  20
ENDBRANCH  13  14
ENDBRANCH   2  13
TORSDOF 6
ENDMDL
MODEL 8
REMARK VINA RESULT:    -6.330      3.497      6.437
REMARK INTER + INTRA:          -9.040
REMARK INTER:                  -8.409
REMARK INTRA:                  -0.631
REMARK UNBOUND:                -0.675
REMARK  Name = 
REMARK  7 active torsions:
REMARK  status: ('A' for Active; 'I' for Inactive)
REMARK    1  A    between atoms: C_1  and  C_2
REMARK    2  A    between atoms: C_2  and  C_3
REMARK    3  A    between atoms: C_2  and  C_13
REMARK    4  A    between atoms: C_3  and  C_4
REMARK    5  A    between atoms: C_7  and  C_8
REMARK    6  A    between atoms: C_17  and  C_18
REMARK    7  A    between atoms: C_18  and  N_19
REMARK                            x       y       z     vdW  Elec       q    Type
REMARK                         _______ _______ _______ _____ _____    ______ ____
ROOT
ATOM      1  C   UNL     1      43.250   2.777  11.620  0.00  0.00    +0.000 C 
ATOM      2  C   UNL     1      44.154   3.971  11.282  0.00  0.00    +0.000 C 
ENDROOT
BRANCH   2   3
ATOM      3  C   UNL     1      44.921   3.709   9.987  0.00  0.00    +0.000 A 
ATOM      4  C   UNL     1      45.321   4.791   9.190  0.00  0.00    +0.000 A 
ATOM      5  C   UNL     1      45.983   4.583   7.978  0.00  0.00    +0.000 A 
ATOM      6  C   UNL     1      46.283   3.288   7.554  0.00  0.00    +0.000 A 
ATOM      7  C   UNL     1      45.934   2.190   8.345  0.00  0.00    +0.000 A 
ATOM      8  C   UNL     1      45.234   2.410   9.548  0.00  0.00    +0.000 A 
BRANCH   7   9
ATOM      9  C   UNL     1      46.297   0.787   7.917  0.00  0.00    +0.000 C 
BRANCH   9  10
ATOM     10  N   UNL     1      47.306   0.796   6.861  0.00  0.00    +0.000 NA
ATOM     11  H   UNL     1      47.763   1.706   6.859  0.00  0.00    +0.000 HD
ATOM     12  H   UNL     1      46.848   0.700   5.958  0.00  0.00    +0.000 HD
ENDBRANCH   9  10
ENDBRANCH   7   9
ENDBRANCH   2   3
BRANCH   2  13
ATOM     13  C   UNL     1      45.096   4.339  12.451  0.00  0.00    +0.000 C 
BRANCH  13  14
ATOM     14  C   UNL     1      45.647   5.748  12.361  0.00  0.00    +0.000 A 
ATOM     15  C   UNL     1      47.019   5.982  12.472  0.00  0.00    +0.000 A 
ATOM     16  C   UNL     1      47.493   7.293  12.391  0.00  0.00    +0.000 A 
ATOM     17  C   UNL     1      46.598   8.346  12.197  0.00  0.00    +0.000 A 
ATOM     18  C   UNL     1      45.256   8.025  12.092  0.00  0.00    +0.000 A 
ATOM     19  N   UNL     1      44.764   6.757  12.166  0.00  0.00    +0.000 NA
BRANCH  17  20
ATOM     20  C   UNL     1      47.130   9.734  12.126  0.00  0.00    +0.000 C 
ATOM     21  N   UNL     1      46.332  10.774  12.519  0.00  0.00    +0.000 N 
ATOM     22  O   UNL     1      48.265   9.960  11.721  0.00  0.00    +0.000 OA
ATOM     23  H   UNL     1      45.389  10.704  12.868  0.00  0.00    +0.000 HD
ATOM     24  H   UNL     1      46.737  11.699  12.454  0.00  0.00    +0.000 HD
ENDBRANCH  17  20
ENDBRANCH  13  14
ENDBRANCH   2  13
TORSDOF 6
ENDMDL
MODEL 9
REMARK VINA RESULT:    -6.299      3.126      6.417
REMARK INTER + INTRA:          -9.000
REMARK INTER:                  -8.246
REMARK INTRA:                  -0.754
REMARK UNBOUND:                -0.675
REMARK  Name = 
REMARK  7 active torsions:
REMARK  status: ('A' for Active; 'I' for Inactive)
REMARK    1  A    between atoms: C_1  and  C_2
REMARK    2  A    between atoms: C_2  and  C_3
REMARK    3  A    between atoms: C_2  and  C_13
REMARK    4  A    between atoms: C_3  and  C_4
REMARK    5  A    between atoms: C_7  and  C_8
REMARK    6  A    between atoms: C_17  and  C_18
REMARK    7  A    between atoms: C_18  and  N_19
REMARK                            x       y       z     vdW  Elec       q    Type
REMARK                         _______ _______ _______ _____ _____    ______ ____
ROOT
ATOM      1  C   UNL     1      42.890   5.635  11.492  0.00  0.00    +0.000 C 
ATOM      2  C   UNL     1      44.406   5.483  11.295  0.00  0.00    +0.000 C 
ENDROOT
BRANCH   2   3
ATOM      3  C   UNL     1      44.703   4.385  10.277  0.00  0.00    +0.000 A 
ATOM      4  C   UNL     1      44.200   3.093  10.486  0.00  0.00    +0.000 A 
ATOM      5  C   UNL     1      44.493   2.056   9.597  0.00  0.00    +0.000 A 
ATOM      6  C   UNL     1      45.273   2.298   8.467  0.00  0.00    +0.000 A 
ATOM      7  C   UNL     1      45.758   3.583   8.208  0.00  0.00    +0.000 A 
ATOM      8  C   UNL     1      45.486   4.614   9.130  0.00  0.00    +0.000 A 
BRANCH   7   9
ATOM      9  C   UNL     1      46.564   3.865   6.962  0.00  0.00    +0.000 C 
BRANCH   9  10
ATOM     10  N   UNL     1      47.765   3.037   6.904  0.00  0.00    +0.000 NA
ATOM     11  H   UNL     1      48.214   3.056   7.819  0.00  0.00    +0.000 HD
ATOM     12  H   UNL     1      48.426   3.448   6.249  0.00  0.00    +0.000 HD
ENDBRANCH   9  10
ENDBRANCH   7   9
ENDBRANCH   2   3
BRANCH   2  13
ATOM     13  C   UNL     1      45.147   5.254  12.632  0.00  0.00    +0.000 C 
BRANCH  13  14
ATOM     14  C   UNL     1      46.456   6.011  12.734  0.00  0.00    +0.000 A 
ATOM     15  C   UNL     1      46.883   6.833  11.690  0.00  0.00    +0.000 A 
ATOM     16  C   UNL     1      48.097   7.511  11.814  0.00  0.00    +0.000 A 
ATOM     17  C   UNL     1      48.861   7.366  12.973  0.00  0.00    +0.000 A 
ATOM     18  C   UNL     1      48.360   6.538  13.961  0.00  0.00    +0.000 A 
ATOM     19  N   UNL     1      47.180   5.863  13.870  0.00  0.00    +0.000 NA
BRANCH  17  20
ATOM     20  C   UNL     1      50.156   8.093  13.073  0.00  0.00    +0.000 C 
ATOM     21  N   UNL     1      51.091   7.667  13.978  0.00  0.00    +0.000 N 
ATOM     22  O   UNL     1      50.396   9.064  12.365  0.00  0.00    +0.000 OA
ATOM     23  H   UNL     1      51.000   6.884  14.605  0.00  0.00    +0.000 HD
ATOM     24  H   UNL     1      51.955   8.191  14.009  0.00  0.00    +0.000 HD
ENDBRANCH  17  20
ENDBRANCH  13  14
ENDBRANCH   2  13
TORSDOF 6
ENDMDL
