MODEL 1
REMARK VINA RESULT:    -7.742      0.000      0.000
REMARK INTER + INTRA:         -10.147
REMARK INTER:                  -9.552
REMARK INTRA:                  -0.594
REMARK UNBOUND:                -0.594
REMARK  Name = 
REMARK  4 active torsions:
REMARK  status: ('A' for Active; 'I' for Inactive)
REMARK    1  A    between atoms: C_5  and  O_6
REMARK    2  A    between atoms: O_6  and  C_7
REMARK    3  A    between atoms: C_7  and  C_8
REMARK    4  A    between atoms: C_12  and  C_13
REMARK                            x       y       z     vdW  Elec       q    Type
REMARK                         _______ _______ _______ _____ _____    ______ ____
ROOT
ATOM      1  C   UNL     1      44.158   4.264  10.694  0.00  0.00    +0.000 A 
ATOM      2  C   UNL     1      43.049   4.455  11.524  0.00  0.00    +0.000 A 
ATOM      3  C   UNL     1      43.165   5.222  12.680  0.00  0.00    +0.000 A 
ATOM      4  C   UNL     1      44.390   5.809  13.015  0.00  0.00    +0.000 A 
ATOM      5  C   UNL     1      45.528   5.645  12.206  0.00  0.00    +0.000 A 
ATOM      6  C   UNL     1      45.376   4.876  11.034  0.00  0.00    +0.000 A 
ENDROOT
BRANCH   5   7
ATOM      7  C   UNL     1      46.833   6.235  12.579  0.00  0.00    +0.000 A 
ATOM      8  C   UNL     1      47.506   7.154  11.759  0.00  0.00    +0.000 A 
ATOM      9  C   UNL     1      48.742   7.678  12.137  0.00  0.00    +0.000 A 
ATOM     10  C   UNL     1      49.285   7.277  13.343  0.00  0.00    +0.000 A 
ATOM     11  N   UNL     1      48.689   6.398  14.171  0.00  0.00    +0.000 NA
ATOM     12  C   UNL     1      47.492   5.900  13.767  0.00  0.00    +0.000 A 
ENDBRANCH   5   7
BRANCH   1  13
ATOM     13  C   UNL     1      44.051   3.408   9.451  0.00  0.00    +0.000 C 
BRANCH  13  14
ATOM     14  O   UNL     1      44.970   2.327   9.554  0.00  0.00    +0.000 OA
BRANCH  14  19
ATOM     15  F   UNL     1      48.147   2.095   5.179  0.00  0.00    +0.000 F 
ATOM     16  C   UNL     1      47.368   2.137   6.266  0.00  0.00    +0.000 A 
ATOM     17  C   UNL     1      47.207   1.050   7.087  0.00  0.00    +0.000 A 
ATOM     18  N   UNL     1      46.424   1.062   8.192  0.00  0.00    +0.000 NA
ATOM     19  C   UNL     1      45.792   2.222   8.455  0.00  0.00    +0.000 A 
ATOM     20  N   UNL     1      45.887   3.342   7.716  0.00  0.00    +0.000 NA
ATOM     21  C   UNL     1      46.682   3.270   6.625  0.00  0.00    +0.000 A 
ENDBRANCH  14  19
ENDBRANCH  13  14
ENDBRANCH   1  13
TORSDOF 4
ENDMDL
MODEL 2
REMARK VINA RESULT:    -7.575      1.479      2.118
REMARK INTER + INTRA:          -9.941
REMARK INTER:                  -9.353
REMARK INTRA:                  -0.588
REMARK UNBOUND:                -0.594
REMARK  Name = 
REMARK  4 active torsions:
REMARK  status: ('A' for Active; 'I' for Inactive)
REMARK    1  A    between atoms: C_5  and  O_6
REMARK    2  A    between atoms: O_6  and  C_7
REMARK    3  A    between atoms: C_7  and  C_8
REMARK    4  A    between atoms: C_12  and  C_13
REMARK                            x       y       z     vdW  Elec       q    Type
REMARK                         _______ _______ _______ _____ _____    ______ ____
ROOT
ATOM      1  C   UNL     1      45.035   4.279  11.056  0.00  0.00    +0.000 A 
ATOM      2  C   UNL     1      45.273   3.478  12.177  0.00  0.00    +0.000 A 
ATOM      3  C   UNL     1      46.058   3.954  13.223  0.00  0.00    +0.000 A 
ATOM      4  C   UNL     1      46.610   5.238  13.160  0.00  0.00    +0.000 A 
ATOM      5  C   UNL     1      46.392   6.077  12.054  0.00  0.00    +0.000 A 
ATOM      6  C   UNL     1      45.581   5.574  11.016  0.00  0.00    +0.000 A 
ENDROOT
BRANCH   5   7
ATOM      7  C   UNL     1      47.006   7.422  11.971  0.00  0.00    +0.000 A 
ATOM      8  C   UNL     1      48.371   7.611  11.704  0.00  0.00    +0.000 A 
ATOM      9  C   UNL     1      48.917   8.894  11.649  0.00  0.00    +0.000 A 
ATOM     10  C   UNL     1      48.080   9.974  11.854  0.00  0.00    +0.000 A 
ATOM     11  N   UNL     1      46.764   9.856  12.115  0.00  0.00    +0.000 NA
ATOM     12  C   UNL     1      46.268   8.593  12.171  0.00  0.00    +0.000 A 
ENDBRANCH   5   7
BRANCH   1  13
ATOM     13  C   UNL     1      44.209   3.760   9.900  0.00  0.00    +0.000 C 
BRANCH  13  14
ATOM     14  O   UNL     1      44.622   2.434   9.594  0.00  0.00    +0.000 OA
BRANCH  14  19
ATOM     15  F   UNL     1      48.118   2.048   5.482  0.00  0.00    +0.000 F 
ATOM     16  C   UNL     1      47.249   2.159   6.492  0.00  0.00    +0.000 A 
ATOM     17  C   UNL     1      46.553   3.317   6.728  0.00  0.00    +0.000 A 
ATOM     18  N   UNL     1      45.668   3.459   7.743  0.00  0.00    +0.000 NA
ATOM     19  C   UNL     1      45.498   2.382   8.532  0.00  0.00    +0.000 A 
ATOM     20  N   UNL     1      46.127   1.203   8.383  0.00  0.00    +0.000 NA
ATOM     21  C   UNL     1      46.999   1.120   7.353  0.00  0.00    +0.000 A 
ENDBRANCH  14  19
ENDBRANCH  13  14
ENDBRANCH   1  13
TORSDOF 4
ENDMDL
MODEL 3
REMARK VINA RESULT:    -7.253      1.697      2.746
REMARK INTER + INTRA:          -9.544
REMARK INTER:                  -8.997
REMARK INTRA:                  -0.547
REMARK UNBOUND:                -0.594
REMARK  Name = 
REMARK  4 active torsions:
REMARK  status: ('A' for Active; 'I' for Inactive)
REMARK    1  A    between atoms: C_5  and  O_6
REMARK    2  A    between atoms: O_6  and  C_7
REMARK    3  A    between atoms: C_7  and  C_8
REMARK    4  A    between atoms: C_12  and  C_13
REMARK                            x       y       z     vdW  Elec       q    Type
REMARK                         _______ _______ _______ _____ _____    ______ ____
ROOT
ATOM      1  C   UNL     1      45.123   4.654  11.563  0.00  0.00    +0.000 A 
ATOM      2  C   UNL     1      45.112   5.943  11.022  0.00  0.00    +0.000 A 
ATOM      3  C   UNL     1      45.819   6.968  11.644  0.00  0.00    +0.000 A 
ATOM      4  C   UNL     1      46.548   6.714  12.811  0.00  0.00    +0.000 A 
ATOM      5  C   UNL     1      46.589   5.431  13.384  0.00  0.00    +0.000 A 
ATOM      6  C   UNL     1      45.876   4.409  12.724  0.00  0.00    +0.000 A 
ENDROOT
BRANCH   5   7
ATOM      7  C   UNL     1      47.331   5.169  14.639  0.00  0.00    +0.000 A 
ATOM      8  C   UNL     1      47.068   4.054  15.449  0.00  0.00    +0.000 A 
ATOM      9  C   UNL     1      47.776   3.847  16.633  0.00  0.00    +0.000 A 
ATOM     10  C   UNL     1      48.750   4.763  16.984  0.00  0.00    +0.000 A 
ATOM     11  N   UNL     1      49.046   5.852  16.249  0.00  0.00    +0.000 NA
ATOM     12  C   UNL     1      48.330   6.027  15.109  0.00  0.00    +0.000 A 
ENDBRANCH   5   7
BRANCH   1  13
ATOM     13  C   UNL     1      44.334   3.539  10.913  0.00  0.00    +0.000 C 
BRANCH  13  14
ATOM     14  O   UNL     1      44.127   3.858   9.542  0.00  0.00    +0.000 OA
BRANCH  14  19
ATOM     15  F   UNL     1      47.949   1.644   6.414  0.00  0.00    +0.000 F 
ATOM     16  C   UNL     1      47.005   2.206   7.178  0.00  0.00    +0.000 A 
ATOM     17  C   UNL     1      46.697   3.539   7.089  0.00  0.00    +0.000 A 
ATOM     18  N   UNL     1      45.748   4.136   7.849  0.00  0.00    +0.000 NA
ATOM     19  C   UNL     1      45.104   3.338   8.722  0.00  0.00    +0.000 A 
ATOM     20  N   UNL     1      45.329   2.022   8.883  0.00  0.00    +0.000 NA
ATOM     21  C   UNL     1      46.288   1.482   8.097  0.00  0.00    +0.000 A 
ENDBRANCH  14  19
ENDBRANCH  13  14
ENDBRANCH   1  13
TORSDOF 4
ENDMDL
MODEL 4
REMARK VINA RESULT:    -7.036      4.087      7.339
REMARK INTER + INTRA:          -9.275
REMARK INTER:                  -8.794
REMARK INTRA:                  -0.481
REMARK UNBOUND:                -0.594
REMARK  Name = 
REMARK  4 active torsions:
REMARK  status: ('A' for Active; 'I' for Inactive)
REMARK    1  A    between atoms: C_5  and  O_6
REMARK    2  A    between atoms: O_6  and  C_7
REMARK    3  A    between atoms: C_7  and  C_8
REMARK    4  A    between atoms: C_12  and  C_13
REMARK                            x       y       z     vdW  Elec       q    Type
REMARK                         _______ _______ _______ _____ _____    ______ ____
ROOT
ATOM      1  C   UNL     1      45.197   4.742  12.860  0.00  0.00    +0.000 A 
ATOM      2  C   UNL     1      43.874   5.190  12.924  0.00  0.00    +0.000 A 
ATOM      3  C   UNL     1      43.054   5.109  11.803  0.00  0.00    +0.000 A 
ATOM      4  C   UNL     1      43.546   4.576  10.607  0.00  0.00    +0.000 A 
ATOM      5  C   UNL     1      44.868   4.111  10.501  0.00  0.00    +0.000 A 
ATOM      6  C   UNL     1      45.672   4.191  11.658  0.00  0.00    +0.000 A 
ENDROOT
BRANCH   5   7
ATOM      7  C   UNL     1      45.402   3.579   9.226  0.00  0.00    +0.000 A 
ATOM      8  C   UNL     1      45.593   2.207   9.004  0.00  0.00    +0.000 A 
ATOM      9  C   UNL     1      46.112   1.744   7.795  0.00  0.00    +0.000 A 
ATOM     10  C   UNL     1      46.425   2.670   6.817  0.00  0.00    +0.000 A 
ATOM     11  N   UNL     1      46.266   3.998   6.972  0.00  0.00    +0.000 NA
ATOM     12  C   UNL     1      45.768   4.413   8.165  0.00  0.00    +0.000 A 
ENDBRANCH   5   7
BRANCH   1  13
ATOM     13  C   UNL     1      46.107   4.853  14.064  0.00  0.00    +0.000 C 
BRANCH  13  14
ATOM     14  O   UNL     1      46.782   3.615  14.248  0.00  0.00    +0.000 OA
BRANCH  14  19
ATOM     15  F   UNL     1      48.738   3.223  19.279  0.00  0.00    +0.000 F 
ATOM     16  C   UNL     1      48.265   3.308  18.030  0.00  0.00    +0.000 A 
ATOM     17  C   UNL     1      48.860   2.653  16.983  0.00  0.00    +0.000 A 
ATOM     18  N   UNL     1      48.406   2.720  15.709  0.00  0.00    +0.000 NA
ATOM     19  C   UNL     1      47.313   3.481  15.512  0.00  0.00    +0.000 A 
ATOM     20  N   UNL     1      46.656   4.159  16.470  0.00  0.00    +0.000 NA
ATOM     21  C   UNL     1      47.155   4.054  17.722  0.00  0.00    +0.000 A 
ENDBRANCH  14  19
ENDBRANCH  13  14
ENDBRANCH   1  13
TORSDOF 4
ENDMDL
MODEL 5
REMARK VINA RESULT:    -7.022      2.987      3.696
REMARK INTER + INTRA:          -9.259
REMARK INTER:                  -8.620
REMARK INTRA:                  -0.639
REMARK UNBOUND:                -0.594
REMARK  Name = 
REMARK  4 active torsions:
REMARK  status: ('A' for Active; 'I' for Inactive)
REMARK    1  A    between atoms: C_5  and  O_6
REMARK    2  A    between atoms: O_6  and  C_7
REMARK    3  A    between atoms: C_7  and  C_8
REMARK    4  A    between atoms: C_12  and  C_13
REMARK                            x       y       z     vdW  Elec       q    Type
REMARK                         _______ _______ _______ _____ _____    ______ ____
ROOT
ATOM      1  C   UNL     1      44.734   5.327  11.449  0.00  0.00    +0.000 A 
ATOM      2  C   UNL     1      45.841   5.069  12.263  0.00  0.00    +0.000 A 
ATOM      3  C   UNL     1      46.544   6.122  12.842  0.00  0.00    +0.000 A 
ATOM      4  C   UNL     1      46.145   7.443  12.616  0.00  0.00    +0.000 A 
ATOM      5  C   UNL     1      45.035   7.746  11.807  0.00  0.00    +0.000 A 
ATOM      6  C   UNL     1      44.334   6.659  11.247  0.00  0.00    +0.000 A 
ENDROOT
BRANCH   5   7
ATOM      7  C   UNL     1      44.634   9.146  11.538  0.00  0.00    +0.000 A 
ATOM      8  C   UNL     1      43.537   9.471  10.725  0.00  0.00    +0.000 A 
ATOM      9  C   UNL     1      43.198  10.802  10.481  0.00  0.00    +0.000 A 
ATOM     10  C   UNL     1      43.963  11.793  11.067  0.00  0.00    +0.000 A 
ATOM     11  N   UNL     1      45.028  11.543  11.853  0.00  0.00    +0.000 NA
ATOM     12  C   UNL     1      45.335  10.237  12.061  0.00  0.00    +0.000 A 
ENDBRANCH   5   7
BRANCH   1  13
ATOM     13  C   UNL     1      43.981   4.193  10.790  0.00  0.00    +0.000 C 
BRANCH  13  14
ATOM     14  O   UNL     1      43.965   4.403   9.384  0.00  0.00    +0.000 OA
BRANCH  14  19
ATOM     15  F   UNL     1      47.700   1.370   6.906  0.00  0.00    +0.000 F 
ATOM     16  C   UNL     1      46.780   2.133   7.508  0.00  0.00    +0.000 A 
ATOM     17  C   UNL     1      46.656   3.471   7.236  0.00  0.00    +0.000 A 
ATOM     18  N   UNL     1      45.736   4.268   7.830  0.00  0.00    +0.000 NA
ATOM     19  C   UNL     1      44.927   3.671   8.725  0.00  0.00    +0.000 A 
ATOM     20  N   UNL     1      44.966   2.368   9.058  0.00  0.00    +0.000 NA
ATOM     21  C   UNL     1      45.904   1.622   8.433  0.00  0.00    +0.000 A 
ENDBRANCH  14  19
ENDBRANCH  13  14
ENDBRANCH   1  13
TORSDOF 4
ENDMDL
MODEL 6
REMARK VINA RESULT:    -6.924      3.033      6.793
REMARK INTER + INTRA:          -9.138
REMARK INTER:                  -8.550
REMARK INTRA:                  -0.588
REMARK UNBOUND:                -0.594
REMARK  Name = 
REMARK  4 active torsions:
REMARK  status: ('A' for Active; 'I' for Inactive)
REMARK    1  A    between atoms: C_5  and  O_6
REMARK    2  A    between atoms: O_6  and  C_7
REMARK    3  A    between atoms: C_7  and  C_8
REMARK    4  A    between atoms: C_12  and  C_13
REMARK                            x       y       z     vdW  Elec       q    Type
REMARK                         _______ _______ _______ _____ _____    ______ ____
ROOT
ATOM      1  C   UNL     1      44.631   5.199  10.684  0.00  0.00    +0.000 A 
ATOM      2  C   UNL     1      43.724   4.377  11.358  0.00  0.00    +0.000 A 
ATOM      3  C   UNL     1      43.556   3.052  10.966  0.00  0.00    +0.000 A 
ATOM      4  C   UNL     1      44.298   2.534   9.898  0.00  0.00    +0.000 A 
ATOM      5  C   UNL     1      45.224   3.326   9.197  0.00  0.00    +0.000 A 
ATOM      6  C   UNL     1      45.383   4.660   9.626  0.00  0.00    +0.000 A 
ENDROOT
BRANCH   5   7
ATOM      7  C   UNL     1      45.982   2.789   8.044  0.00  0.00    +0.000 A 
ATOM      8  C   UNL     1      46.245   3.552   6.896  0.00  0.00    +0.000 A 
ATOM      9  C   UNL     1      46.950   3.008   5.822  0.00  0.00    +0.000 A 
ATOM     10  C   UNL     1      47.392   1.702   5.921  0.00  0.00    +0.000 A 
ATOM     11  N   UNL     1      47.169   0.920   6.994  0.00  0.00    +0.000 NA
ATOM     12  C   UNL     1      46.471   1.479   8.016  0.00  0.00    +0.000 A 
ENDBRANCH   5   7
BRANCH   1  13
ATOM     13  C   UNL     1      44.800   6.649  11.082  0.00  0.00    +0.000 C 
BRANCH  13  14
ATOM     14  O   UNL     1      44.753   6.747  12.500  0.00  0.00    +0.000 OA
BRANCH  14  19
ATOM     15  F   UNL     1      49.615   7.760  14.652  0.00  0.00    +0.000 F 
ATOM     16  C   UNL     1      48.414   7.494  14.125  0.00  0.00    +0.000 A 
ATOM     17  C   UNL     1      47.930   6.214  14.032  0.00  0.00    +0.000 A 
ATOM     18  N   UNL     1      46.720   5.913  13.503  0.00  0.00    +0.000 NA
ATOM     19  C   UNL     1      45.994   6.957  13.059  0.00  0.00    +0.000 A 
ATOM     20  N   UNL     1      46.377   8.245  13.109  0.00  0.00    +0.000 NA
ATOM     21  C   UNL     1      47.594   8.485  13.647  0.00  0.00    +0.000 A 
ENDBRANCH  14  19
ENDBRANCH  13  14
ENDBRANCH   1  13
TORSDOF 4
ENDMDL
MODEL 7
REMARK VINA RESULT:    -6.582      3.388      6.958
REMARK INTER + INTRA:          -8.716
REMARK INTER:                  -8.139
REMARK INTRA:                  -0.577
REMARK UNBOUND:                -0.594
REMARK  Name = 
REMARK  4 active torsions:
REMARK  status: ('A' for Active; 'I' for Inactive)
REMARK    1  A    between atoms: C_5  and  O_6
REMARK    2  A    between atoms: O_6  and  C_7
REMARK    3  A    between atoms: C_7  and  C_8
REMARK    4  A    between atoms: C_12  and  C_13
REMARK                            x       y       z     vdW  Elec       q    Type
REMARK                         _______ _______ _______ _____ _____    ______ ____
ROOT
ATOM      1  C   UNL     1      45.181   6.098  11.909  0.00  0.00    +0.000 A 
ATOM      2  C   UNL     1      43.802   6.058  12.133  0.00  0.00    +0.000 A 
ATOM      3  C   UNL     1      42.992   5.227  11.363  0.00  0.00    +0.000 A 
ATOM      4  C   UNL     1      43.555   4.425  10.364  0.00  0.00    +0.000 A 
ATOM      5  C   UNL     1      44.937   4.433  10.110  0.00  0.00    +0.000 A 
ATOM      6  C   UNL     1      45.734   5.272  10.915  0.00  0.00    +0.000 A 
ENDROOT
BRANCH   5   7
ATOM      7  C   UNL     1      45.529   3.611   9.029  0.00  0.00    +0.000 A 
ATOM      8  C   UNL     1      46.111   4.179   7.885  0.00  0.00    +0.000 A 
ATOM      9  C   UNL     1      46.645   3.373   6.880  0.00  0.00    +0.000 A 
ATOM     10  C   UNL     1      46.595   2.001   7.042  0.00  0.00    +0.000 A 
ATOM     11  N   UNL     1      46.048   1.398   8.115  0.00  0.00    +0.000 NA
ATOM     12  C   UNL     1      45.529   2.213   9.069  0.00  0.00    +0.000 A 
ENDBRANCH   5   7
BRANCH   1  13
ATOM     13  C   UNL     1      46.066   7.020  12.719  0.00  0.00    +0.000 C 
BRANCH  13  14
ATOM     14  O   UNL     1      47.367   6.452  12.806  0.00  0.00    +0.000 OA
BRANCH  14  19
ATOM     15  F   UNL     1      48.682   4.878  17.814  0.00  0.00    +0.000 F 
ATOM     16  C   UNL     1      48.346   5.254  16.575  0.00  0.00    +0.000 A 
ATOM     17  C   UNL     1      47.559   4.474  15.767  0.00  0.00    +0.000 A 
ATOM     18  N   UNL     1      47.204   4.827  14.509  0.00  0.00    +0.000 NA
ATOM     19  C   UNL     1      47.672   6.012  14.075  0.00  0.00    +0.000 A 
ATOM     20  N   UNL     1      48.445   6.850  14.788  0.00  0.00    +0.000 NA
ATOM     21  C   UNL     1      48.768   6.444  16.037  0.00  0.00    +0.000 A 
ENDBRANCH  14  19
ENDBRANCH  13  14
ENDBRANCH   1  13
TORSDOF 4
ENDMDL
MODEL 8
REMARK VINA RESULT:    -6.527      4.275      7.596
REMARK INTER + INTRA:          -8.648
REMARK INTER:                  -8.125
REMARK INTRA:                  -0.524
REMARK UNBOUND:                -0.594
REMARK  Name = 
REMARK  4 active torsions:
REMARK  status: ('A' for Active; 'I' for Inactive)
REMARK    1  A    between atoms: C_5  and  O_6
REMARK    2  A    between atoms: O_6  and  C_7
REMARK    3  A    between atoms: C_7  and  C_8
REMARK    4  A    between atoms: C_12  and  C_13
REMARK                            x       y       z     vdW  Elec       q    Type
REMARK                         _______ _______ _______ _____ _____    ______ ____
ROOT
ATOM      1  C   UNL     1      46.713   6.508  13.200  0.00  0.00    +0.000 A 
ATOM      2  C   UNL     1      46.148   7.777  13.048  0.00  0.00    +0.000 A 
ATOM      3  C   UNL     1      45.272   8.032  11.997  0.00  0.00    +0.000 A 
ATOM      4  C   UNL     1      44.949   7.018  11.089  0.00  0.00    +0.000 A 
ATOM      5  C   UNL     1      45.491   5.727  11.208  0.00  0.00    +0.000 A 
ATOM      6  C   UNL     1      46.363   5.494  12.292  0.00  0.00    +0.000 A 
ENDROOT
BRANCH   5   7
ATOM      7  C   UNL     1      45.177   4.663  10.227  0.00  0.00    +0.000 A 
ATOM      8  C   UNL     1      45.594   4.727   8.889  0.00  0.00    +0.000 A 
ATOM      9  C   UNL     1      45.266   3.713   7.988  0.00  0.00    +0.000 A 
ATOM     10  C   UNL     1      44.528   2.639   8.449  0.00  0.00    +0.000 A 
ATOM     11  N   UNL     1      44.099   2.522   9.720  0.00  0.00    +0.000 NA
ATOM     12  C   UNL     1      44.427   3.532  10.566  0.00  0.00    +0.000 A 
ENDBRANCH   5   7
BRANCH   1  13
ATOM     13  C   UNL     1      47.689   6.228  14.321  0.00  0.00    +0.000 C 
BRANCH  13  14
ATOM     14  O   UNL     1      47.783   4.822  14.512  0.00  0.00    +0.000 OA
BRANCH  14  19
ATOM     15  F   UNL     1      48.475   3.593  19.737  0.00  0.00    +0.000 F 
ATOM     16  C   UNL     1      48.292   3.885  18.444  0.00  0.00    +0.000 A 
ATOM     17  C   UNL     1      47.475   3.133  17.639  0.00  0.00    +0.000 A 
ATOM     18  N   UNL     1      47.271   3.403  16.327  0.00  0.00    +0.000 NA
ATOM     19  C   UNL     1      47.925   4.473  15.837  0.00  0.00    +0.000 A 
ATOM     20  N   UNL     1      48.743   5.274  16.542  0.00  0.00    +0.000 NA
ATOM     21  C   UNL     1      48.909   4.955  17.846  0.00  0.00    +0.000 A 
ENDBRANCH  14  19
ENDBRANCH  13  14
ENDBRANCH   1  13
TORSDOF 4
ENDMDL
MODEL 9
REMARK VINA RESULT:    -6.430      1.783      2.782
REMARK INTER + INTRA:          -8.528
REMARK INTER:                  -7.938
REMARK INTRA:                  -0.590
REMARK UNBOUND:                -0.594
REMARK  Name = 
REMARK  4 active torsions:
REMARK  status: ('A' for Active; 'I' for Inactive)
REMARK    1  A    between atoms: C_5  and  O_6
REMARK    2  A    between atoms: O_6  and  C_7
REMARK    3  A    between atoms: C_7  and  C_8
REMARK    4  A    between atoms: C_12  and  C_13
REMARK                            x       y       z     vdW  Elec       q    Type
REMARK                         _______ _______ _______ _____ _____    ______ ____
ROOT
ATOM      1  C   UNL     1      45.598   6.183  11.607  0.00  0.00    +0.000 A 
ATOM      2  C   UNL     1      44.634   7.191  11.690  0.00  0.00    +0.000 A 
ATOM      3  C   UNL     1      45.016   8.505  11.942  0.00  0.00    +0.000 A 
ATOM      4  C   UNL     1      46.368   8.825  12.110  0.00  0.00    +0.000 A 
ATOM      5  C   UNL     1      47.370   7.842  12.029  0.00  0.00    +0.000 A 
ATOM      6  C   UNL     1      46.953   6.523  11.757  0.00  0.00    +0.000 A 
ENDROOT
BRANCH   5   7
ATOM      7  C   UNL     1      48.797   8.174  12.242  0.00  0.00    +0.000 A 
ATOM      8  C   UNL     1      49.808   7.741  11.370  0.00  0.00    +0.000 A 
ATOM      9  C   UNL     1      51.145   8.059  11.611  0.00  0.00    +0.000 A 
ATOM     10  C   UNL     1      51.448   8.820  12.725  0.00  0.00    +0.000 A 
ATOM     11  N   UNL     1      50.523   9.263  13.597  0.00  0.00    +0.000 NA
ATOM     12  C   UNL     1      49.234   8.925  13.337  0.00  0.00    +0.000 A 
ENDBRANCH   5   7
BRANCH   1  13
ATOM     13  C   UNL     1      45.191   4.746  11.363  0.00  0.00    +0.000 C 
BRANCH  13  14
ATOM     14  O   UNL     1      44.513   4.663  10.116  0.00  0.00    +0.000 OA
BRANCH  14  19
ATOM     15  F   UNL     1      47.169   1.559   6.567  0.00  0.00    +0.000 F 
ATOM     16  C   UNL     1      46.515   2.340   7.434  0.00  0.00    +0.000 A 
ATOM     17  C   UNL     1      46.517   3.707   7.325  0.00  0.00    +0.000 A 
ATOM     18  N   UNL     1      45.866   4.523   8.188  0.00  0.00    +0.000 NA
ATOM     19  C   UNL     1      45.200   3.914   9.186  0.00  0.00    +0.000 A 
ATOM     20  N   UNL     1      45.133   2.584   9.378  0.00  0.00    +0.000 NA
ATOM     21  C   UNL     1      45.802   1.820   8.486  0.00  0.00    +0.000 A 
ENDBRANCH  14  19
ENDBRANCH  13  14
ENDBRANCH   1  13
TORSDOF 4
ENDMDL
