MODEL 1
REMARK VINA RESULT:    -7.257      0.000      0.000
REMARK INTER + INTRA:         -11.416
REMARK INTER:                 -10.227
REMARK INTRA:                  -1.189
REMARK UNBOUND:                -1.189
REMARK  Name = 
REMARK  8 active torsions:
REMARK  status: ('A' for Active; 'I' for Inactive)
REMARK    1  A    between atoms: C_1  and  O_2
REMARK    2  A    between atoms: O_2  and  C_3
REMARK    3  A    between atoms: C_8  and  C_9
REMARK    4  A    between atoms: N_11  and  C_12
REMARK    5  A    between atoms: C_12  and  C_13
REMARK    6  A    between atoms: C_16  and  C_17
REMARK    7  A    between atoms: C_17  and  N_18
REMARK    8  A    between atoms: C_19  and  C_21
REMARK                            x       y       z     vdW  Elec       q    Type
REMARK                         _______ _______ _______ _____ _____    ______ ____
ROOT
ATOM      1  C   UNL     1      50.423   7.481  15.209  0.00  0.00    +0.000 A 
ATOM      2  C   UNL     1      50.850   8.110  14.032  0.00  0.00    +0.000 A 
ATOM      3  C   UNL     1      49.985   8.241  12.939  0.00  0.00    +0.000 A 
ATOM      4  C   UNL     1      48.669   7.763  13.008  0.00  0.00    +0.000 A 
ATOM      5  C   UNL     1      48.240   7.148  14.191  0.00  0.00    +0.000 A 
ATOM      6  C   UNL     1      49.103   7.016  15.283  0.00  0.00    +0.000 A 
ENDROOT
BRANCH   1   7
ATOM      7  C   UNL     1      51.364   7.293  16.370  0.00  0.00    +0.000 C 
BRANCH   7  10
ATOM      8  C   UNL     1      51.105   5.140  17.512  0.00  0.00    +0.000 C 
ATOM      9  O   UNL     1      50.195   5.586  18.208  0.00  0.00    +0.000 OA
ATOM     10  N   UNL     1      51.735   5.912  16.563  0.00  0.00    +0.000 N 
ATOM     11  H   UNL     1      52.511   5.522  16.037  0.00  0.00    +0.000 HD
BRANCH   8  17
ATOM     12  C   UNL     1      50.871   2.588  17.240  0.00  0.00    +0.000 A 
ATOM     13  C   UNL     1      51.463   1.351  17.490  0.00  0.00    +0.000 A 
ATOM     14  N   UNL     1      52.619   1.167  18.171  0.00  0.00    +0.000 NA
ATOM     15  C   UNL     1      53.240   2.273  18.618  0.00  0.00    +0.000 A 
ATOM     16  C   UNL     1      52.758   3.551  18.404  0.00  0.00    +0.000 A 
ATOM     17  C   UNL     1      51.557   3.723  17.697  0.00  0.00    +0.000 A 
BRANCH  12  19
ATOM     18  C   UNL     1      48.506   2.587  17.306  0.00  0.00    +0.000 C 
ATOM     19  O   UNL     1      49.702   2.736  16.541  0.00  0.00    +0.000 OA
ENDBRANCH  12  19
ENDBRANCH   8  17
ENDBRANCH   7  10
ENDBRANCH   1   7
BRANCH   4  20
ATOM     20  C   UNL     1      47.740   7.858  11.823  0.00  0.00    +0.000 C 
BRANCH  20  21
ATOM     21  N   UNL     1      47.016   6.627  11.621  0.00  0.00    +0.000 N 
ATOM     22  C   UNL     1      45.654   6.578  11.770  0.00  0.00    +0.000 C 
ATOM     23  O   UNL     1      44.991   7.581  12.021  0.00  0.00    +0.000 OA
ATOM     24  H   UNL     1      47.554   5.766  11.634  0.00  0.00    +0.000 HD
BRANCH  22  25
ATOM     25  C   UNL     1      45.010   5.272  11.562  0.00  0.00    +0.000 A 
ATOM     26  C   UNL     1      44.308   4.681  12.605  0.00  0.00    +0.000 A 
ATOM     27  S   UNL     1      43.593   3.188  12.193  0.00  0.00    +0.000 S 
ATOM     28  C   UNL     1      44.239   3.253  10.620  0.00  0.00    +0.000 A 
ATOM     29  N   UNL     1      44.027   2.239   9.737  0.00  0.00    +0.000 NA
ATOM     30  C   UNL     1      44.602   2.401   8.593  0.00  0.00    +0.000 A 
ATOM     31  N   UNL     1      45.364   3.488   8.249  0.00  0.00    +0.000 N 
ATOM     32  C   UNL     1      45.576   4.551   9.096  0.00  0.00    +0.000 A 
ATOM     33  O   UNL     1      46.222   5.531   8.740  0.00  0.00    +0.000 OA
ATOM     34  C   UNL     1      44.969   4.408  10.404  0.00  0.00    +0.000 A 
ATOM     35  H   UNL     1      45.777   3.560   7.331  0.00  0.00    +0.000 HD
ENDBRANCH  22  25
ENDBRANCH  20  21
ENDBRANCH   4  20
TORSDOF 7
ENDMDL
MODEL 2
REMARK VINA RESULT:    -7.040      1.524      2.089
REMARK INTER + INTRA:         -11.111
REMARK INTER:                  -9.696
REMARK INTRA:                  -1.415
REMARK UNBOUND:                -1.189
REMARK  Name = 
REMARK  8 active torsions:
REMARK  status: ('A' for Active; 'I' for Inactive)
REMARK    1  A    between atoms: C_1  and  O_2
REMARK    2  A    between atoms: O_2  and  C_3
REMARK    3  A    between atoms: C_8  and  C_9
REMARK    4  A    between atoms: N_11  and  C_12
REMARK    5  A    between atoms: C_12  and  C_13
REMARK    6  A    between atoms: C_16  and  C_17
REMARK    7  A    between atoms: C_17  and  N_18
REMARK    8  A    between atoms: C_19  and  C_21
REMARK                            x       y       z     vdW  Elec       q    Type
REMARK                         _______ _______ _______ _____ _____    ______ ____
ROOT
ATOM      1  C   UNL     1      49.310   7.235  16.418  0.00  0.00    +0.000 A 
ATOM      2  C   UNL     1      49.510   8.510  15.874  0.00  0.00    +0.000 A 
ATOM      3  C   UNL     1      49.074   8.808  14.576  0.00  0.00    +0.000 A 
ATOM      4  C   UNL     1      48.413   7.843  13.805  0.00  0.00    +0.000 A 
ATOM      5  C   UNL     1      48.200   6.573  14.358  0.00  0.00    +0.000 A 
ATOM      6  C   UNL     1      48.635   6.274  15.653  0.00  0.00    +0.000 A 
ENDROOT
BRANCH   1   7
ATOM      7  C   UNL     1      49.820   6.893  17.794  0.00  0.00    +0.000 C 
BRANCH   7  10
ATOM      8  C   UNL     1      51.428   5.053  17.609  0.00  0.00    +0.000 C 
ATOM      9  O   UNL     1      52.310   5.823  17.231  0.00  0.00    +0.000 OA
ATOM     10  N   UNL     1      50.165   5.498  17.924  0.00  0.00    +0.000 N 
ATOM     11  H   UNL     1      49.452   4.827  18.192  0.00  0.00    +0.000 HD
BRANCH   8  17
ATOM     12  C   UNL     1      50.897   2.556  17.253  0.00  0.00    +0.000 A 
ATOM     13  C   UNL     1      51.351   1.251  17.437  0.00  0.00    +0.000 A 
ATOM     14  N   UNL     1      52.499   0.912  18.072  0.00  0.00    +0.000 NA
ATOM     15  C   UNL     1      53.255   1.922  18.536  0.00  0.00    +0.000 A 
ATOM     16  C   UNL     1      52.916   3.254  18.385  0.00  0.00    +0.000 A 
ATOM     17  C   UNL     1      51.721   3.588  17.726  0.00  0.00    +0.000 A 
BRANCH  12  19
ATOM     18  C   UNL     1      48.532   2.493  17.281  0.00  0.00    +0.000 C 
ATOM     19  O   UNL     1      49.732   2.862  16.601  0.00  0.00    +0.000 OA
ENDBRANCH  12  19
ENDBRANCH   8  17
ENDBRANCH   7  10
ENDBRANCH   1   7
BRANCH   4  20
ATOM     20  C   UNL     1      47.978   8.136  12.392  0.00  0.00    +0.000 C 
BRANCH  20  21
ATOM     21  N   UNL     1      47.377   6.980  11.774  0.00  0.00    +0.000 N 
ATOM     22  C   UNL     1      46.066   6.995  11.374  0.00  0.00    +0.000 C 
ATOM     23  O   UNL     1      45.369   8.003  11.468  0.00  0.00    +0.000 OA
ATOM     24  H   UNL     1      47.856   6.092  11.888  0.00  0.00    +0.000 HD
BRANCH  22  25
ATOM     25  C   UNL     1      45.540   5.761  10.773  0.00  0.00    +0.000 A 
ATOM     26  C   UNL     1      45.738   5.519   9.419  0.00  0.00    +0.000 A 
ATOM     27  S   UNL     1      45.097   4.031   8.886  0.00  0.00    +0.000 S 
ATOM     28  C   UNL     1      44.488   3.678  10.434  0.00  0.00    +0.000 A 
ATOM     29  N   UNL     1      43.783   2.536  10.662  0.00  0.00    +0.000 NA
ATOM     30  C   UNL     1      43.350   2.410  11.872  0.00  0.00    +0.000 A 
ATOM     31  N   UNL     1      43.563   3.319  12.876  0.00  0.00    +0.000 N 
ATOM     32  C   UNL     1      44.297   4.469  12.700  0.00  0.00    +0.000 A 
ATOM     33  O   UNL     1      44.512   5.237  13.631  0.00  0.00    +0.000 OA
ATOM     34  C   UNL     1      44.789   4.669  11.351  0.00  0.00    +0.000 A 
ATOM     35  H   UNL     1      43.207   3.155  13.806  0.00  0.00    +0.000 HD
ENDBRANCH  22  25
ENDBRANCH  20  21
ENDBRANCH   4  20
TORSDOF 7
ENDMDL
MODEL 3
REMARK VINA RESULT:    -6.985      2.548      8.928
REMARK INTER + INTRA:         -11.032
REMARK INTER:                  -9.807
REMARK INTRA:                  -1.226
REMARK UNBOUND:                -1.189
REMARK  Name = 
REMARK  8 active torsions:
REMARK  status: ('A' for Active; 'I' for Inactive)
REMARK    1  A    between atoms: C_1  and  O_2
REMARK    2  A    between atoms: O_2  and  C_3
REMARK    3  A    between atoms: C_8  and  C_9
REMARK    4  A    between atoms: N_11  and  C_12
REMARK    5  A    between atoms: C_12  and  C_13
REMARK    6  A    between atoms: C_16  and  C_17
REMARK    7  A    between atoms: C_17  and  N_18
REMARK    8  A    between atoms: C_19  and  C_21
REMARK                            x       y       z     vdW  Elec       q    Type
REMARK                         _______ _______ _______ _____ _____    ______ ____
ROOT
ATOM      1  C   UNL     1      47.861   7.745  13.245  0.00  0.00    +0.000 A 
ATOM      2  C   UNL     1      47.919   8.934  13.984  0.00  0.00    +0.000 A 
ATOM      3  C   UNL     1      48.363   8.927  15.313  0.00  0.00    +0.000 A 
ATOM      4  C   UNL     1      48.776   7.734  15.922  0.00  0.00    +0.000 A 
ATOM      5  C   UNL     1      48.731   6.549  15.176  0.00  0.00    +0.000 A 
ATOM      6  C   UNL     1      48.288   6.555  13.849  0.00  0.00    +0.000 A 
ENDROOT
BRANCH   1   7
ATOM      7  C   UNL     1      47.338   7.738  11.833  0.00  0.00    +0.000 C 
BRANCH   7  10
ATOM      8  C   UNL     1      45.376   6.354  11.343  0.00  0.00    +0.000 C 
ATOM      9  O   UNL     1      44.623   7.311  11.506  0.00  0.00    +0.000 OA
ATOM     10  N   UNL     1      46.741   6.476  11.470  0.00  0.00    +0.000 N 
ATOM     11  H   UNL     1      47.328   5.654  11.370  0.00  0.00    +0.000 HD
BRANCH   8  17
ATOM     12  C   UNL     1      44.967   4.349   9.775  0.00  0.00    +0.000 A 
ATOM     13  C   UNL     1      44.378   3.091   9.654  0.00  0.00    +0.000 A 
ATOM     14  N   UNL     1      43.636   2.487  10.613  0.00  0.00    +0.000 NA
ATOM     15  C   UNL     1      43.480   3.157  11.769  0.00  0.00    +0.000 A 
ATOM     16  C   UNL     1      44.042   4.397  12.008  0.00  0.00    +0.000 A 
ATOM     17  C   UNL     1      44.807   5.010  11.002  0.00  0.00    +0.000 A 
BRANCH  12  19
ATOM     18  C   UNL     1      46.181   4.039   7.768  0.00  0.00    +0.000 C 
ATOM     19  O   UNL     1      45.716   4.927   8.784  0.00  0.00    +0.000 OA
ENDBRANCH  12  19
ENDBRANCH   8  17
ENDBRANCH   7  10
ENDBRANCH   1   7
BRANCH   4  20
ATOM     20  C   UNL     1      49.214   7.705  17.364  0.00  0.00    +0.000 C 
BRANCH  20  21
ATOM     21  N   UNL     1      50.244   6.720  17.582  0.00  0.00    +0.000 N 
ATOM     22  C   UNL     1      50.075   5.713  18.496  0.00  0.00    +0.000 C 
ATOM     23  O   UNL     1      49.026   5.570  19.120  0.00  0.00    +0.000 OA
ATOM     24  H   UNL     1      51.177   6.944  17.250  0.00  0.00    +0.000 HD
BRANCH  22  25
ATOM     25  C   UNL     1      51.192   4.770  18.660  0.00  0.00    +0.000 A 
ATOM     26  C   UNL     1      52.311   5.153  19.388  0.00  0.00    +0.000 A 
ATOM     27  S   UNL     1      53.499   3.936  19.512  0.00  0.00    +0.000 S 
ATOM     28  C   UNL     1      52.583   2.869  18.555  0.00  0.00    +0.000 A 
ATOM     29  N   UNL     1      53.057   1.632  18.241  0.00  0.00    +0.000 NA
ATOM     30  C   UNL     1      52.275   0.940  17.481  0.00  0.00    +0.000 A 
ATOM     31  N   UNL     1      51.061   1.370  17.012  0.00  0.00    +0.000 N 
ATOM     32  C   UNL     1      50.528   2.597  17.331  0.00  0.00    +0.000 A 
ATOM     33  O   UNL     1      49.417   2.932  16.935  0.00  0.00    +0.000 OA
ATOM     34  C   UNL     1      51.378   3.424  18.166  0.00  0.00    +0.000 A 
ATOM     35  H   UNL     1      50.491   0.774  16.430  0.00  0.00    +0.000 HD
ENDBRANCH  22  25
ENDBRANCH  20  21
ENDBRANCH   4  20
TORSDOF 7
ENDMDL
MODEL 4
REMARK VINA RESULT:    -6.627      5.140      8.160
REMARK INTER + INTRA:         -10.527
REMARK INTER:                  -9.400
REMARK INTRA:                  -1.127
REMARK UNBOUND:                -1.189
REMARK  Name = 
REMARK  8 active torsions:
REMARK  status: ('A' for Active; 'I' for Inactive)
REMARK    1  A    between atoms: C_1  and  O_2
REMARK    2  A    between atoms: O_2  and  C_3
REMARK    3  A    between atoms: C_8  and  C_9
REMARK    4  A    between atoms: N_11  and  C_12
REMARK    5  A    between atoms: C_12  and  C_13
REMARK    6  A    between atoms: C_16  and  C_17
REMARK    7  A    between atoms: C_17  and  N_18
REMARK    8  A    between atoms: C_19  and  C_21
REMARK                            x       y       z     vdW  Elec       q    Type
REMARK                         _______ _______ _______ _____ _____    ______ ____
ROOT
ATOM      1  C   UNL     1      49.060   6.914  13.938  0.00  0.00    +0.000 A 
ATOM      2  C   UNL     1      48.983   6.915  12.540  0.00  0.00    +0.000 A 
ATOM      3  C   UNL     1      49.904   7.643  11.775  0.00  0.00    +0.000 A 
ATOM      4  C   UNL     1      50.932   8.367  12.394  0.00  0.00    +0.000 A 
ATOM      5  C   UNL     1      51.016   8.351  13.793  0.00  0.00    +0.000 A 
ATOM      6  C   UNL     1      50.097   7.626  14.557  0.00  0.00    +0.000 A 
ENDROOT
BRANCH   1   7
ATOM      7  C   UNL     1      48.043   6.175  14.768  0.00  0.00    +0.000 C 
BRANCH   7  10
ATOM      8  C   UNL     1      46.498   4.722  13.540  0.00  0.00    +0.000 C 
ATOM      9  O   UNL     1      47.248   3.758  13.678  0.00  0.00    +0.000 OA
ATOM     10  N   UNL     1      46.804   5.959  14.060  0.00  0.00    +0.000 N 
ATOM     11  H   UNL     1      46.180   6.741  13.890  0.00  0.00    +0.000 HD
BRANCH   8  17
ATOM     12  C   UNL     1      44.371   5.612  12.387  0.00  0.00    +0.000 A 
ATOM     13  C   UNL     1      43.229   5.266  11.667  0.00  0.00    +0.000 A 
ATOM     14  N   UNL     1      42.859   4.000  11.361  0.00  0.00    +0.000 NA
ATOM     15  C   UNL     1      43.676   3.014  11.774  0.00  0.00    +0.000 A 
ATOM     16  C   UNL     1      44.847   3.244  12.471  0.00  0.00    +0.000 A 
ATOM     17  C   UNL     1      45.215   4.563  12.781  0.00  0.00    +0.000 A 
BRANCH  12  19
ATOM     18  C   UNL     1      44.984   7.736  11.542  0.00  0.00    +0.000 C 
ATOM     19  O   UNL     1      44.717   6.907  12.673  0.00  0.00    +0.000 OA
ENDBRANCH  12  19
ENDBRANCH   8  17
ENDBRANCH   7  10
ENDBRANCH   1   7
BRANCH   4  20
ATOM     20  C   UNL     1      51.904   9.189  11.586  0.00  0.00    +0.000 C 
BRANCH  20  21
ATOM     21  N   UNL     1      52.136   8.605  10.288  0.00  0.00    +0.000 N 
ATOM     22  C   UNL     1      53.269   8.900   9.574  0.00  0.00    +0.000 C 
ATOM     23  O   UNL     1      54.154   9.620  10.029  0.00  0.00    +0.000 OA
ATOM     24  H   UNL     1      51.337   8.197   9.813  0.00  0.00    +0.000 HD
BRANCH  22  25
ATOM     25  C   UNL     1      53.405   8.270   8.253  0.00  0.00    +0.000 A 
ATOM     26  C   UNL     1      53.368   9.059   7.110  0.00  0.00    +0.000 A 
ATOM     27  S   UNL     1      53.573   8.181   5.662  0.00  0.00    +0.000 S 
ATOM     28  C   UNL     1      53.667   6.707   6.506  0.00  0.00    +0.000 A 
ATOM     29  N   UNL     1      53.811   5.529   5.839  0.00  0.00    +0.000 NA
ATOM     30  C   UNL     1      53.834   4.486   6.600  0.00  0.00    +0.000 A 
ATOM     31  N   UNL     1      53.733   4.515   7.967  0.00  0.00    +0.000 N 
ATOM     32  C   UNL     1      53.621   5.683   8.685  0.00  0.00    +0.000 A 
ATOM     33  O   UNL     1      53.582   5.677   9.910  0.00  0.00    +0.000 OA
ATOM     34  C   UNL     1      53.568   6.884   7.874  0.00  0.00    +0.000 A 
ATOM     35  H   UNL     1      53.770   3.662   8.506  0.00  0.00    +0.000 HD
ENDBRANCH  22  25
ENDBRANCH  20  21
ENDBRANCH   4  20
TORSDOF 7
ENDMDL
MODEL 5
REMARK VINA RESULT:    -6.602      1.941      2.189
REMARK INTER + INTRA:         -10.492
REMARK INTER:                  -9.093
REMARK INTRA:                  -1.399
REMARK UNBOUND:                -1.189
REMARK  Name = 
REMARK  8 active torsions:
REMARK  status: ('A' for Active; 'I' for Inactive)
REMARK    1  A    between atoms: C_1  and  O_2
REMARK    2  A    between atoms: O_2  and  C_3
REMARK    3  A    between atoms: C_8  and  C_9
REMARK    4  A    between atoms: N_11  and  C_12
REMARK    5  A    between atoms: C_12  and  C_13
REMARK    6  A    between atoms: C_16  and  C_17
REMARK    7  A    between atoms: C_17  and  N_18
REMARK    8  A    between atoms: C_19  and  C_21
REMARK                            x       y       z     vdW  Elec       q    Type
REMARK                         _______ _______ _______ _____ _____    ______ ____
ROOT
ATOM      1  C   UNL     1      50.542   7.640  14.994  0.00  0.00    +0.000 A 
ATOM      2  C   UNL     1      50.928   8.147  13.746  0.00  0.00    +0.000 A 
ATOM      3  C   UNL     1      50.001   8.256  12.702  0.00  0.00    +0.000 A 
ATOM      4  C   UNL     1      48.664   7.878  12.892  0.00  0.00    +0.000 A 
ATOM      5  C   UNL     1      48.277   7.385  14.145  0.00  0.00    +0.000 A 
ATOM      6  C   UNL     1      49.202   7.276  15.188  0.00  0.00    +0.000 A 
ENDROOT
BRANCH   1   7
ATOM      7  C   UNL     1      51.545   7.474  16.105  0.00  0.00    +0.000 C 
BRANCH   7  10
ATOM      8  C   UNL     1      51.004   5.837  17.846  0.00  0.00    +0.000 C 
ATOM      9  O   UNL     1      51.617   4.955  17.248  0.00  0.00    +0.000 OA
ATOM     10  N   UNL     1      50.927   7.122  17.360  0.00  0.00    +0.000 N 
ATOM     11  H   UNL     1      50.377   7.813  17.860  0.00  0.00    +0.000 HD
BRANCH   8  17
ATOM     12  C   UNL     1      48.921   5.501  19.327  0.00  0.00    +0.000 A 
ATOM     13  C   UNL     1      48.464   5.158  20.598  0.00  0.00    +0.000 A 
ATOM     14  N   UNL     1      49.257   4.883  21.661  0.00  0.00    +0.000 NA
ATOM     15  C   UNL     1      50.585   4.931  21.452  0.00  0.00    +0.000 A 
ATOM     16  C   UNL     1      51.149   5.233  20.227  0.00  0.00    +0.000 A 
ATOM     17  C   UNL     1      50.311   5.517  19.136  0.00  0.00    +0.000 A 
BRANCH  12  19
ATOM     18  C   UNL     1      47.265   4.680  17.850  0.00  0.00    +0.000 C 
ATOM     19  O   UNL     1      48.087   5.768  18.273  0.00  0.00    +0.000 OA
ENDBRANCH  12  19
ENDBRANCH   8  17
ENDBRANCH   7  10
ENDBRANCH   1   7
BRANCH   4  20
ATOM     20  C   UNL     1      47.666   7.948  11.764  0.00  0.00    +0.000 C 
BRANCH  20  21
ATOM     21  N   UNL     1      46.953   6.704  11.613  0.00  0.00    +0.000 N 
ATOM     22  C   UNL     1      45.583   6.665  11.660  0.00  0.00    +0.000 C 
ATOM     23  O   UNL     1      44.908   7.686  11.772  0.00  0.00    +0.000 OA
ATOM     24  H   UNL     1      47.483   5.847  11.740  0.00  0.00    +0.000 HD
BRANCH  22  25
ATOM     25  C   UNL     1      44.950   5.346  11.515  0.00  0.00    +0.000 A 
ATOM     26  C   UNL     1      44.243   4.805  12.581  0.00  0.00    +0.000 A 
ATOM     27  S   UNL     1      43.543   3.287  12.241  0.00  0.00    +0.000 S 
ATOM     28  C   UNL     1      44.202   3.274  10.673  0.00  0.00    +0.000 A 
ATOM     29  N   UNL     1      44.006   2.214   9.843  0.00  0.00    +0.000 NA
ATOM     30  C   UNL     1      44.590   2.321   8.696  0.00  0.00    +0.000 A 
ATOM     31  N   UNL     1      45.347   3.393   8.302  0.00  0.00    +0.000 N 
ATOM     32  C   UNL     1      45.544   4.501   9.095  0.00  0.00    +0.000 A 
ATOM     33  O   UNL     1      46.186   5.466   8.693  0.00  0.00    +0.000 OA
ATOM     34  C   UNL     1      44.926   4.422  10.404  0.00  0.00    +0.000 A 
ATOM     35  H   UNL     1      45.768   3.421   7.385  0.00  0.00    +0.000 HD
ENDBRANCH  22  25
ENDBRANCH  20  21
ENDBRANCH   4  20
TORSDOF 7
ENDMDL
MODEL 6
REMARK VINA RESULT:    -6.470      2.222      2.712
REMARK INTER + INTRA:         -10.307
REMARK INTER:                  -8.955
REMARK INTRA:                  -1.352
REMARK UNBOUND:                -1.189
REMARK  Name = 
REMARK  8 active torsions:
REMARK  status: ('A' for Active; 'I' for Inactive)
REMARK    1  A    between atoms: C_1  and  O_2
REMARK    2  A    between atoms: O_2  and  C_3
REMARK    3  A    between atoms: C_8  and  C_9
REMARK    4  A    between atoms: N_11  and  C_12
REMARK    5  A    between atoms: C_12  and  C_13
REMARK    6  A    between atoms: C_16  and  C_17
REMARK    7  A    between atoms: C_17  and  N_18
REMARK    8  A    between atoms: C_19  and  C_21
REMARK                            x       y       z     vdW  Elec       q    Type
REMARK                         _______ _______ _______ _____ _____    ______ ____
ROOT
ATOM      1  C   UNL     1      49.182   6.886  18.003  0.00  0.00    +0.000 A 
ATOM      2  C   UNL     1      49.059   6.071  16.871  0.00  0.00    +0.000 A 
ATOM      3  C   UNL     1      48.648   6.610  15.645  0.00  0.00    +0.000 A 
ATOM      4  C   UNL     1      48.372   7.979  15.524  0.00  0.00    +0.000 A 
ATOM      5  C   UNL     1      48.511   8.794  16.654  0.00  0.00    +0.000 A 
ATOM      6  C   UNL     1      48.920   8.257  17.878  0.00  0.00    +0.000 A 
ENDROOT
BRANCH   1   7
ATOM      7  C   UNL     1      49.575   6.303  19.336  0.00  0.00    +0.000 C 
BRANCH   7  10
ATOM      8  C   UNL     1      51.666   5.076  18.980  0.00  0.00    +0.000 C 
ATOM      9  O   UNL     1      52.303   6.124  18.908  0.00  0.00    +0.000 OA
ATOM     10  N   UNL     1      50.308   5.068  19.204  0.00  0.00    +0.000 N 
ATOM     11  H   UNL     1      49.809   4.184  19.215  0.00  0.00    +0.000 HD
BRANCH   8  17
ATOM     12  C   UNL     1      52.020   2.767  17.890  0.00  0.00    +0.000 A 
ATOM     13  C   UNL     1      52.813   1.620  17.870  0.00  0.00    +0.000 A 
ATOM     14  N   UNL     1      53.860   1.386  18.697  0.00  0.00    +0.000 NA
ATOM     15  C   UNL     1      54.156   2.350  19.586  0.00  0.00    +0.000 A 
ATOM     16  C   UNL     1      53.455   3.538  19.677  0.00  0.00    +0.000 A 
ATOM     17  C   UNL     1      52.371   3.764  18.813  0.00  0.00    +0.000 A 
BRANCH  12  19
ATOM     18  C   UNL     1      49.890   2.048  17.155  0.00  0.00    +0.000 C 
ATOM     19  O   UNL     1      50.971   2.972  17.034  0.00  0.00    +0.000 OA
ENDBRANCH  12  19
ENDBRANCH   8  17
ENDBRANCH   7  10
ENDBRANCH   1   7
BRANCH   4  20
ATOM     20  C   UNL     1      47.888   8.565  14.221  0.00  0.00    +0.000 C 
BRANCH  20  21
ATOM     21  N   UNL     1      46.716   7.878  13.738  0.00  0.00    +0.000 N 
ATOM     22  C   UNL     1      46.779   7.065  12.636  0.00  0.00    +0.000 C 
ATOM     23  O   UNL     1      47.837   6.842  12.053  0.00  0.00    +0.000 OA
ATOM     24  H   UNL     1      45.814   8.216  14.061  0.00  0.00    +0.000 HD
BRANCH  22  25
ATOM     25  C   UNL     1      45.526   6.425  12.209  0.00  0.00    +0.000 A 
ATOM     26  C   UNL     1      44.508   7.202  11.671  0.00  0.00    +0.000 A 
ATOM     27  S   UNL     1      43.137   6.305  11.196  0.00  0.00    +0.000 S 
ATOM     28  C   UNL     1      43.833   4.852  11.741  0.00  0.00    +0.000 A 
ATOM     29  N   UNL     1      43.150   3.677  11.657  0.00  0.00    +0.000 NA
ATOM     30  C   UNL     1      43.782   2.659  12.137  0.00  0.00    +0.000 A 
ATOM     31  N   UNL     1      45.037   2.707  12.687  0.00  0.00    +0.000 N 
ATOM     32  C   UNL     1      45.777   3.864  12.761  0.00  0.00    +0.000 A 
ATOM     33  O   UNL     1      46.917   3.864  13.215  0.00  0.00    +0.000 OA
ATOM     34  C   UNL     1      45.103   5.043  12.254  0.00  0.00    +0.000 A 
ATOM     35  H   UNL     1      45.482   1.870  13.035  0.00  0.00    +0.000 HD
ENDBRANCH  22  25
ENDBRANCH  20  21
ENDBRANCH   4  20
TORSDOF 7
ENDMDL
MODEL 7
REMARK VINA RESULT:    -6.194      3.898      6.150
REMARK INTER + INTRA:          -9.918
REMARK INTER:                  -8.671
REMARK INTRA:                  -1.247
REMARK UNBOUND:                -1.189
REMARK  Name = 
REMARK  8 active torsions:
REMARK  status: ('A' for Active; 'I' for Inactive)
REMARK    1  A    between atoms: C_1  and  O_2
REMARK    2  A    between atoms: O_2  and  C_3
REMARK    3  A    between atoms: C_8  and  C_9
REMARK    4  A    between atoms: N_11  and  C_12
REMARK    5  A    between atoms: C_12  and  C_13
REMARK    6  A    between atoms: C_16  and  C_17
REMARK    7  A    between atoms: C_17  and  N_18
REMARK    8  A    between atoms: C_19  and  C_21
REMARK                            x       y       z     vdW  Elec       q    Type
REMARK                         _______ _______ _______ _____ _____    ______ ____
ROOT
ATOM      1  C   UNL     1      49.362   5.650  19.769  0.00  0.00    +0.000 A 
ATOM      2  C   UNL     1      48.018   5.924  19.487  0.00  0.00    +0.000 A 
ATOM      3  C   UNL     1      47.349   5.240  18.464  0.00  0.00    +0.000 A 
ATOM      4  C   UNL     1      48.007   4.254  17.715  0.00  0.00    +0.000 A 
ATOM      5  C   UNL     1      49.347   3.971  18.009  0.00  0.00    +0.000 A 
ATOM      6  C   UNL     1      50.016   4.654  19.030  0.00  0.00    +0.000 A 
ENDROOT
BRANCH   1   7
ATOM      7  C   UNL     1      50.100   6.416  20.835  0.00  0.00    +0.000 C 
BRANCH   7  10
ATOM      8  C   UNL     1      50.697   8.588  19.868  0.00  0.00    +0.000 C 
ATOM      9  O   UNL     1      51.560   8.070  19.162  0.00  0.00    +0.000 OA
ATOM     10  N   UNL     1      49.914   7.842  20.719  0.00  0.00    +0.000 N 
ATOM     11  H   UNL     1      49.241   8.310  21.318  0.00  0.00    +0.000 HD
BRANCH   8  17
ATOM     12  C   UNL     1      49.273  10.707  19.512  0.00  0.00    +0.000 A 
ATOM     13  C   UNL     1      49.269  12.101  19.535  0.00  0.00    +0.000 A 
ATOM     14  N   UNL     1      50.351  12.876  19.786  0.00  0.00    +0.000 NA
ATOM     15  C   UNL     1      51.505  12.237  20.050  0.00  0.00    +0.000 A 
ATOM     16  C   UNL     1      51.618  10.859  20.081  0.00  0.00    +0.000 A 
ATOM     17  C   UNL     1      50.486  10.071  19.816  0.00  0.00    +0.000 A 
BRANCH  12  19
ATOM     18  C   UNL     1      47.902   9.677  17.882  0.00  0.00    +0.000 C 
ATOM     19  O   UNL     1      48.156   9.955  19.259  0.00  0.00    +0.000 OA
ENDBRANCH  12  19
ENDBRANCH   8  17
ENDBRANCH   7  10
ENDBRANCH   1   7
BRANCH   4  20
ATOM     20  C   UNL     1      47.313   3.541  16.582  0.00  0.00    +0.000 C 
BRANCH  20  21
ATOM     21  N   UNL     1      46.711   4.475  15.662  0.00  0.00    +0.000 N 
ATOM     22  C   UNL     1      46.751   4.257  14.309  0.00  0.00    +0.000 C 
ATOM     23  O   UNL     1      47.244   3.239  13.829  0.00  0.00    +0.000 OA
ATOM     24  H   UNL     1      46.502   5.404  16.015  0.00  0.00    +0.000 HD
BRANCH  22  25
ATOM     25  C   UNL     1      46.126   5.277  13.453  0.00  0.00    +0.000 A 
ATOM     26  C   UNL     1      46.789   6.475  13.220  0.00  0.00    +0.000 A 
ATOM     27  S   UNL     1      45.947   7.535  12.182  0.00  0.00    +0.000 S 
ATOM     28  C   UNL     1      44.643   6.451  12.047  0.00  0.00    +0.000 A 
ATOM     29  N   UNL     1      43.544   6.771  11.309  0.00  0.00    +0.000 NA
ATOM     30  C   UNL     1      42.616   5.874  11.321  0.00  0.00    +0.000 A 
ATOM     31  N   UNL     1      42.689   4.684  11.997  0.00  0.00    +0.000 N 
ATOM     32  C   UNL     1      43.792   4.304  12.726  0.00  0.00    +0.000 A 
ATOM     33  O   UNL     1      43.845   3.211  13.279  0.00  0.00    +0.000 OA
ATOM     34  C   UNL     1      44.856   5.288  12.763  0.00  0.00    +0.000 A 
ATOM     35  H   UNL     1      41.931   4.018  11.955  0.00  0.00    +0.000 HD
ENDBRANCH  22  25
ENDBRANCH  20  21
ENDBRANCH   4  20
TORSDOF 7
ENDMDL
MODEL 8
REMARK VINA RESULT:    -6.061      4.728      6.599
REMARK INTER + INTRA:          -9.730
REMARK INTER:                  -8.355
REMARK INTRA:                  -1.375
REMARK UNBOUND:                -1.189
REMARK  Name = 
REMARK  8 active torsions:
REMARK  status: ('A' for Active; 'I' for Inactive)
REMARK    1  A    between atoms: C_1  and  O_2
REMARK    2  A    between atoms: O_2  and  C_3
REMARK    3  A    between atoms: C_8  and  C_9
REMARK    4  A    between atoms: N_11  and  C_12
REMARK    5  A    between atoms: C_12  and  C_13
REMARK    6  A    between atoms: C_16  and  C_17
REMARK    7  A    between atoms: C_17  and  N_18
REMARK    8  A    between atoms: C_19  and  C_21
REMARK                            x       y       z     vdW  Elec       q    Type
REMARK                         _______ _______ _______ _____ _____    ______ ____
ROOT
ATOM      1  C   UNL     1      48.687   5.824  19.402  0.00  0.00    +0.000 A 
ATOM      2  C   UNL     1      47.375   5.796  18.914  0.00  0.00    +0.000 A 
ATOM      3  C   UNL     1      47.048   5.027  17.789  0.00  0.00    +0.000 A 
ATOM      4  C   UNL     1      48.024   4.257  17.143  0.00  0.00    +0.000 A 
ATOM      5  C   UNL     1      49.333   4.274  17.643  0.00  0.00    +0.000 A 
ATOM      6  C   UNL     1      49.660   5.041  18.765  0.00  0.00    +0.000 A 
ENDROOT
BRANCH   1   7
ATOM      7  C   UNL     1      49.055   6.687  20.581  0.00  0.00    +0.000 C 
BRANCH   7  10
ATOM      8  C   UNL     1      47.448   8.391  21.302  0.00  0.00    +0.000 C 
ATOM      9  O   UNL     1      46.973   7.630  22.142  0.00  0.00    +0.000 OA
ATOM     10  N   UNL     1      48.494   8.013  20.491  0.00  0.00    +0.000 N 
ATOM     11  H   UNL     1      48.833   8.654  19.781  0.00  0.00    +0.000 HD
BRANCH   8  17
ATOM     12  C   UNL     1      46.917  10.527  19.961  0.00  0.00    +0.000 A 
ATOM     13  C   UNL     1      46.313  11.783  19.999  0.00  0.00    +0.000 A 
ATOM     14  N   UNL     1      45.736  12.333  21.095  0.00  0.00    +0.000 NA
ATOM     15  C   UNL     1      45.739  11.591  22.216  0.00  0.00    +0.000 A 
ATOM     16  C   UNL     1      46.284  10.323  22.285  0.00  0.00    +0.000 A 
ATOM     17  C   UNL     1      46.879   9.768  21.140  0.00  0.00    +0.000 A 
BRANCH  12  19
ATOM     18  C   UNL     1      47.915  10.953  17.858  0.00  0.00    +0.000 C 
ATOM     19  O   UNL     1      47.486  10.000  18.831  0.00  0.00    +0.000 OA
ENDBRANCH  12  19
ENDBRANCH   8  17
ENDBRANCH   7  10
ENDBRANCH   1   7
BRANCH   4  20
ATOM     20  C   UNL     1      47.697   3.459  15.905  0.00  0.00    +0.000 C 
BRANCH  20  21
ATOM     21  N   UNL     1      46.769   4.163  15.055  0.00  0.00    +0.000 N 
ATOM     22  C   UNL     1      47.214   5.038  14.098  0.00  0.00    +0.000 C 
ATOM     23  O   UNL     1      48.411   5.214  13.884  0.00  0.00    +0.000 OA
ATOM     24  H   UNL     1      45.800   4.200  15.357  0.00  0.00    +0.000 HD
BRANCH  22  25
ATOM     25  C   UNL     1      46.189   5.722  13.295  0.00  0.00    +0.000 A 
ATOM     26  C   UNL     1      46.238   7.103  13.153  0.00  0.00    +0.000 A 
ATOM     27  S   UNL     1      45.000   7.736  12.166  0.00  0.00    +0.000 S 
ATOM     28  C   UNL     1      44.323   6.194  11.933  0.00  0.00    +0.000 A 
ATOM     29  N   UNL     1      43.192   6.033  11.192  0.00  0.00    +0.000 NA
ATOM     30  C   UNL     1      42.768   4.815  11.126  0.00  0.00    +0.000 A 
ATOM     31  N   UNL     1      43.376   3.743  11.726  0.00  0.00    +0.000 N 
ATOM     32  C   UNL     1      44.537   3.853  12.455  0.00  0.00    +0.000 A 
ATOM     33  O   UNL     1      45.083   2.867  12.938  0.00  0.00    +0.000 OA
ATOM     34  C   UNL     1      45.044   5.206  12.578  0.00  0.00    +0.000 A 
ATOM     35  H   UNL     1      42.999   2.812  11.625  0.00  0.00    +0.000 HD
ENDBRANCH  22  25
ENDBRANCH  20  21
ENDBRANCH   4  20
TORSDOF 7
ENDMDL
MODEL 9
REMARK VINA RESULT:    -5.916      3.213      5.485
REMARK INTER + INTRA:          -9.526
REMARK INTER:                  -8.247
REMARK INTRA:                  -1.278
REMARK UNBOUND:                -1.189
REMARK  Name = 
REMARK  8 active torsions:
REMARK  status: ('A' for Active; 'I' for Inactive)
REMARK    1  A    between atoms: C_1  and  O_2
REMARK    2  A    between atoms: O_2  and  C_3
REMARK    3  A    between atoms: C_8  and  C_9
REMARK    4  A    between atoms: N_11  and  C_12
REMARK    5  A    between atoms: C_12  and  C_13
REMARK    6  A    between atoms: C_16  and  C_17
REMARK    7  A    between atoms: C_17  and  N_18
REMARK    8  A    between atoms: C_19  and  C_21
REMARK                            x       y       z     vdW  Elec       q    Type
REMARK                         _______ _______ _______ _____ _____    ______ ____
ROOT
ATOM      1  C   UNL     1      50.561   5.120  18.935  0.00  0.00    +0.000 A 
ATOM      2  C   UNL     1      49.301   5.728  18.868  0.00  0.00    +0.000 A 
ATOM      3  C   UNL     1      48.272   5.155  18.110  0.00  0.00    +0.000 A 
ATOM      4  C   UNL     1      48.477   3.953  17.419  0.00  0.00    +0.000 A 
ATOM      5  C   UNL     1      49.734   3.339  17.500  0.00  0.00    +0.000 A 
ATOM      6  C   UNL     1      50.762   3.910  18.257  0.00  0.00    +0.000 A 
ENDROOT
BRANCH   1   7
ATOM      7  C   UNL     1      51.687   5.756  19.709  0.00  0.00    +0.000 C 
BRANCH   7  10
ATOM      8  C   UNL     1      52.189   8.057  19.033  0.00  0.00    +0.000 C 
ATOM      9  O   UNL     1      51.356   8.501  19.821  0.00  0.00    +0.000 OA
ATOM     10  N   UNL     1      52.431   6.707  18.920  0.00  0.00    +0.000 N 
ATOM     11  H   UNL     1      53.096   6.375  18.228  0.00  0.00    +0.000 HD
BRANCH   8  17
ATOM     12  C   UNL     1      53.211   8.818  16.793  0.00  0.00    +0.000 A 
ATOM     13  C   UNL     1      53.937   9.817  16.146  0.00  0.00    +0.000 A 
ATOM     14  N   UNL     1      54.451  10.916  16.748  0.00  0.00    +0.000 NA
ATOM     15  C   UNL     1      54.219  11.048  18.067  0.00  0.00    +0.000 A 
ATOM     16  C   UNL     1      53.489  10.133  18.802  0.00  0.00    +0.000 A 
ATOM     17  C   UNL     1      52.965   8.998  18.162  0.00  0.00    +0.000 A 
BRANCH  12  19
ATOM     18  C   UNL     1      53.659   6.907  15.472  0.00  0.00    +0.000 C 
ATOM     19  O   UNL     1      52.702   7.722  16.149  0.00  0.00    +0.000 OA
ENDBRANCH  12  19
ENDBRANCH   8  17
ENDBRANCH   7  10
ENDBRANCH   1   7
BRANCH   4  20
ATOM     20  C   UNL     1      47.392   3.349  16.564  0.00  0.00    +0.000 C 
BRANCH  20  21
ATOM     21  N   UNL     1      46.822   4.325  15.668  0.00  0.00    +0.000 N 
ATOM     22  C   UNL     1      46.816   4.121  14.313  0.00  0.00    +0.000 C 
ATOM     23  O   UNL     1      47.238   3.082  13.811  0.00  0.00    +0.000 OA
ATOM     24  H   UNL     1      46.676   5.261  16.035  0.00  0.00    +0.000 HD
BRANCH  22  25
ATOM     25  C   UNL     1      46.230   5.184  13.483  0.00  0.00    +0.000 A 
ATOM     26  C   UNL     1      46.944   6.356  13.266  0.00  0.00    +0.000 A 
ATOM     27  S   UNL     1      46.141   7.471  12.256  0.00  0.00    +0.000 S 
ATOM     28  C   UNL     1      44.788   6.450  12.114  0.00  0.00    +0.000 A 
ATOM     29  N   UNL     1      43.698   6.833  11.393  0.00  0.00    +0.000 NA
ATOM     30  C   UNL     1      42.731   5.978  11.397  0.00  0.00    +0.000 A 
ATOM     31  N   UNL     1      42.756   4.773  12.050  0.00  0.00    +0.000 N 
ATOM     32  C   UNL     1      43.848   4.331  12.761  0.00  0.00    +0.000 A 
ATOM     33  O   UNL     1      43.857   3.226  13.292  0.00  0.00    +0.000 OA
ATOM     34  C   UNL     1      44.955   5.265  12.806  0.00  0.00    +0.000 A 
ATOM     35  H   UNL     1      41.969   4.143  12.003  0.00  0.00    +0.000 HD
ENDBRANCH  22  25
ENDBRANCH  20  21
ENDBRANCH   4  20
TORSDOF 7
ENDMDL
