MODEL 1
REMARK VINA RESULT:    -8.606      0.000      0.000
REMARK INTER + INTRA:         -11.801
REMARK INTER:                 -11.121
REMARK INTRA:                  -0.680
REMARK UNBOUND:                -0.680
REMARK  Name = 
REMARK  5 active torsions:
REMARK  status: ('A' for Active; 'I' for Inactive)
REMARK    1  A    between atoms: C_2  and  C_19
REMARK    2  A    between atoms: N_3  and  C_4
REMARK    3  A    between atoms: C_4  and  C_5
REMARK    4  A    between atoms: C_8  and  C_9
REMARK    5  A    between atoms: C_9  and  N_10
REMARK                            x       y       z     vdW  Elec       q    Type
REMARK                         _______ _______ _______ _____ _____    ______ ____
ROOT
ATOM      1  C   UNL     1      46.671   6.993  12.686  0.00  0.00    +0.000 C 
ENDROOT
BRANCH   1   2
ATOM      2  C   UNL     1      45.998   5.913  11.876  0.00  0.00    +0.000 A 
ATOM      3  C   UNL     1      45.817   6.071  10.507  0.00  0.00    +0.000 A 
ATOM      4  N   UNL     1      45.292   5.104   9.714  0.00  0.00    +0.000 NA
ATOM      5  C   UNL     1      44.927   3.952  10.334  0.00  0.00    +0.000 A 
ATOM      6  C   UNL     1      45.088   3.804  11.708  0.00  0.00    +0.000 A 
ATOM      7  N   UNL     1      45.619   4.768  12.505  0.00  0.00    +0.000 NA
BRANCH   5   8
ATOM      8  C   UNL     1      44.359   2.821   9.499  0.00  0.00    +0.000 C 
BRANCH   8   9
ATOM      9  N   UNL     1      45.376   1.803   9.222  0.00  0.00    +0.000 N 
ATOM     10  C   UNL     1      46.107   2.019   8.043  0.00  0.00    +0.000 A 
ATOM     11  C   UNL     1      47.126   1.129   7.680  0.00  0.00    +0.000 A 
ATOM     12  N   UNL     1      47.870   1.244   6.549  0.00  0.00    +0.000 NA
ATOM     13  C   UNL     1      47.573   2.311   5.784  0.00  0.00    +0.000 A 
ATOM     14  C   UNL     1      46.587   3.214   6.135  0.00  0.00    +0.000 A 
ATOM     15  N   UNL     1      45.842   3.088   7.260  0.00  0.00    +0.000 NA
ATOM     16  H   UNL     1      45.002   0.860   9.223  0.00  0.00    +0.000 HD
ENDBRANCH   8   9
ENDBRANCH   5   8
ENDBRANCH   1   2
BRANCH   1  19
ATOM     17  O   UNL     1      49.285   6.835  13.691  0.00  0.00    +0.000 OA
ATOM     18  C   UNL     1      48.352   6.567  14.441  0.00  0.00    +0.000 C 
ATOM     19  N   UNL     1      47.049   6.571  14.012  0.00  0.00    +0.000 N 
ATOM     20  H   UNL     1      46.295   6.525  14.691  0.00  0.00    +0.000 HD
BRANCH  18  21
ATOM     21  C   UNL     1      48.566   6.187  15.834  0.00  0.00    +0.000 A 
ATOM     22  C   UNL     1      49.146   7.074  16.736  0.00  0.00    +0.000 A 
ATOM     23  S   UNL     1      49.309   6.430  18.309  0.00  0.00    +0.000 S 
ATOM     24  C   UNL     1      48.579   4.964  17.846  0.00  0.00    +0.000 A 
ATOM     25  N   UNL     1      48.389   3.954  18.744  0.00  0.00    +0.000 NA
ATOM     26  C   UNL     1      47.785   2.924  18.258  0.00  0.00    +0.000 A 
ATOM     27  N   UNL     1      47.359   2.798  16.959  0.00  0.00    +0.000 N 
ATOM     28  C   UNL     1      47.602   3.750  16.006  0.00  0.00    +0.000 A 
ATOM     29  O   UNL     1      47.339   3.546  14.829  0.00  0.00    +0.000 OA
ATOM     30  C   UNL     1      48.237   4.953  16.505  0.00  0.00    +0.000 A 
ATOM     31  H   UNL     1      46.923   1.947  16.634  0.00  0.00    +0.000 HD
ENDBRANCH  18  21
ENDBRANCH   1  19
TORSDOF 5
ENDMDL
MODEL 2
REMARK VINA RESULT:    -7.944      1.657      2.275
REMARK INTER + INTRA:         -10.945
REMARK INTER:                 -10.310
REMARK INTRA:                  -0.635
REMARK UNBOUND:                -0.680
REMARK  Name = 
REMARK  5 active torsions:
REMARK  status: ('A' for Active; 'I' for Inactive)
REMARK    1  A    between atoms: C_2  and  C_19
REMARK    2  A    between atoms: N_3  and  C_4
REMARK    3  A    between atoms: C_4  and  C_5
REMARK    4  A    between atoms: C_8  and  C_9
REMARK    5  A    between atoms: C_9  and  N_10
REMARK                            x       y       z     vdW  Elec       q    Type
REMARK                         _______ _______ _______ _____ _____    ______ ____
ROOT
ATOM      1  C   UNL     1      47.109   6.392  13.513  0.00  0.00    +0.000 C 
ENDROOT
BRANCH   1   2
ATOM      2  C   UNL     1      46.299   5.565  12.547  0.00  0.00    +0.000 A 
ATOM      3  C   UNL     1      46.058   6.025  11.257  0.00  0.00    +0.000 A 
ATOM      4  N   UNL     1      45.405   5.294  10.321  0.00  0.00    +0.000 NA
ATOM      5  C   UNL     1      44.971   4.067  10.712  0.00  0.00    +0.000 A 
ATOM      6  C   UNL     1      45.193   3.617  12.010  0.00  0.00    +0.000 A 
ATOM      7  N   UNL     1      45.852   4.344  12.949  0.00  0.00    +0.000 NA
BRANCH   5   8
ATOM      8  C   UNL     1      44.258   3.189   9.703  0.00  0.00    +0.000 C 
BRANCH   8   9
ATOM      9  N   UNL     1      45.054   2.002   9.376  0.00  0.00    +0.000 N 
ATOM     10  C   UNL     1      45.839   2.132   8.218  0.00  0.00    +0.000 A 
ATOM     11  C   UNL     1      46.665   1.075   7.813  0.00  0.00    +0.000 A 
ATOM     12  N   UNL     1      47.440   1.100   6.698  0.00  0.00    +0.000 NA
ATOM     13  C   UNL     1      47.381   2.247   5.995  0.00  0.00    +0.000 A 
ATOM     14  C   UNL     1      46.590   3.310   6.389  0.00  0.00    +0.000 A 
ATOM     15  N   UNL     1      45.812   3.274   7.498  0.00  0.00    +0.000 NA
ATOM     16  H   UNL     1      44.497   1.156   9.317  0.00  0.00    +0.000 HD
ENDBRANCH   8   9
ENDBRANCH   5   8
ENDBRANCH   1   2
BRANCH   1  19
ATOM     17  O   UNL     1      49.411   6.521  15.112  0.00  0.00    +0.000 OA
ATOM     18  C   UNL     1      48.431   5.919  15.542  0.00  0.00    +0.000 C 
ATOM     19  N   UNL     1      47.287   5.767  14.801  0.00  0.00    +0.000 N 
ATOM     20  H   UNL     1      46.440   5.428  15.246  0.00  0.00    +0.000 HD
BRANCH  18  21
ATOM     21  C   UNL     1      48.429   5.289  16.858  0.00  0.00    +0.000 A 
ATOM     22  C   UNL     1      48.518   3.907  16.991  0.00  0.00    +0.000 A 
ATOM     23  S   UNL     1      48.493   3.379  18.614  0.00  0.00    +0.000 S 
ATOM     24  C   UNL     1      48.401   4.976  19.192  0.00  0.00    +0.000 A 
ATOM     25  N   UNL     1      48.366   5.244  20.530  0.00  0.00    +0.000 NA
ATOM     26  C   UNL     1      48.340   6.500  20.816  0.00  0.00    +0.000 A 
ATOM     27  N   UNL     1      48.338   7.519  19.896  0.00  0.00    +0.000 N 
ATOM     28  C   UNL     1      48.290   7.297  18.547  0.00  0.00    +0.000 A 
ATOM     29  O   UNL     1      48.143   8.222  17.760  0.00  0.00    +0.000 OA
ATOM     30  C   UNL     1      48.364   5.901  18.164  0.00  0.00    +0.000 A 
ATOM     31  H   UNL     1      48.281   8.484  20.188  0.00  0.00    +0.000 HD
ENDBRANCH  18  21
ENDBRANCH   1  19
TORSDOF 5
ENDMDL
MODEL 3
REMARK VINA RESULT:    -7.740      2.589      4.341
REMARK INTER + INTRA:         -10.682
REMARK INTER:                  -9.764
REMARK INTRA:                  -0.918
REMARK UNBOUND:                -0.680
REMARK  Name = 
REMARK  5 active torsions:
REMARK  status: ('A' for Active; 'I' for Inactive)
REMARK    1  A    between atoms: C_2  and  C_19
REMARK    2  A    between atoms: N_3  and  C_4
REMARK    3  A    between atoms: C_4  and  C_5
REMARK    4  A    between atoms: C_8  and  C_9
REMARK    5  A    between atoms: C_9  and  N_10
REMARK                            x       y       z     vdW  Elec       q    Type
REMARK                         _______ _______ _______ _____ _____    ______ ____
ROOT
ATOM      1  C   UNL     1      47.222   5.197  14.490  0.00  0.00    +0.000 C 
ENDROOT
BRANCH   1   2
ATOM      2  C   UNL     1      46.379   4.733  13.328  0.00  0.00    +0.000 A 
ATOM      3  C   UNL     1      46.109   5.591  12.269  0.00  0.00    +0.000 A 
ATOM      4  N   UNL     1      45.427   5.208  11.162  0.00  0.00    +0.000 NA
ATOM      5  C   UNL     1      44.992   3.921  11.140  0.00  0.00    +0.000 A 
ATOM      6  C   UNL     1      45.244   3.070  12.212  0.00  0.00    +0.000 A 
ATOM      7  N   UNL     1      45.932   3.448  13.319  0.00  0.00    +0.000 NA
BRANCH   5   8
ATOM      8  C   UNL     1      44.246   3.423   9.918  0.00  0.00    +0.000 C 
BRANCH   8   9
ATOM      9  N   UNL     1      44.730   2.103   9.501  0.00  0.00    +0.000 N 
ATOM     10  C   UNL     1      45.720   2.137   8.506  0.00  0.00    +0.000 A 
ATOM     11  C   UNL     1      46.283   0.942   8.041  0.00  0.00    +0.000 A 
ATOM     12  N   UNL     1      47.228   0.873   7.067  0.00  0.00    +0.000 NA
ATOM     13  C   UNL     1      47.619   2.065   6.575  0.00  0.00    +0.000 A 
ATOM     14  C   UNL     1      47.093   3.257   7.037  0.00  0.00    +0.000 A 
ATOM     15  N   UNL     1      46.144   3.317   8.002  0.00  0.00    +0.000 NA
ATOM     16  H   UNL     1      43.982   1.479   9.217  0.00  0.00    +0.000 HD
ENDBRANCH   8   9
ENDBRANCH   5   8
ENDBRANCH   1   2
BRANCH   1  19
ATOM     17  O   UNL     1      49.660   6.374  15.226  0.00  0.00    +0.000 OA
ATOM     18  C   UNL     1      48.769   7.096  14.787  0.00  0.00    +0.000 C 
ATOM     19  N   UNL     1      47.532   6.605  14.453  0.00  0.00    +0.000 N 
ATOM     20  H   UNL     1      46.886   7.185  13.928  0.00  0.00    +0.000 HD
BRANCH  18  21
ATOM     21  C   UNL     1      48.951   8.535  14.625  0.00  0.00    +0.000 A 
ATOM     22  C   UNL     1      49.101   9.366  15.730  0.00  0.00    +0.000 A 
ATOM     23  S   UNL     1      49.296  11.011  15.319  0.00  0.00    +0.000 S 
ATOM     24  C   UNL     1      49.224  10.663  13.655  0.00  0.00    +0.000 A 
ATOM     25  N   UNL     1      49.346  11.649  12.720  0.00  0.00    +0.000 NA
ATOM     26  C   UNL     1      49.315  11.227  11.502  0.00  0.00    +0.000 A 
ATOM     27  N   UNL     1      49.165   9.917  11.124  0.00  0.00    +0.000 N 
ATOM     28  C   UNL     1      48.958   8.907  12.025  0.00  0.00    +0.000 A 
ATOM     29  O   UNL     1      48.684   7.775  11.651  0.00  0.00    +0.000 OA
ATOM     30  C   UNL     1      49.029   9.315  13.413  0.00  0.00    +0.000 A 
ATOM     31  H   UNL     1      49.114   9.658  10.150  0.00  0.00    +0.000 HD
ENDBRANCH  18  21
ENDBRANCH   1  19
TORSDOF 5
ENDMDL
MODEL 4
REMARK VINA RESULT:    -7.629      2.078      3.659
REMARK INTER + INTRA:         -10.538
REMARK INTER:                  -9.767
REMARK INTRA:                  -0.771
REMARK UNBOUND:                -0.680
REMARK  Name = 
REMARK  5 active torsions:
REMARK  status: ('A' for Active; 'I' for Inactive)
REMARK    1  A    between atoms: C_2  and  C_19
REMARK    2  A    between atoms: N_3  and  C_4
REMARK    3  A    between atoms: C_4  and  C_5
REMARK    4  A    between atoms: C_8  and  C_9
REMARK    5  A    between atoms: C_9  and  N_10
REMARK                            x       y       z     vdW  Elec       q    Type
REMARK                         _______ _______ _______ _____ _____    ______ ____
ROOT
ATOM      1  C   UNL     1      46.932   4.305  14.799  0.00  0.00    +0.000 C 
ENDROOT
BRANCH   1   2
ATOM      2  C   UNL     1      46.152   4.300  13.508  0.00  0.00    +0.000 A 
ATOM      3  C   UNL     1      46.003   5.470  12.772  0.00  0.00    +0.000 A 
ATOM      4  N   UNL     1      45.383   5.511  11.567  0.00  0.00    +0.000 NA
ATOM      5  C   UNL     1      44.885   4.334  11.107  0.00  0.00    +0.000 A 
ATOM      6  C   UNL     1      45.015   3.168  11.856  0.00  0.00    +0.000 A 
ATOM      7  N   UNL     1      45.641   3.121  13.060  0.00  0.00    +0.000 NA
BRANCH   5   8
ATOM      8  C   UNL     1      44.204   4.309   9.753  0.00  0.00    +0.000 C 
BRANCH   8   9
ATOM      9  N   UNL     1      45.149   4.622   8.677  0.00  0.00    +0.000 N 
ATOM     10  C   UNL     1      45.809   3.504   8.142  0.00  0.00    +0.000 A 
ATOM     11  C   UNL     1      46.720   3.669   7.090  0.00  0.00    +0.000 A 
ATOM     12  N   UNL     1      47.422   2.653   6.525  0.00  0.00    +0.000 NA
ATOM     13  C   UNL     1      47.166   1.435   7.040  0.00  0.00    +0.000 A 
ATOM     14  C   UNL     1      46.254   1.248   8.062  0.00  0.00    +0.000 A 
ATOM     15  N   UNL     1      45.564   2.268   8.627  0.00  0.00    +0.000 NA
ATOM     16  H   UNL     1      45.830   5.327   8.942  0.00  0.00    +0.000 HD
ENDBRANCH   8   9
ENDBRANCH   5   8
ENDBRANCH   1   2
BRANCH   1  19
ATOM     17  O   UNL     1      49.013   4.799  16.614  0.00  0.00    +0.000 OA
ATOM     18  C   UNL     1      48.526   5.749  16.008  0.00  0.00    +0.000 C 
ATOM     19  N   UNL     1      47.472   5.597  15.143  0.00  0.00    +0.000 N 
ATOM     20  H   UNL     1      47.214   6.361  14.526  0.00  0.00    +0.000 HD
BRANCH  18  21
ATOM     21  C   UNL     1      49.009   7.113  16.194  0.00  0.00    +0.000 A 
ATOM     22  C   UNL     1      48.988   7.715  17.449  0.00  0.00    +0.000 A 
ATOM     23  S   UNL     1      49.592   9.311  17.445  0.00  0.00    +0.000 S 
ATOM     24  C   UNL     1      49.936   9.238  15.780  0.00  0.00    +0.000 A 
ATOM     25  N   UNL     1      50.500  10.295  15.127  0.00  0.00    +0.000 NA
ATOM     26  C   UNL     1      50.741  10.076  13.880  0.00  0.00    +0.000 A 
ATOM     27  N   UNL     1      50.466   8.907  13.216  0.00  0.00    +0.000 N 
ATOM     28  C   UNL     1      49.827   7.852  13.810  0.00  0.00    +0.000 A 
ATOM     29  O   UNL     1      49.467   6.883  13.156  0.00  0.00    +0.000 OA
ATOM     30  C   UNL     1      49.573   8.023  15.227  0.00  0.00    +0.000 A 
ATOM     31  H   UNL     1      50.648   8.813  12.227  0.00  0.00    +0.000 HD
ENDBRANCH  18  21
ENDBRANCH   1  19
TORSDOF 5
ENDMDL
MODEL 5
REMARK VINA RESULT:    -7.548      4.469      8.888
REMARK INTER + INTRA:         -10.434
REMARK INTER:                  -9.779
REMARK INTRA:                  -0.655
REMARK UNBOUND:                -0.680
REMARK  Name = 
REMARK  5 active torsions:
REMARK  status: ('A' for Active; 'I' for Inactive)
REMARK    1  A    between atoms: C_2  and  C_19
REMARK    2  A    between atoms: N_3  and  C_4
REMARK    3  A    between atoms: C_4  and  C_5
REMARK    4  A    between atoms: C_8  and  C_9
REMARK    5  A    between atoms: C_9  and  N_10
REMARK                            x       y       z     vdW  Elec       q    Type
REMARK                         _______ _______ _______ _____ _____    ______ ____
ROOT
ATOM      1  C   UNL     1      47.292   3.575  16.889  0.00  0.00    +0.000 C 
ENDROOT
BRANCH   1   2
ATOM      2  C   UNL     1      48.763   3.291  17.061  0.00  0.00    +0.000 A 
ATOM      3  C   UNL     1      49.597   4.236  17.647  0.00  0.00    +0.000 A 
ATOM      4  N   UNL     1      50.910   4.008  17.900  0.00  0.00    +0.000 NA
ATOM      5  C   UNL     1      51.390   2.792  17.531  0.00  0.00    +0.000 A 
ATOM      6  C   UNL     1      50.559   1.856  16.923  0.00  0.00    +0.000 A 
ATOM      7  N   UNL     1      49.243   2.079  16.674  0.00  0.00    +0.000 NA
BRANCH   5   8
ATOM      8  C   UNL     1      52.844   2.465  17.812  0.00  0.00    +0.000 C 
BRANCH   8   9
ATOM      9  N   UNL     1      52.969   1.230  18.591  0.00  0.00    +0.000 N 
ATOM     10  C   UNL     1      53.752   0.237  17.980  0.00  0.00    +0.000 A 
ATOM     11  C   UNL     1      53.969  -0.982  18.636  0.00  0.00    +0.000 A 
ATOM     12  N   UNL     1      54.692  -2.008  18.116  0.00  0.00    +0.000 NA
ATOM     13  C   UNL     1      55.222  -1.766  16.901  0.00  0.00    +0.000 A 
ATOM     14  C   UNL     1      55.039  -0.562  16.247  0.00  0.00    +0.000 A 
ATOM     15  N   UNL     1      54.308   0.453  16.769  0.00  0.00    +0.000 NA
ATOM     16  H   UNL     1      52.072   0.840  18.860  0.00  0.00    +0.000 HD
ENDBRANCH   8   9
ENDBRANCH   5   8
ENDBRANCH   1   2
BRANCH   1  19
ATOM     17  O   UNL     1      47.283   3.115  14.122  0.00  0.00    +0.000 OA
ATOM     18  C   UNL     1      46.977   4.231  14.531  0.00  0.00    +0.000 C 
ATOM     19  N   UNL     1      47.006   4.549  15.865  0.00  0.00    +0.000 N 
ATOM     20  H   UNL     1      46.578   5.412  16.186  0.00  0.00    +0.000 HD
BRANCH  18  21
ATOM     21  C   UNL     1      46.596   5.308  13.624  0.00  0.00    +0.000 A 
ATOM     22  C   UNL     1      47.475   6.349  13.341  0.00  0.00    +0.000 A 
ATOM     23  S   UNL     1      46.831   7.505  12.262  0.00  0.00    +0.000 S 
ATOM     24  C   UNL     1      45.376   6.636  12.109  0.00  0.00    +0.000 A 
ATOM     25  N   UNL     1      44.371   7.075  11.298  0.00  0.00    +0.000 NA
ATOM     26  C   UNL     1      43.350   6.290  11.252  0.00  0.00    +0.000 A 
ATOM     27  N   UNL     1      43.228   5.111  11.943  0.00  0.00    +0.000 N 
ATOM     28  C   UNL     1      44.175   4.673  12.829  0.00  0.00    +0.000 A 
ATOM     29  O   UNL     1      43.973   3.695  13.536  0.00  0.00    +0.000 OA
ATOM     30  C   UNL     1      45.369   5.492  12.889  0.00  0.00    +0.000 A 
ATOM     31  H   UNL     1      42.384   4.560  11.889  0.00  0.00    +0.000 HD
ENDBRANCH  18  21
ENDBRANCH   1  19
TORSDOF 5
ENDMDL
MODEL 6
REMARK VINA RESULT:    -7.365      2.531      3.423
REMARK INTER + INTRA:         -10.197
REMARK INTER:                  -9.611
REMARK INTRA:                  -0.586
REMARK UNBOUND:                -0.680
REMARK  Name = 
REMARK  5 active torsions:
REMARK  status: ('A' for Active; 'I' for Inactive)
REMARK    1  A    between atoms: C_2  and  C_19
REMARK    2  A    between atoms: N_3  and  C_4
REMARK    3  A    between atoms: C_4  and  C_5
REMARK    4  A    between atoms: C_8  and  C_9
REMARK    5  A    between atoms: C_9  and  N_10
REMARK                            x       y       z     vdW  Elec       q    Type
REMARK                         _______ _______ _______ _____ _____    ______ ____
ROOT
ATOM      1  C   UNL     1      47.268   4.385  14.888  0.00  0.00    +0.000 C 
ENDROOT
BRANCH   1   2
ATOM      2  C   UNL     1      46.428   4.357  13.636  0.00  0.00    +0.000 A 
ATOM      3  C   UNL     1      46.247   5.512  12.885  0.00  0.00    +0.000 A 
ATOM      4  N   UNL     1      45.570   5.532  11.710  0.00  0.00    +0.000 NA
ATOM      5  C   UNL     1      45.049   4.347  11.298  0.00  0.00    +0.000 A 
ATOM      6  C   UNL     1      45.212   3.196  12.062  0.00  0.00    +0.000 A 
ATOM      7  N   UNL     1      45.894   3.171  13.236  0.00  0.00    +0.000 NA
BRANCH   5   8
ATOM      8  C   UNL     1      44.304   4.297   9.978  0.00  0.00    +0.000 C 
BRANCH   8   9
ATOM      9  N   UNL     1      45.182   4.653   8.859  0.00  0.00    +0.000 N 
ATOM     10  C   UNL     1      45.815   3.558   8.249  0.00  0.00    +0.000 A 
ATOM     11  C   UNL     1      46.661   3.764   7.151  0.00  0.00    +0.000 A 
ATOM     12  N   UNL     1      47.333   2.772   6.512  0.00  0.00    +0.000 NA
ATOM     13  C   UNL     1      47.114   1.536   7.000  0.00  0.00    +0.000 A 
ATOM     14  C   UNL     1      46.266   1.308   8.067  0.00  0.00    +0.000 A 
ATOM     15  N   UNL     1      45.606   2.305   8.706  0.00  0.00    +0.000 NA
ATOM     16  H   UNL     1      45.874   5.353   9.106  0.00  0.00    +0.000 HD
ENDBRANCH   8   9
ENDBRANCH   5   8
ENDBRANCH   1   2
BRANCH   1  19
ATOM     17  O   UNL     1      49.340   5.092  16.643  0.00  0.00    +0.000 OA
ATOM     18  C   UNL     1      48.642   5.984  16.170  0.00  0.00    +0.000 C 
ATOM     19  N   UNL     1      47.579   5.717  15.346  0.00  0.00    +0.000 N 
ATOM     20  H   UNL     1      47.139   6.474  14.831  0.00  0.00    +0.000 HD
BRANCH  18  21
ATOM     21  C   UNL     1      48.872   7.391  16.483  0.00  0.00    +0.000 A 
ATOM     22  C   UNL     1      49.555   8.218  15.597  0.00  0.00    +0.000 A 
ATOM     23  S   UNL     1      49.719   9.823  16.157  0.00  0.00    +0.000 S 
ATOM     24  C   UNL     1      48.855   9.474  17.581  0.00  0.00    +0.000 A 
ATOM     25  N   UNL     1      48.612  10.438  18.515  0.00  0.00    +0.000 NA
ATOM     26  C   UNL     1      47.908  10.035  19.518  0.00  0.00    +0.000 A 
ATOM     27  N   UNL     1      47.429   8.760  19.684  0.00  0.00    +0.000 N 
ATOM     28  C   UNL     1      47.716   7.743  18.815  0.00  0.00    +0.000 A 
ATOM     29  O   UNL     1      47.397   6.589  19.066  0.00  0.00    +0.000 OA
ATOM     30  C   UNL     1      48.466   8.147  17.642  0.00  0.00    +0.000 A 
ATOM     31  H   UNL     1      46.913   8.501  20.513  0.00  0.00    +0.000 HD
ENDBRANCH  18  21
ENDBRANCH   1  19
TORSDOF 5
ENDMDL
MODEL 7
REMARK VINA RESULT:    -7.053      4.138      5.985
REMARK INTER + INTRA:          -9.794
REMARK INTER:                  -9.174
REMARK INTRA:                  -0.620
REMARK UNBOUND:                -0.680
REMARK  Name = 
REMARK  5 active torsions:
REMARK  status: ('A' for Active; 'I' for Inactive)
REMARK    1  A    between atoms: C_2  and  C_19
REMARK    2  A    between atoms: N_3  and  C_4
REMARK    3  A    between atoms: C_4  and  C_5
REMARK    4  A    between atoms: C_8  and  C_9
REMARK    5  A    between atoms: C_9  and  N_10
REMARK                            x       y       z     vdW  Elec       q    Type
REMARK                         _______ _______ _______ _____ _____    ______ ____
ROOT
ATOM      1  C   UNL     1      46.269   4.107  14.388  0.00  0.00    +0.000 C 
ENDROOT
BRANCH   1   2
ATOM      2  C   UNL     1      45.854   5.227  13.468  0.00  0.00    +0.000 A 
ATOM      3  C   UNL     1      44.566   5.267  12.946  0.00  0.00    +0.000 A 
ATOM      4  N   UNL     1      44.111   6.288  12.179  0.00  0.00    +0.000 NA
ATOM      5  C   UNL     1      44.995   7.287  11.923  0.00  0.00    +0.000 A 
ATOM      6  C   UNL     1      46.291   7.235  12.428  0.00  0.00    +0.000 A 
ATOM      7  N   UNL     1      46.748   6.217  13.201  0.00  0.00    +0.000 NA
BRANCH   5   8
ATOM      8  C   UNL     1      44.538   8.472  11.094  0.00  0.00    +0.000 C 
BRANCH   8   9
ATOM      9  N   UNL     1      43.076   8.575  11.076  0.00  0.00    +0.000 N 
ATOM     10  C   UNL     1      42.589   9.839  10.707  0.00  0.00    +0.000 A 
ATOM     11  C   UNL     1      41.208  10.059  10.627  0.00  0.00    +0.000 A 
ATOM     12  N   UNL     1      40.644  11.251  10.301  0.00  0.00    +0.000 NA
ATOM     13  C   UNL     1      41.522  12.236  10.030  0.00  0.00    +0.000 A 
ATOM     14  C   UNL     1      42.889  12.034  10.080  0.00  0.00    +0.000 A 
ATOM     15  N   UNL     1      43.444  10.843  10.415  0.00  0.00    +0.000 NA
ATOM     16  H   UNL     1      42.649   8.287  11.951  0.00  0.00    +0.000 HD
ENDBRANCH   8   9
ENDBRANCH   5   8
ENDBRANCH   1   2
BRANCH   1  19
ATOM     17  O   UNL     1      46.570   3.238  17.039  0.00  0.00    +0.000 OA
ATOM     18  C   UNL     1      47.442   3.954  16.554  0.00  0.00    +0.000 C 
ATOM     19  N   UNL     1      47.343   4.461  15.284  0.00  0.00    +0.000 N 
ATOM     20  H   UNL     1      48.153   4.893  14.850  0.00  0.00    +0.000 HD
BRANCH  18  21
ATOM     21  C   UNL     1      48.626   4.347  17.310  0.00  0.00    +0.000 A 
ATOM     22  C   UNL     1      48.670   5.559  17.994  0.00  0.00    +0.000 A 
ATOM     23  S   UNL     1      50.147   5.825  18.807  0.00  0.00    +0.000 S 
ATOM     24  C   UNL     1      50.760   4.319  18.306  0.00  0.00    +0.000 A 
ATOM     25  N   UNL     1      52.004   3.902  18.680  0.00  0.00    +0.000 NA
ATOM     26  C   UNL     1      52.313   2.723  18.260  0.00  0.00    +0.000 A 
ATOM     27  N   UNL     1      51.504   1.920  17.494  0.00  0.00    +0.000 N 
ATOM     28  C   UNL     1      50.284   2.330  17.029  0.00  0.00    +0.000 A 
ATOM     29  O   UNL     1      49.652   1.650  16.232  0.00  0.00    +0.000 OA
ATOM     30  C   UNL     1      49.863   3.631  17.508  0.00  0.00    +0.000 A 
ATOM     31  H   UNL     1      51.822   1.019  17.168  0.00  0.00    +0.000 HD
ENDBRANCH  18  21
ENDBRANCH   1  19
TORSDOF 5
ENDMDL
MODEL 8
REMARK VINA RESULT:    -6.919      3.760      8.362
REMARK INTER + INTRA:          -9.621
REMARK INTER:                  -8.800
REMARK INTRA:                  -0.821
REMARK UNBOUND:                -0.680
REMARK  Name = 
REMARK  5 active torsions:
REMARK  status: ('A' for Active; 'I' for Inactive)
REMARK    1  A    between atoms: C_2  and  C_19
REMARK    2  A    between atoms: N_3  and  C_4
REMARK    3  A    between atoms: C_4  and  C_5
REMARK    4  A    between atoms: C_8  and  C_9
REMARK    5  A    between atoms: C_9  and  N_10
REMARK                            x       y       z     vdW  Elec       q    Type
REMARK                         _______ _______ _______ _____ _____    ______ ____
ROOT
ATOM      1  C   UNL     1      48.419   7.641  14.453  0.00  0.00    +0.000 C 
ENDROOT
BRANCH   1   2
ATOM      2  C   UNL     1      48.932   6.715  15.527  0.00  0.00    +0.000 A 
ATOM      3  C   UNL     1      48.211   5.580  15.880  0.00  0.00    +0.000 A 
ATOM      4  N   UNL     1      48.659   4.670  16.779  0.00  0.00    +0.000 NA
ATOM      5  C   UNL     1      49.865   4.931  17.349  0.00  0.00    +0.000 A 
ATOM      6  C   UNL     1      50.574   6.079  17.011  0.00  0.00    +0.000 A 
ATOM      7  N   UNL     1      50.132   6.990  16.106  0.00  0.00    +0.000 NA
BRANCH   5   8
ATOM      8  C   UNL     1      50.433   3.937  18.342  0.00  0.00    +0.000 C 
BRANCH   8   9
ATOM      9  N   UNL     1      50.697   2.642  17.707  0.00  0.00    +0.000 N 
ATOM     10  C   UNL     1      51.991   2.143  17.925  0.00  0.00    +0.000 A 
ATOM     11  C   UNL     1      52.359   0.901  17.392  0.00  0.00    +0.000 A 
ATOM     12  N   UNL     1      53.592   0.348  17.531  0.00  0.00    +0.000 NA
ATOM     13  C   UNL     1      54.461   1.080  18.254  0.00  0.00    +0.000 A 
ATOM     14  C   UNL     1      54.111   2.297  18.809  0.00  0.00    +0.000 A 
ATOM     15  N   UNL     1      52.881   2.846  18.658  0.00  0.00    +0.000 NA
ATOM     16  H   UNL     1      50.495   2.642  16.713  0.00  0.00    +0.000 HD
ENDBRANCH   8   9
ENDBRANCH   5   8
ENDBRANCH   1   2
BRANCH   1  19
ATOM     17  O   UNL     1      47.931   6.903  11.791  0.00  0.00    +0.000 OA
ATOM     18  C   UNL     1      47.005   6.847  12.594  0.00  0.00    +0.000 C 
ATOM     19  N   UNL     1      47.149   7.239  13.901  0.00  0.00    +0.000 N 
ATOM     20  H   UNL     1      46.427   7.012  14.577  0.00  0.00    +0.000 HD
BRANCH  18  21
ATOM     21  C   UNL     1      45.673   6.394  12.205  0.00  0.00    +0.000 A 
ATOM     22  C   UNL     1      44.742   7.282  11.676  0.00  0.00    +0.000 A 
ATOM     23  S   UNL     1      43.248   6.549  11.294  0.00  0.00    +0.000 S 
ATOM     24  C   UNL     1      43.807   5.019  11.787  0.00  0.00    +0.000 A 
ATOM     25  N   UNL     1      43.012   3.914  11.703  0.00  0.00    +0.000 NA
ATOM     26  C   UNL     1      43.588   2.821  12.072  0.00  0.00    +0.000 A 
ATOM     27  N   UNL     1      44.879   2.723  12.525  0.00  0.00    +0.000 N 
ATOM     28  C   UNL     1      45.685   3.815  12.703  0.00  0.00    +0.000 A 
ATOM     29  O   UNL     1      46.778   3.712  13.244  0.00  0.00    +0.000 OA
ATOM     30  C   UNL     1      45.107   5.068  12.260  0.00  0.00    +0.000 A 
ATOM     31  H   UNL     1      45.258   1.839  12.833  0.00  0.00    +0.000 HD
ENDBRANCH  18  21
ENDBRANCH   1  19
TORSDOF 5
ENDMDL
MODEL 9
REMARK VINA RESULT:    -6.835      4.066      9.796
REMARK INTER + INTRA:          -9.512
REMARK INTER:                  -8.816
REMARK INTRA:                  -0.696
REMARK UNBOUND:                -0.680
REMARK  Name = 
REMARK  5 active torsions:
REMARK  status: ('A' for Active; 'I' for Inactive)
REMARK    1  A    between atoms: C_2  and  C_19
REMARK    2  A    between atoms: N_3  and  C_4
REMARK    3  A    between atoms: C_4  and  C_5
REMARK    4  A    between atoms: C_8  and  C_9
REMARK    5  A    between atoms: C_9  and  N_10
REMARK                            x       y       z     vdW  Elec       q    Type
REMARK                         _______ _______ _______ _____ _____    ______ ____
ROOT
ATOM      1  C   UNL     1      47.266   3.388  16.837  0.00  0.00    +0.000 C 
ENDROOT
BRANCH   1   2
ATOM      2  C   UNL     1      48.743   3.246  17.111  0.00  0.00    +0.000 A 
ATOM      3  C   UNL     1      49.417   4.214  17.846  0.00  0.00    +0.000 A 
ATOM      4  N   UNL     1      50.723   4.104  18.192  0.00  0.00    +0.000 NA
ATOM      5  C   UNL     1      51.365   2.985  17.763  0.00  0.00    +0.000 A 
ATOM      6  C   UNL     1      50.694   2.028  17.008  0.00  0.00    +0.000 A 
ATOM      7  N   UNL     1      49.384   2.133  16.665  0.00  0.00    +0.000 NA
BRANCH   5   8
ATOM      8  C   UNL     1      52.820   2.789  18.141  0.00  0.00    +0.000 C 
BRANCH   8   9
ATOM      9  N   UNL     1      53.569   4.045  18.043  0.00  0.00    +0.000 N 
ATOM     10  C   UNL     1      54.016   4.550  19.274  0.00  0.00    +0.000 A 
ATOM     11  C   UNL     1      54.766   5.733  19.312  0.00  0.00    +0.000 A 
ATOM     12  N   UNL     1      55.222   6.309  20.455  0.00  0.00    +0.000 NA
ATOM     13  C   UNL     1      54.917   5.641  21.584  0.00  0.00    +0.000 A 
ATOM     14  C   UNL     1      54.199   4.460  21.567  0.00  0.00    +0.000 A 
ATOM     15  N   UNL     1      53.739   3.897  20.423  0.00  0.00    +0.000 NA
ATOM     16  H   UNL     1      53.064   4.768  17.541  0.00  0.00    +0.000 HD
ENDBRANCH   8   9
ENDBRANCH   5   8
ENDBRANCH   1   2
BRANCH   1  19
ATOM     17  O   UNL     1      47.273   3.025  14.055  0.00  0.00    +0.000 OA
ATOM     18  C   UNL     1      46.936   4.117  14.503  0.00  0.00    +0.000 C 
ATOM     19  N   UNL     1      46.955   4.389  15.847  0.00  0.00    +0.000 N 
ATOM     20  H   UNL     1      46.503   5.229  16.196  0.00  0.00    +0.000 HD
BRANCH  18  21
ATOM     21  C   UNL     1      46.527   5.215  13.633  0.00  0.00    +0.000 A 
ATOM     22  C   UNL     1      47.379   6.287  13.385  0.00  0.00    +0.000 A 
ATOM     23  S   UNL     1      46.705   7.462  12.346  0.00  0.00    +0.000 S 
ATOM     24  C   UNL     1      45.272   6.562  12.165  0.00  0.00    +0.000 A 
ATOM     25  N   UNL     1      44.255   7.003  11.369  0.00  0.00    +0.000 NA
ATOM     26  C   UNL     1      43.254   6.195  11.296  0.00  0.00    +0.000 A 
ATOM     27  N   UNL     1      43.163   4.990  11.947  0.00  0.00    +0.000 N 
ATOM     28  C   UNL     1      44.122   4.546  12.818  0.00  0.00    +0.000 A 
ATOM     29  O   UNL     1      43.945   3.540  13.491  0.00  0.00    +0.000 OA
ATOM     30  C   UNL     1      45.295   5.392  12.904  0.00  0.00    +0.000 A 
ATOM     31  H   UNL     1      42.333   4.419  11.875  0.00  0.00    +0.000 HD
ENDBRANCH  18  21
ENDBRANCH   1  19
TORSDOF 5
ENDMDL
