MODEL 1
REMARK VINA RESULT:    -8.510      0.000      0.000
REMARK INTER + INTRA:         -13.214
REMARK INTER:                 -11.992
REMARK INTRA:                  -1.222
REMARK UNBOUND:                -1.222
REMARK  Name = 
REMARK  8 active torsions:
REMARK  status: ('A' for Active; 'I' for Inactive)
REMARK    1  A    between atoms: C_1  and  N_2
REMARK    2  A    between atoms: C_4  and  C_5
REMARK    3  A    between atoms: N_7  and  C_8
REMARK    4  A    between atoms: C_8  and  C_9
REMARK    5  A    between atoms: C_12  and  N_13
REMARK    6  A    between atoms: N_13  and  C_14
REMARK    7  A    between atoms: C_14  and  C_15
REMARK    8  A    between atoms: C_15  and  C_16
REMARK                            x       y       z     vdW  Elec       q    Type
REMARK                         _______ _______ _______ _____ _____    ______ ____
ROOT
ATOM      1  C   UNL     1      47.370   8.424  13.594  0.00  0.00    +0.000 C 
ENDROOT
BRANCH   1   2
ATOM      2  C   UNL     1      46.526   7.618  12.640  0.00  0.00    +0.000 A 
ATOM      3  C   UNL     1      47.113   6.648  11.822  0.00  0.00    +0.000 A 
ATOM      4  C   UNL     1      46.329   5.850  10.981  0.00  0.00    +0.000 A 
ATOM      5  C   UNL     1      44.944   6.011  10.915  0.00  0.00    +0.000 A 
ATOM      6  C   UNL     1      44.365   7.017  11.698  0.00  0.00    +0.000 A 
ATOM      7  C   UNL     1      45.138   7.800  12.558  0.00  0.00    +0.000 A 
BRANCH   5   8
ATOM      8  N   UNL     1      44.102   5.195  10.163  0.00  0.00    +0.000 N 
ATOM      9  H   UNL     1      43.409   5.690   9.607  0.00  0.00    +0.000 HD
BRANCH   8  10
ATOM     10  C   UNL     1      44.570   3.892   9.709  0.00  0.00    +0.000 C 
BRANCH  10  11
ATOM     11  C   UNL     1      44.732   3.874   8.186  0.00  0.00    +0.000 C 
BRANCH  11  12
ATOM     12  C   UNL     1      45.860   2.970   7.755  0.00  0.00    +0.000 A 
ATOM     13  C   UNL     1      46.894   3.436   6.936  0.00  0.00    +0.000 A 
ATOM     14  C   UNL     1      47.902   2.553   6.571  0.00  0.00    +0.000 A 
ATOM     15  N   UNL     1      47.940   1.258   6.950  0.00  0.00    +0.000 NA
ATOM     16  C   UNL     1      46.929   0.825   7.732  0.00  0.00    +0.000 A 
ATOM     17  C   UNL     1      45.880   1.630   8.150  0.00  0.00    +0.000 A 
ENDBRANCH  11  12
ENDBRANCH  10  11
ENDBRANCH   8  10
ENDBRANCH   5   8
ENDBRANCH   1   2
BRANCH   1  20
ATOM     18  C   UNL     1      48.923   7.062  14.914  0.00  0.00    +0.000 C 
ATOM     19  O   UNL     1      49.778   7.108  14.041  0.00  0.00    +0.000 OA
ATOM     20  N   UNL     1      47.708   7.692  14.793  0.00  0.00    +0.000 N 
ATOM     21  H   UNL     1      47.002   7.560  15.499  0.00  0.00    +0.000 HD
BRANCH  18  25
ATOM     22  C   UNL     1      50.788   5.757  19.358  0.00  0.00    +0.000 C 
ATOM     23  N   UNL     1      49.986   5.760  18.157  0.00  0.00    +0.000 N 
ATOM     24  C   UNL     1      50.039   6.694  17.159  0.00  0.00    +0.000 A 
ATOM     25  C   UNL     1      49.128   6.338  16.168  0.00  0.00    +0.000 A 
ATOM     26  C   UNL     1      48.490   5.122  16.611  0.00  0.00    +0.000 A 
ATOM     27  C   UNL     1      47.517   4.220  16.191  0.00  0.00    +0.000 A 
ATOM     28 CL   UNL     1      46.665   4.436  14.744  0.00  0.00    +0.000 Cl
ATOM     29  N   UNL     1      47.163   3.153  16.924  0.00  0.00    +0.000 NA
ATOM     30  C   UNL     1      47.793   2.977  18.091  0.00  0.00    +0.000 A 
ATOM     31  N   UNL     1      48.748   3.755  18.629  0.00  0.00    +0.000 NA
ATOM     32  C   UNL     1      49.053   4.807  17.846  0.00  0.00    +0.000 A 
ENDBRANCH  18  25
ENDBRANCH   1  20
TORSDOF 7
ENDMDL
MODEL 2
REMARK VINA RESULT:    -7.988      2.197      2.842
REMARK INTER + INTRA:         -12.479
REMARK INTER:                 -11.610
REMARK INTRA:                  -0.869
REMARK UNBOUND:                -1.222
REMARK  Name = 
REMARK  8 active torsions:
REMARK  status: ('A' for Active; 'I' for Inactive)
REMARK    1  A    between atoms: C_1  and  N_2
REMARK    2  A    between atoms: C_4  and  C_5
REMARK    3  A    between atoms: N_7  and  C_8
REMARK    4  A    between atoms: C_8  and  C_9
REMARK    5  A    between atoms: C_12  and  N_13
REMARK    6  A    between atoms: N_13  and  C_14
REMARK    7  A    between atoms: C_14  and  C_15
REMARK    8  A    between atoms: C_15  and  C_16
REMARK                            x       y       z     vdW  Elec       q    Type
REMARK                         _______ _______ _______ _____ _____    ______ ____
ROOT
ATOM      1  C   UNL     1      48.253   7.040  13.752  0.00  0.00    +0.000 C 
ENDROOT
BRANCH   1   2
ATOM      2  C   UNL     1      47.224   6.286  12.949  0.00  0.00    +0.000 A 
ATOM      3  C   UNL     1      46.618   5.141  13.473  0.00  0.00    +0.000 A 
ATOM      4  C   UNL     1      45.614   4.473  12.761  0.00  0.00    +0.000 A 
ATOM      5  C   UNL     1      45.203   4.914  11.502  0.00  0.00    +0.000 A 
ATOM      6  C   UNL     1      45.848   6.032  10.959  0.00  0.00    +0.000 A 
ATOM      7  C   UNL     1      46.833   6.718  11.674  0.00  0.00    +0.000 A 
BRANCH   5   8
ATOM      8  N   UNL     1      44.156   4.344  10.783  0.00  0.00    +0.000 N 
ATOM      9  H   UNL     1      43.388   4.976  10.569  0.00  0.00    +0.000 HD
BRANCH   8  10
ATOM     10  C   UNL     1      44.414   3.223   9.890  0.00  0.00    +0.000 C 
BRANCH  10  11
ATOM     11  C   UNL     1      44.787   3.718   8.490  0.00  0.00    +0.000 C 
BRANCH  11  12
ATOM     12  C   UNL     1      45.866   2.869   7.865  0.00  0.00    +0.000 A 
ATOM     13  C   UNL     1      46.021   1.522   8.205  0.00  0.00    +0.000 A 
ATOM     14  C   UNL     1      47.036   0.795   7.598  0.00  0.00    +0.000 A 
ATOM     15  N   UNL     1      47.899   1.315   6.700  0.00  0.00    +0.000 NA
ATOM     16  C   UNL     1      47.740   2.620   6.392  0.00  0.00    +0.000 A 
ATOM     17  C   UNL     1      46.757   3.427   6.944  0.00  0.00    +0.000 A 
ENDBRANCH  11  12
ENDBRANCH  10  11
ENDBRANCH   8  10
ENDBRANCH   5   8
ENDBRANCH   1   2
BRANCH   1  20
ATOM     18  C   UNL     1      49.197   6.619  15.975  0.00  0.00    +0.000 C 
ATOM     19  O   UNL     1      50.339   6.601  15.538  0.00  0.00    +0.000 OA
ATOM     20  N   UNL     1      48.102   6.844  15.176  0.00  0.00    +0.000 N 
ATOM     21  H   UNL     1      47.176   6.768  15.562  0.00  0.00    +0.000 HD
BRANCH  18  25
ATOM     22  C   UNL     1      48.684   4.386  20.412  0.00  0.00    +0.000 C 
ATOM     23  N   UNL     1      48.667   5.390  19.374  0.00  0.00    +0.000 N 
ATOM     24  C   UNL     1      49.101   5.223  18.088  0.00  0.00    +0.000 A 
ATOM     25  C   UNL     1      48.902   6.413  17.393  0.00  0.00    +0.000 A 
ATOM     26  C   UNL     1      48.323   7.346  18.328  0.00  0.00    +0.000 A 
ATOM     27  C   UNL     1      47.881   8.665  18.376  0.00  0.00    +0.000 A 
ATOM     28 CL   UNL     1      47.986   9.691  17.034  0.00  0.00    +0.000 Cl
ATOM     29  N   UNL     1      47.389   9.216  19.497  0.00  0.00    +0.000 NA
ATOM     30  C   UNL     1      47.329   8.440  20.584  0.00  0.00    +0.000 A 
ATOM     31  N   UNL     1      47.713   7.157  20.694  0.00  0.00    +0.000 NA
ATOM     32  C   UNL     1      48.200   6.667  19.539  0.00  0.00    +0.000 A 
ENDBRANCH  18  25
ENDBRANCH   1  20
TORSDOF 7
ENDMDL
MODEL 3
REMARK VINA RESULT:    -7.703      2.088      2.400
REMARK INTER + INTRA:         -12.077
REMARK INTER:                 -11.204
REMARK INTRA:                  -0.873
REMARK UNBOUND:                -1.222
REMARK  Name = 
REMARK  8 active torsions:
REMARK  status: ('A' for Active; 'I' for Inactive)
REMARK    1  A    between atoms: C_1  and  N_2
REMARK    2  A    between atoms: C_4  and  C_5
REMARK    3  A    between atoms: N_7  and  C_8
REMARK    4  A    between atoms: C_8  and  C_9
REMARK    5  A    between atoms: C_12  and  N_13
REMARK    6  A    between atoms: N_13  and  C_14
REMARK    7  A    between atoms: C_14  and  C_15
REMARK    8  A    between atoms: C_15  and  C_16
REMARK                            x       y       z     vdW  Elec       q    Type
REMARK                         _______ _______ _______ _____ _____    ______ ____
ROOT
ATOM      1  C   UNL     1      48.519   6.832  13.733  0.00  0.00    +0.000 C 
ENDROOT
BRANCH   1   2
ATOM      2  C   UNL     1      47.435   6.175  12.917  0.00  0.00    +0.000 A 
ATOM      3  C   UNL     1      46.793   5.027  13.387  0.00  0.00    +0.000 A 
ATOM      4  C   UNL     1      45.741   4.448  12.667  0.00  0.00    +0.000 A 
ATOM      5  C   UNL     1      45.314   4.985  11.451  0.00  0.00    +0.000 A 
ATOM      6  C   UNL     1      45.993   6.108  10.958  0.00  0.00    +0.000 A 
ATOM      7  C   UNL     1      47.027   6.704  11.684  0.00  0.00    +0.000 A 
BRANCH   5   8
ATOM      8  N   UNL     1      44.222   4.508  10.731  0.00  0.00    +0.000 N 
ATOM      9  H   UNL     1      43.489   5.191  10.560  0.00  0.00    +0.000 HD
BRANCH   8  10
ATOM     10  C   UNL     1      44.399   3.413   9.787  0.00  0.00    +0.000 C 
BRANCH  10  11
ATOM     11  C   UNL     1      44.863   3.938   8.426  0.00  0.00    +0.000 C 
BRANCH  11  12
ATOM     12  C   UNL     1      45.875   3.019   7.787  0.00  0.00    +0.000 A 
ATOM     13  C   UNL     1      46.651   3.434   6.700  0.00  0.00    +0.000 A 
ATOM     14  C   UNL     1      47.562   2.540   6.154  0.00  0.00    +0.000 A 
ATOM     15  N   UNL     1      47.738   1.279   6.603  0.00  0.00    +0.000 NA
ATOM     16  C   UNL     1      46.972   0.894   7.645  0.00  0.00    +0.000 A 
ATOM     17  C   UNL     1      46.038   1.714   8.259  0.00  0.00    +0.000 A 
ENDBRANCH  11  12
ENDBRANCH  10  11
ENDBRANCH   8  10
ENDBRANCH   5   8
ENDBRANCH   1   2
BRANCH   1  20
ATOM     18  C   UNL     1      49.025   7.547  16.022  0.00  0.00    +0.000 C 
ATOM     19  O   UNL     1      50.165   7.871  15.718  0.00  0.00    +0.000 OA
ATOM     20  N   UNL     1      48.133   7.039  15.109  0.00  0.00    +0.000 N 
ATOM     21  H   UNL     1      47.233   6.708  15.418  0.00  0.00    +0.000 HD
BRANCH  18  25
ATOM     22  C   UNL     1      47.114   9.582  20.162  0.00  0.00    +0.000 C 
ATOM     23  N   UNL     1      47.666   8.618  19.238  0.00  0.00    +0.000 N 
ATOM     24  C   UNL     1      47.998   8.856  17.933  0.00  0.00    +0.000 A 
ATOM     25  C   UNL     1      48.513   7.684  17.385  0.00  0.00    +0.000 A 
ATOM     26  C   UNL     1      48.476   6.689  18.429  0.00  0.00    +0.000 A 
ATOM     27  C   UNL     1      48.792   5.348  18.629  0.00  0.00    +0.000 A 
ATOM     28 CL   UNL     1      49.405   4.380  17.383  0.00  0.00    +0.000 Cl
ATOM     29  N   UNL     1      48.590   4.731  19.803  0.00  0.00    +0.000 NA
ATOM     30  C   UNL     1      48.071   5.462  20.796  0.00  0.00    +0.000 A 
ATOM     31  N   UNL     1      47.717   6.757  20.758  0.00  0.00    +0.000 NA
ATOM     32  C   UNL     1      47.941   7.314  19.554  0.00  0.00    +0.000 A 
ENDBRANCH  18  25
ENDBRANCH   1  20
TORSDOF 7
ENDMDL
MODEL 4
REMARK VINA RESULT:    -7.662      2.417      3.392
REMARK INTER + INTRA:         -12.019
REMARK INTER:                 -10.857
REMARK INTRA:                  -1.162
REMARK UNBOUND:                -1.222
REMARK  Name = 
REMARK  8 active torsions:
REMARK  status: ('A' for Active; 'I' for Inactive)
REMARK    1  A    between atoms: C_1  and  N_2
REMARK    2  A    between atoms: C_4  and  C_5
REMARK    3  A    between atoms: N_7  and  C_8
REMARK    4  A    between atoms: C_8  and  C_9
REMARK    5  A    between atoms: C_12  and  N_13
REMARK    6  A    between atoms: N_13  and  C_14
REMARK    7  A    between atoms: C_14  and  C_15
REMARK    8  A    between atoms: C_15  and  C_16
REMARK                            x       y       z     vdW  Elec       q    Type
REMARK                         _______ _______ _______ _____ _____    ______ ____
ROOT
ATOM      1  C   UNL     1      47.448   4.027  14.938  0.00  0.00    +0.000 C 
ENDROOT
BRANCH   1   2
ATOM      2  C   UNL     1      46.567   4.336  13.754  0.00  0.00    +0.000 A 
ATOM      3  C   UNL     1      46.379   5.657  13.338  0.00  0.00    +0.000 A 
ATOM      4  C   UNL     1      45.616   5.948  12.201  0.00  0.00    +0.000 A 
ATOM      5  C   UNL     1      45.004   4.935  11.461  0.00  0.00    +0.000 A 
ATOM      6  C   UNL     1      45.154   3.616  11.910  0.00  0.00    +0.000 A 
ATOM      7  C   UNL     1      45.934   3.317  13.029  0.00  0.00    +0.000 A 
BRANCH   5   8
ATOM      8  N   UNL     1      44.305   5.152  10.277  0.00  0.00    +0.000 N 
ATOM      9  H   UNL     1      44.182   6.129  10.023  0.00  0.00    +0.000 HD
BRANCH   8  10
ATOM     10  C   UNL     1      44.341   4.150   9.220  0.00  0.00    +0.000 C 
BRANCH  10  11
ATOM     11  C   UNL     1      45.493   4.424   8.249  0.00  0.00    +0.000 C 
BRANCH  11  12
ATOM     12  C   UNL     1      46.146   3.147   7.782  0.00  0.00    +0.000 A 
ATOM     13  C   UNL     1      47.061   3.142   6.724  0.00  0.00    +0.000 A 
ATOM     14  C   UNL     1      47.624   1.933   6.338  0.00  0.00    +0.000 A 
ATOM     15  N   UNL     1      47.333   0.749   6.918  0.00  0.00    +0.000 NA
ATOM     16  C   UNL     1      46.440   0.773   7.929  0.00  0.00    +0.000 A 
ATOM     17  C   UNL     1      45.825   1.929   8.387  0.00  0.00    +0.000 A 
ENDBRANCH  11  12
ENDBRANCH  10  11
ENDBRANCH   8  10
ENDBRANCH   5   8
ENDBRANCH   1   2
BRANCH   1  20
ATOM     18  C   UNL     1      48.433   5.237  16.829  0.00  0.00    +0.000 C 
ATOM     19  O   UNL     1      49.466   4.585  16.768  0.00  0.00    +0.000 OA
ATOM     20  N   UNL     1      47.386   5.047  15.960  0.00  0.00    +0.000 N 
ATOM     21  H   UNL     1      46.523   5.548  16.097  0.00  0.00    +0.000 HD
BRANCH  18  25
ATOM     22  C   UNL     1      47.469   7.481  21.185  0.00  0.00    +0.000 C 
ATOM     23  N   UNL     1      47.784   7.275  19.790  0.00  0.00    +0.000 N 
ATOM     24  C   UNL     1      47.960   6.065  19.177  0.00  0.00    +0.000 A 
ATOM     25  C   UNL     1      48.231   6.285  17.829  0.00  0.00    +0.000 A 
ATOM     26  C   UNL     1      48.223   7.715  17.634  0.00  0.00    +0.000 A 
ATOM     27  C   UNL     1      48.413   8.649  16.620  0.00  0.00    +0.000 A 
ATOM     28 CL   UNL     1      48.812   8.184  15.042  0.00  0.00    +0.000 Cl
ATOM     29  N   UNL     1      48.335   9.971  16.838  0.00  0.00    +0.000 NA
ATOM     30  C   UNL     1      48.057  10.369  18.085  0.00  0.00    +0.000 A 
ATOM     31  N   UNL     1      47.849   9.594  19.162  0.00  0.00    +0.000 NA
ATOM     32  C   UNL     1      47.945   8.282  18.876  0.00  0.00    +0.000 A 
ENDBRANCH  18  25
ENDBRANCH   1  20
TORSDOF 7
ENDMDL
MODEL 5
REMARK VINA RESULT:    -7.548      2.306      2.672
REMARK INTER + INTRA:         -11.859
REMARK INTER:                 -10.844
REMARK INTRA:                  -1.015
REMARK UNBOUND:                -1.222
REMARK  Name = 
REMARK  8 active torsions:
REMARK  status: ('A' for Active; 'I' for Inactive)
REMARK    1  A    between atoms: C_1  and  N_2
REMARK    2  A    between atoms: C_4  and  C_5
REMARK    3  A    between atoms: N_7  and  C_8
REMARK    4  A    between atoms: C_8  and  C_9
REMARK    5  A    between atoms: C_12  and  N_13
REMARK    6  A    between atoms: N_13  and  C_14
REMARK    7  A    between atoms: C_14  and  C_15
REMARK    8  A    between atoms: C_15  and  C_16
REMARK                            x       y       z     vdW  Elec       q    Type
REMARK                         _______ _______ _______ _____ _____    ______ ____
ROOT
ATOM      1  C   UNL     1      48.633   7.205  15.306  0.00  0.00    +0.000 C 
ENDROOT
BRANCH   1   2
ATOM      2  C   UNL     1      47.833   6.530  14.221  0.00  0.00    +0.000 A 
ATOM      3  C   UNL     1      47.270   5.270  14.438  0.00  0.00    +0.000 A 
ATOM      4  C   UNL     1      46.471   4.664  13.461  0.00  0.00    +0.000 A 
ATOM      5  C   UNL     1      46.230   5.287  12.235  0.00  0.00    +0.000 A 
ATOM      6  C   UNL     1      46.837   6.527  12.001  0.00  0.00    +0.000 A 
ATOM      7  C   UNL     1      47.615   7.148  12.982  0.00  0.00    +0.000 A 
BRANCH   5   8
ATOM      8  N   UNL     1      45.379   4.776  11.258  0.00  0.00    +0.000 N 
ATOM      9  H   UNL     1      44.457   4.503  11.591  0.00  0.00    +0.000 HD
BRANCH   8  10
ATOM     10  C   UNL     1      45.530   5.198   9.872  0.00  0.00    +0.000 C 
BRANCH  10  11
ATOM     11  C   UNL     1      44.773   4.256   8.931  0.00  0.00    +0.000 C 
BRANCH  11  12
ATOM     12  C   UNL     1      45.698   3.267   8.267  0.00  0.00    +0.000 A 
ATOM     13  C   UNL     1      46.621   3.670   7.297  0.00  0.00    +0.000 A 
ATOM     14  C   UNL     1      47.441   2.710   6.720  0.00  0.00    +0.000 A 
ATOM     15  N   UNL     1      47.395   1.397   7.031  0.00  0.00    +0.000 NA
ATOM     16  C   UNL     1      46.491   1.026   7.961  0.00  0.00    +0.000 A 
ATOM     17  C   UNL     1      45.630   1.910   8.594  0.00  0.00    +0.000 A 
ENDBRANCH  11  12
ENDBRANCH  10  11
ENDBRANCH   8  10
ENDBRANCH   5   8
ENDBRANCH   1   2
BRANCH   1  20
ATOM     18  C   UNL     1      49.613   5.871  17.113  0.00  0.00    +0.000 C 
ATOM     19  O   UNL     1      48.666   6.093  17.854  0.00  0.00    +0.000 OA
ATOM     20  N   UNL     1      49.682   6.362  15.832  0.00  0.00    +0.000 N 
ATOM     21  H   UNL     1      50.516   6.223  15.286  0.00  0.00    +0.000 HD
BRANCH  18  25
ATOM     22  C   UNL     1      54.147   4.577  18.758  0.00  0.00    +0.000 C 
ATOM     23  N   UNL     1      52.795   4.489  18.257  0.00  0.00    +0.000 N 
ATOM     24  C   UNL     1      51.955   5.543  18.024  0.00  0.00    +0.000 A 
ATOM     25  C   UNL     1      50.751   5.050  17.528  0.00  0.00    +0.000 A 
ATOM     26  C   UNL     1      50.883   3.615  17.472  0.00  0.00    +0.000 A 
ATOM     27  C   UNL     1      50.139   2.493  17.118  0.00  0.00    +0.000 A 
ATOM     28 CL   UNL     1      48.540   2.617  16.578  0.00  0.00    +0.000 Cl
ATOM     29  N   UNL     1      50.626   1.247  17.224  0.00  0.00    +0.000 NA
ATOM     30  C   UNL     1      51.875   1.116  17.683  0.00  0.00    +0.000 A 
ATOM     31  N   UNL     1      52.713   2.095  18.062  0.00  0.00    +0.000 NA
ATOM     32  C   UNL     1      52.163   3.317  17.936  0.00  0.00    +0.000 A 
ENDBRANCH  18  25
ENDBRANCH   1  20
TORSDOF 7
ENDMDL
MODEL 6
REMARK VINA RESULT:    -7.443      2.468      3.358
REMARK INTER + INTRA:         -11.710
REMARK INTER:                 -10.723
REMARK INTRA:                  -0.987
REMARK UNBOUND:                -1.222
REMARK  Name = 
REMARK  8 active torsions:
REMARK  status: ('A' for Active; 'I' for Inactive)
REMARK    1  A    between atoms: C_1  and  N_2
REMARK    2  A    between atoms: C_4  and  C_5
REMARK    3  A    between atoms: N_7  and  C_8
REMARK    4  A    between atoms: C_8  and  C_9
REMARK    5  A    between atoms: C_12  and  N_13
REMARK    6  A    between atoms: N_13  and  C_14
REMARK    7  A    between atoms: C_14  and  C_15
REMARK    8  A    between atoms: C_15  and  C_16
REMARK                            x       y       z     vdW  Elec       q    Type
REMARK                         _______ _______ _______ _____ _____    ______ ____
ROOT
ATOM      1  C   UNL     1      47.436   4.180  15.122  0.00  0.00    +0.000 C 
ENDROOT
BRANCH   1   2
ATOM      2  C   UNL     1      46.540   4.408  13.931  0.00  0.00    +0.000 A 
ATOM      3  C   UNL     1      46.172   5.704  13.561  0.00  0.00    +0.000 A 
ATOM      4  C   UNL     1      45.394   5.930  12.419  0.00  0.00    +0.000 A 
ATOM      5  C   UNL     1      44.945   4.871  11.629  0.00  0.00    +0.000 A 
ATOM      6  C   UNL     1      45.273   3.570  12.031  0.00  0.00    +0.000 A 
ATOM      7  C   UNL     1      46.069   3.339  13.155  0.00  0.00    +0.000 A 
BRANCH   5   8
ATOM      8  N   UNL     1      44.241   5.034  10.438  0.00  0.00    +0.000 N 
ATOM      9  H   UNL     1      44.090   6.000  10.158  0.00  0.00    +0.000 HD
BRANCH   8  10
ATOM     10  C   UNL     1      44.307   4.005   9.410  0.00  0.00    +0.000 C 
BRANCH  10  11
ATOM     11  C   UNL     1      45.363   4.355   8.357  0.00  0.00    +0.000 C 
BRANCH  11  12
ATOM     12  C   UNL     1      46.075   3.126   7.848  0.00  0.00    +0.000 A 
ATOM     13  C   UNL     1      45.825   1.863   8.393  0.00  0.00    +0.000 A 
ATOM     14  C   UNL     1      46.516   0.771   7.884  0.00  0.00    +0.000 A 
ATOM     15  N   UNL     1      47.431   0.856   6.895  0.00  0.00    +0.000 NA
ATOM     16  C   UNL     1      47.665   2.085   6.390  0.00  0.00    +0.000 A 
ATOM     17  C   UNL     1      47.025   3.234   6.830  0.00  0.00    +0.000 A 
ENDBRANCH  11  12
ENDBRANCH  10  11
ENDBRANCH   8  10
ENDBRANCH   5   8
ENDBRANCH   1   2
BRANCH   1  20
ATOM     18  C   UNL     1      48.644   5.614  16.701  0.00  0.00    +0.000 C 
ATOM     19  O   UNL     1      49.663   4.946  16.600  0.00  0.00    +0.000 OA
ATOM     20  N   UNL     1      47.498   5.325  16.001  0.00  0.00    +0.000 N 
ATOM     21  H   UNL     1      46.657   5.851  16.176  0.00  0.00    +0.000 HD
BRANCH  18  25
ATOM     22  C   UNL     1      48.464  10.372  18.202  0.00  0.00    +0.000 C 
ATOM     23  N   UNL     1      48.497   8.929  18.228  0.00  0.00    +0.000 N 
ATOM     24  C   UNL     1      48.516   8.107  17.134  0.00  0.00    +0.000 A 
ATOM     25  C   UNL     1      48.564   6.786  17.572  0.00  0.00    +0.000 A 
ATOM     26  C   UNL     1      48.566   6.828  19.014  0.00  0.00    +0.000 A 
ATOM     27  C   UNL     1      48.588   5.960  20.101  0.00  0.00    +0.000 A 
ATOM     28 CL   UNL     1      48.591   4.279  19.901  0.00  0.00    +0.000 Cl
ATOM     29  N   UNL     1      48.563   6.398  21.370  0.00  0.00    +0.000 NA
ATOM     30  C   UNL     1      48.522   7.721  21.559  0.00  0.00    +0.000 A 
ATOM     31  N   UNL     1      48.497   8.680  20.618  0.00  0.00    +0.000 NA
ATOM     32  C   UNL     1      48.520   8.175  19.371  0.00  0.00    +0.000 A 
ENDBRANCH  18  25
ENDBRANCH   1  20
TORSDOF 7
ENDMDL
MODEL 7
REMARK VINA RESULT:    -7.312      2.765      4.562
REMARK INTER + INTRA:         -11.526
REMARK INTER:                 -10.424
REMARK INTRA:                  -1.102
REMARK UNBOUND:                -1.222
REMARK  Name = 
REMARK  8 active torsions:
REMARK  status: ('A' for Active; 'I' for Inactive)
REMARK    1  A    between atoms: C_1  and  N_2
REMARK    2  A    between atoms: C_4  and  C_5
REMARK    3  A    between atoms: N_7  and  C_8
REMARK    4  A    between atoms: C_8  and  C_9
REMARK    5  A    between atoms: C_12  and  N_13
REMARK    6  A    between atoms: N_13  and  C_14
REMARK    7  A    between atoms: C_14  and  C_15
REMARK    8  A    between atoms: C_15  and  C_16
REMARK                            x       y       z     vdW  Elec       q    Type
REMARK                         _______ _______ _______ _____ _____    ______ ____
ROOT
ATOM      1  C   UNL     1      47.481   5.820  14.680  0.00  0.00    +0.000 C 
ENDROOT
BRANCH   1   2
ATOM      2  C   UNL     1      46.601   5.395  13.532  0.00  0.00    +0.000 A 
ATOM      3  C   UNL     1      46.324   4.042  13.317  0.00  0.00    +0.000 A 
ATOM      4  C   UNL     1      45.456   3.642  12.294  0.00  0.00    +0.000 A 
ATOM      5  C   UNL     1      44.858   4.576  11.446  0.00  0.00    +0.000 A 
ATOM      6  C   UNL     1      45.177   5.927  11.633  0.00  0.00    +0.000 A 
ATOM      7  C   UNL     1      46.023   6.335  12.667  0.00  0.00    +0.000 A 
BRANCH   5   8
ATOM      8  N   UNL     1      43.924   4.249  10.467  0.00  0.00    +0.000 N 
ATOM      9  H   UNL     1      43.231   4.970  10.277  0.00  0.00    +0.000 HD
BRANCH   8  10
ATOM     10  C   UNL     1      44.281   3.319   9.404  0.00  0.00    +0.000 C 
BRANCH  10  11
ATOM     11  C   UNL     1      45.130   4.014   8.336  0.00  0.00    +0.000 C 
BRANCH  11  12
ATOM     12  C   UNL     1      46.073   3.052   7.657  0.00  0.00    +0.000 A 
ATOM     13  C   UNL     1      46.778   3.414   6.505  0.00  0.00    +0.000 A 
ATOM     14  C   UNL     1      47.628   2.481   5.926  0.00  0.00    +0.000 A 
ATOM     15  N   UNL     1      47.808   1.231   6.402  0.00  0.00    +0.000 NA
ATOM     16  C   UNL     1      47.111   0.898   7.508  0.00  0.00    +0.000 A 
ATOM     17  C   UNL     1      46.241   1.758   8.159  0.00  0.00    +0.000 A 
ENDBRANCH  11  12
ENDBRANCH  10  11
ENDBRANCH   8  10
ENDBRANCH   5   8
ENDBRANCH   1   2
BRANCH   1  20
ATOM     18  C   UNL     1      49.371   7.369  14.866  0.00  0.00    +0.000 C 
ATOM     19  O   UNL     1      50.081   6.515  15.378  0.00  0.00    +0.000 OA
ATOM     20  N   UNL     1      48.079   7.119  14.472  0.00  0.00    +0.000 N 
ATOM     21  H   UNL     1      47.504   7.872  14.131  0.00  0.00    +0.000 HD
BRANCH  18  25
ATOM     22  C   UNL     1      51.069  11.994  15.677  0.00  0.00    +0.000 C 
ATOM     23  N   UNL     1      50.597  10.808  15.003  0.00  0.00    +0.000 N 
ATOM     24  C   UNL     1      50.277   9.619  15.600  0.00  0.00    +0.000 A 
ATOM     25  C   UNL     1      49.846   8.731  14.619  0.00  0.00    +0.000 A 
ATOM     26  C   UNL     1      49.923   9.434  13.362  0.00  0.00    +0.000 A 
ATOM     27  C   UNL     1      49.685   9.218  12.008  0.00  0.00    +0.000 A 
ATOM     28 CL   UNL     1      49.157   7.719  11.423  0.00  0.00    +0.000 Cl
ATOM     29  N   UNL     1      49.900  10.165  11.081  0.00  0.00    +0.000 NA
ATOM     30  C   UNL     1      50.352  11.348  11.510  0.00  0.00    +0.000 A 
ATOM     31  N   UNL     1      50.628  11.707  12.775  0.00  0.00    +0.000 NA
ATOM     32  C   UNL     1      50.394  10.713  13.652  0.00  0.00    +0.000 A 
ENDBRANCH  18  25
ENDBRANCH   1  20
TORSDOF 7
ENDMDL
MODEL 8
REMARK VINA RESULT:    -7.114      2.782      4.584
REMARK INTER + INTRA:         -11.247
REMARK INTER:                 -10.301
REMARK INTRA:                  -0.946
REMARK UNBOUND:                -1.222
REMARK  Name = 
REMARK  8 active torsions:
REMARK  status: ('A' for Active; 'I' for Inactive)
REMARK    1  A    between atoms: C_1  and  N_2
REMARK    2  A    between atoms: C_4  and  C_5
REMARK    3  A    between atoms: N_7  and  C_8
REMARK    4  A    between atoms: C_8  and  C_9
REMARK    5  A    between atoms: C_12  and  N_13
REMARK    6  A    between atoms: N_13  and  C_14
REMARK    7  A    between atoms: C_14  and  C_15
REMARK    8  A    between atoms: C_15  and  C_16
REMARK                            x       y       z     vdW  Elec       q    Type
REMARK                         _______ _______ _______ _____ _____    ______ ____
ROOT
ATOM      1  C   UNL     1      47.404   5.662  14.484  0.00  0.00    +0.000 C 
ENDROOT
BRANCH   1   2
ATOM      2  C   UNL     1      46.388   5.261  13.445  0.00  0.00    +0.000 A 
ATOM      3  C   UNL     1      45.757   6.231  12.661  0.00  0.00    +0.000 A 
ATOM      4  C   UNL     1      44.862   5.863  11.650  0.00  0.00    +0.000 A 
ATOM      5  C   UNL     1      44.554   4.524  11.407  0.00  0.00    +0.000 A 
ATOM      6  C   UNL     1      45.149   3.557  12.228  0.00  0.00    +0.000 A 
ATOM      7  C   UNL     1      46.063   3.915  13.222  0.00  0.00    +0.000 A 
BRANCH   5   8
ATOM      8  N   UNL     1      43.739   4.090  10.365  0.00  0.00    +0.000 N 
ATOM      9  H   UNL     1      43.003   4.739  10.096  0.00  0.00    +0.000 HD
BRANCH   8  10
ATOM     10  C   UNL     1      44.266   3.172   9.364  0.00  0.00    +0.000 C 
BRANCH  10  11
ATOM     11  C   UNL     1      45.128   3.919   8.342  0.00  0.00    +0.000 C 
BRANCH  11  12
ATOM     12  C   UNL     1      46.079   2.991   7.628  0.00  0.00    +0.000 A 
ATOM     13  C   UNL     1      46.327   1.698   8.100  0.00  0.00    +0.000 A 
ATOM     14  C   UNL     1      47.216   0.894   7.400  0.00  0.00    +0.000 A 
ATOM     15  N   UNL     1      47.872   1.289   6.288  0.00  0.00    +0.000 NA
ATOM     16  C   UNL     1      47.626   2.543   5.854  0.00  0.00    +0.000 A 
ATOM     17  C   UNL     1      46.756   3.420   6.483  0.00  0.00    +0.000 A 
ENDBRANCH  11  12
ENDBRANCH  10  11
ENDBRANCH   8  10
ENDBRANCH   5   8
ENDBRANCH   1   2
BRANCH   1  20
ATOM     18  C   UNL     1      49.168   7.341  14.763  0.00  0.00    +0.000 C 
ATOM     19  O   UNL     1      49.869   6.566  15.399  0.00  0.00    +0.000 OA
ATOM     20  N   UNL     1      47.942   6.983  14.256  0.00  0.00    +0.000 N 
ATOM     21  H   UNL     1      47.363   7.676  13.810  0.00  0.00    +0.000 HD
BRANCH  18  25
ATOM     22  C   UNL     1      51.297  11.256  12.511  0.00  0.00    +0.000 C 
ATOM     23  N   UNL     1      50.557  10.458  13.461  0.00  0.00    +0.000 N 
ATOM     24  C   UNL     1      50.311   9.116  13.362  0.00  0.00    +0.000 A 
ATOM     25  C   UNL     1      49.584   8.714  14.479  0.00  0.00    +0.000 A 
ATOM     26  C   UNL     1      49.380   9.893  15.285  0.00  0.00    +0.000 A 
ATOM     27  C   UNL     1      48.767  10.271  16.476  0.00  0.00    +0.000 A 
ATOM     28 CL   UNL     1      47.913   9.165  17.431  0.00  0.00    +0.000 Cl
ATOM     29  N   UNL     1      48.777  11.539  16.917  0.00  0.00    +0.000 NA
ATOM     30  C   UNL     1      49.414  12.443  16.164  0.00  0.00    +0.000 A 
ATOM     31  N   UNL     1      50.049  12.233  14.999  0.00  0.00    +0.000 NA
ATOM     32  C   UNL     1      49.998  10.945  14.612  0.00  0.00    +0.000 A 
ENDBRANCH  18  25
ENDBRANCH   1  20
TORSDOF 7
ENDMDL
MODEL 9
REMARK VINA RESULT:    -6.943      2.353      2.970
REMARK INTER + INTRA:         -11.006
REMARK INTER:                  -9.633
REMARK INTRA:                  -1.373
REMARK UNBOUND:                -1.222
REMARK  Name = 
REMARK  8 active torsions:
REMARK  status: ('A' for Active; 'I' for Inactive)
REMARK    1  A    between atoms: C_1  and  N_2
REMARK    2  A    between atoms: C_4  and  C_5
REMARK    3  A    between atoms: N_7  and  C_8
REMARK    4  A    between atoms: C_8  and  C_9
REMARK    5  A    between atoms: C_12  and  N_13
REMARK    6  A    between atoms: N_13  and  C_14
REMARK    7  A    between atoms: C_14  and  C_15
REMARK    8  A    between atoms: C_15  and  C_16
REMARK                            x       y       z     vdW  Elec       q    Type
REMARK                         _______ _______ _______ _____ _____    ______ ____
ROOT
ATOM      1  C   UNL     1      48.502   7.067  13.967  0.00  0.00    +0.000 C 
ENDROOT
BRANCH   1   2
ATOM      2  C   UNL     1      47.173   6.465  13.585  0.00  0.00    +0.000 A 
ATOM      3  C   UNL     1      46.846   5.166  13.981  0.00  0.00    +0.000 A 
ATOM      4  C   UNL     1      45.589   4.623  13.688  0.00  0.00    +0.000 A 
ATOM      5  C   UNL     1      44.634   5.351  12.975  0.00  0.00    +0.000 A 
ATOM      6  C   UNL     1      44.984   6.634  12.537  0.00  0.00    +0.000 A 
ATOM      7  C   UNL     1      46.227   7.191  12.847  0.00  0.00    +0.000 A 
BRANCH   5   8
ATOM      8  N   UNL     1      43.341   4.900  12.726  0.00  0.00    +0.000 N 
ATOM      9  H   UNL     1      42.618   5.331  13.297  0.00  0.00    +0.000 HD
BRANCH   8  10
ATOM     10  C   UNL     1      42.988   4.402  11.403  0.00  0.00    +0.000 C 
BRANCH  10  11
ATOM     11  C   UNL     1      43.735   3.101  11.095  0.00  0.00    +0.000 C 
BRANCH  11  12
ATOM     12  C   UNL     1      44.631   3.243   9.890  0.00  0.00    +0.000 A 
ATOM     13  C   UNL     1      45.089   2.124   9.187  0.00  0.00    +0.000 A 
ATOM     14  C   UNL     1      45.915   2.321   8.088  0.00  0.00    +0.000 A 
ATOM     15  N   UNL     1      46.318   3.535   7.659  0.00  0.00    +0.000 NA
ATOM     16  C   UNL     1      45.875   4.602   8.357  0.00  0.00    +0.000 A 
ATOM     17  C   UNL     1      45.047   4.508   9.465  0.00  0.00    +0.000 A 
ENDBRANCH  11  12
ENDBRANCH  10  11
ENDBRANCH   8  10
ENDBRANCH   5   8
ENDBRANCH   1   2
BRANCH   1  20
ATOM     18  C   UNL     1      49.438   7.049  16.232  0.00  0.00    +0.000 C 
ATOM     19  O   UNL     1      50.279   6.214  15.928  0.00  0.00    +0.000 OA
ATOM     20  N   UNL     1      48.527   7.544  15.330  0.00  0.00    +0.000 N 
ATOM     21  H   UNL     1      47.801   8.168  15.642  0.00  0.00    +0.000 HD
BRANCH  18  25
ATOM     22  C   UNL     1      50.241   9.954  20.212  0.00  0.00    +0.000 C 
ATOM     23  N   UNL     1      49.722   8.907  19.363  0.00  0.00    +0.000 N 
ATOM     24  C   UNL     1      50.023   8.723  18.042  0.00  0.00    +0.000 A 
ATOM     25  C   UNL     1      49.340   7.600  17.583  0.00  0.00    +0.000 A 
ATOM     26  C   UNL     1      48.582   7.092  18.701  0.00  0.00    +0.000 A 
ATOM     27  C   UNL     1      47.695   6.062  19.002  0.00  0.00    +0.000 A 
ATOM     28 CL   UNL     1      47.189   4.950  17.831  0.00  0.00    +0.000 Cl
ATOM     29  N   UNL     1      47.156   5.914  20.222  0.00  0.00    +0.000 NA
ATOM     30  C   UNL     1      47.509   6.801  21.158  0.00  0.00    +0.000 A 
ATOM     31  N   UNL     1      48.347   7.843  21.022  0.00  0.00    +0.000 NA
ATOM     32  C   UNL     1      48.850   7.936  19.777  0.00  0.00    +0.000 A 
ENDBRANCH  18  25
ENDBRANCH   1  20
TORSDOF 7
ENDMDL
