MODEL 1
REMARK VINA RESULT:    -7.966      0.000      0.000
REMARK INTER + INTRA:         -12.785
REMARK INTER:                 -11.226
REMARK INTRA:                  -1.559
REMARK UNBOUND:                -1.559
REMARK  Name = 
REMARK  9 active torsions:
REMARK  status: ('A' for Active; 'I' for Inactive)
REMARK    1  A    between atoms: C_1  and  C_2
REMARK    2  A    between atoms: C_2  and  N_3
REMARK    3  A    between atoms: C_2  and  C_11
REMARK    4  A    between atoms: N_3  and  C_4
REMARK    5  A    between atoms: C_4  and  C_5
REMARK    6  A    between atoms: C_14  and  C_15
REMARK    7  A    between atoms: C_15  and  N_16
REMARK    8  A    between atoms: N_16  and  C_17
REMARK    9  A    between atoms: C_18  and  C_20
REMARK                            x       y       z     vdW  Elec       q    Type
REMARK                         _______ _______ _______ _____ _____    ______ ____
ROOT
ATOM      1  C   UNL     1      44.950   4.748  11.598  0.00  0.00    +0.000 A 
ATOM      2  C   UNL     1      45.557   5.753  10.833  0.00  0.00    +0.000 A 
ATOM      3  C   UNL     1      46.723   6.397  11.265  0.00  0.00    +0.000 A 
ATOM      4  C   UNL     1      47.337   6.046  12.468  0.00  0.00    +0.000 A 
ATOM      5  C   UNL     1      46.674   5.065  13.235  0.00  0.00    +0.000 A 
ATOM      6  C   UNL     1      45.555   4.379  12.786  0.00  0.00    +0.000 A 
ENDROOT
BRANCH   1   8
ATOM      7  C   UNL     1      43.332   2.867  12.042  0.00  0.00    +0.000 C 
ATOM      8  C   UNL     1      43.672   4.075  11.146  0.00  0.00    +0.000 C 
BRANCH   8   9
ATOM      9  N   UNL     1      43.813   3.710   9.738  0.00  0.00    +0.000 NA
ATOM     10  H   UNL     1      42.886   3.677   9.306  0.00  0.00    +0.000 HD
BRANCH   9  11
ATOM     11  C   UNL     1      44.424   2.386   9.549  0.00  0.00    +0.000 C 
BRANCH  11  12
ATOM     12  C   UNL     1      45.513   2.392   8.490  0.00  0.00    +0.000 A 
ATOM     13  N   UNL     1      45.712   3.537   7.803  0.00  0.00    +0.000 NA
ATOM     14  C   UNL     1      46.648   3.499   6.838  0.00  0.00    +0.000 A 
ATOM     15  C   UNL     1      47.393   2.384   6.545  0.00  0.00    +0.000 A 
ATOM     16  C   UNL     1      47.127   1.273   7.312  0.00  0.00    +0.000 A 
ATOM     17  N   UNL     1      46.202   1.245   8.290  0.00  0.00    +0.000 NA
ENDBRANCH  11  12
ENDBRANCH   9  11
ENDBRANCH   8   9
ENDBRANCH   1   8
BRANCH   4  18
ATOM     18  C   UNL     1      48.702   6.668  12.767  0.00  0.00    +0.000 C 
BRANCH  18  19
ATOM     19  N   UNL     1      48.779   7.594  13.898  0.00  0.00    +0.000 N 
ATOM     20  C   UNL     1      49.376   7.071  15.120  0.00  0.00    +0.000 C 
ATOM     21  C   UNL     1      48.223   8.898  13.937  0.00  0.00    +0.000 C 
ATOM     22  O   UNL     1      48.064   9.480  14.994  0.00  0.00    +0.000 OA
BRANCH  21  23
ATOM     23  C   UNL     1      48.006   9.620  12.672  0.00  0.00    +0.000 A 
ATOM     24  C   UNL     1      48.911   9.901  11.686  0.00  0.00    +0.000 A 
ATOM     25  S   UNL     1      48.588  11.278  10.758  0.00  0.00    +0.000 S 
ATOM     26  C   UNL     1      47.004  11.226  11.314  0.00  0.00    +0.000 A 
ATOM     27  N   UNL     1      46.082  12.105  10.852  0.00  0.00    +0.000 NA
ATOM     28  C   UNL     1      44.882  11.808  11.214  0.00  0.00    +0.000 A 
ATOM     29  N   UNL     1      44.519  10.719  11.954  0.00  0.00    +0.000 N 
ATOM     30  C   UNL     1      45.419   9.773  12.419  0.00  0.00    +0.000 A 
ATOM     31  O   UNL     1      45.066   8.684  12.826  0.00  0.00    +0.000 OA
ATOM     32  C   UNL     1      46.785  10.162  12.173  0.00  0.00    +0.000 A 
ATOM     33  H   UNL     1      43.550  10.468  12.043  0.00  0.00    +0.000 HD
ENDBRANCH  21  23
ENDBRANCH  18  19
ENDBRANCH   4  18
TORSDOF 7
ENDMDL
MODEL 2
REMARK VINA RESULT:    -7.858      3.395      5.490
REMARK INTER + INTRA:         -12.633
REMARK INTER:                 -11.135
REMARK INTRA:                  -1.498
REMARK UNBOUND:                -1.559
REMARK  Name = 
REMARK  9 active torsions:
REMARK  status: ('A' for Active; 'I' for Inactive)
REMARK    1  A    between atoms: C_1  and  C_2
REMARK    2  A    between atoms: C_2  and  N_3
REMARK    3  A    between atoms: C_2  and  C_11
REMARK    4  A    between atoms: N_3  and  C_4
REMARK    5  A    between atoms: C_4  and  C_5
REMARK    6  A    between atoms: C_14  and  C_15
REMARK    7  A    between atoms: C_15  and  N_16
REMARK    8  A    between atoms: N_16  and  C_17
REMARK    9  A    between atoms: C_18  and  C_20
REMARK                            x       y       z     vdW  Elec       q    Type
REMARK                         _______ _______ _______ _____ _____    ______ ____
ROOT
ATOM      1  C   UNL     1      45.913   5.656  12.244  0.00  0.00    +0.000 A 
ATOM      2  C   UNL     1      46.236   5.105  13.492  0.00  0.00    +0.000 A 
ATOM      3  C   UNL     1      47.362   5.529  14.208  0.00  0.00    +0.000 A 
ATOM      4  C   UNL     1      48.196   6.532  13.713  0.00  0.00    +0.000 A 
ATOM      5  C   UNL     1      47.869   7.031  12.435  0.00  0.00    +0.000 A 
ATOM      6  C   UNL     1      46.722   6.662  11.748  0.00  0.00    +0.000 A 
ENDROOT
BRANCH   1   8
ATOM      7  C   UNL     1      44.275   3.770  11.912  0.00  0.00    +0.000 C 
ATOM      8  C   UNL     1      44.714   5.176  11.455  0.00  0.00    +0.000 C 
BRANCH   8   9
ATOM      9  N   UNL     1      45.043   5.228  10.033  0.00  0.00    +0.000 NA
ATOM     10  H   UNL     1      44.718   6.117   9.645  0.00  0.00    +0.000 HD
BRANCH   9  11
ATOM     11  C   UNL     1      44.399   4.158   9.257  0.00  0.00    +0.000 C 
BRANCH  11  12
ATOM     12  C   UNL     1      45.391   3.360   8.428  0.00  0.00    +0.000 A 
ATOM     13  N   UNL     1      45.517   2.043   8.698  0.00  0.00    +0.000 NA
ATOM     14  C   UNL     1      46.437   1.373   7.983  0.00  0.00    +0.000 A 
ATOM     15  C   UNL     1      47.217   1.953   7.013  0.00  0.00    +0.000 A 
ATOM     16  C   UNL     1      47.001   3.295   6.801  0.00  0.00    +0.000 A 
ATOM     17  N   UNL     1      46.098   4.023   7.484  0.00  0.00    +0.000 NA
ENDBRANCH  11  12
ENDBRANCH   9  11
ENDBRANCH   8   9
ENDBRANCH   1   8
BRANCH   4  18
ATOM     18  C   UNL     1      49.290   7.058  14.645  0.00  0.00    +0.000 C 
BRANCH  18  19
ATOM     19  N   UNL     1      48.857   7.831  15.810  0.00  0.00    +0.000 N 
ATOM     20  C   UNL     1      48.063   9.021  15.535  0.00  0.00    +0.000 C 
ATOM     21  C   UNL     1      49.241   7.584  17.153  0.00  0.00    +0.000 C 
ATOM     22  O   UNL     1      49.091   8.432  18.013  0.00  0.00    +0.000 OA
BRANCH  21  23
ATOM     23  C   UNL     1      49.654   6.224  17.540  0.00  0.00    +0.000 A 
ATOM     24  C   UNL     1      50.905   5.771  17.856  0.00  0.00    +0.000 A 
ATOM     25  S   UNL     1      51.192   4.130  17.567  0.00  0.00    +0.000 S 
ATOM     26  C   UNL     1      49.529   3.898  17.498  0.00  0.00    +0.000 A 
ATOM     27  N   UNL     1      49.013   2.655  17.348  0.00  0.00    +0.000 NA
ATOM     28  C   UNL     1      47.737   2.620  17.519  0.00  0.00    +0.000 A 
ATOM     29  N   UNL     1      46.947   3.682  17.850  0.00  0.00    +0.000 N 
ATOM     30  C   UNL     1      47.432   4.966  18.050  0.00  0.00    +0.000 A 
ATOM     31  O   UNL     1      46.782   5.828  18.607  0.00  0.00    +0.000 OA
ATOM     32  C   UNL     1      48.828   5.074  17.706  0.00  0.00    +0.000 A 
ATOM     33  H   UNL     1      45.994   3.537  18.135  0.00  0.00    +0.000 HD
ENDBRANCH  21  23
ENDBRANCH  18  19
ENDBRANCH   4  18
TORSDOF 7
ENDMDL
MODEL 3
REMARK VINA RESULT:    -7.508      2.614      4.593
REMARK INTER + INTRA:         -12.141
REMARK INTER:                 -11.006
REMARK INTRA:                  -1.135
REMARK UNBOUND:                -1.559
REMARK  Name = 
REMARK  9 active torsions:
REMARK  status: ('A' for Active; 'I' for Inactive)
REMARK    1  A    between atoms: C_1  and  C_2
REMARK    2  A    between atoms: C_2  and  N_3
REMARK    3  A    between atoms: C_2  and  C_11
REMARK    4  A    between atoms: N_3  and  C_4
REMARK    5  A    between atoms: C_4  and  C_5
REMARK    6  A    between atoms: C_14  and  C_15
REMARK    7  A    between atoms: C_15  and  N_16
REMARK    8  A    between atoms: N_16  and  C_17
REMARK    9  A    between atoms: C_18  and  C_20
REMARK                            x       y       z     vdW  Elec       q    Type
REMARK                         _______ _______ _______ _____ _____    ______ ____
ROOT
ATOM      1  C   UNL     1      44.315   5.182  11.612  0.00  0.00    +0.000 A 
ATOM      2  C   UNL     1      45.330   4.874  12.528  0.00  0.00    +0.000 A 
ATOM      3  C   UNL     1      46.156   5.869  13.065  0.00  0.00    +0.000 A 
ATOM      4  C   UNL     1      45.988   7.210  12.720  0.00  0.00    +0.000 A 
ATOM      5  C   UNL     1      44.990   7.479  11.759  0.00  0.00    +0.000 A 
ATOM      6  C   UNL     1      44.127   6.509  11.271  0.00  0.00    +0.000 A 
ENDROOT
BRANCH   1   8
ATOM      7  C   UNL     1      43.419   2.844  11.898  0.00  0.00    +0.000 C 
ATOM      8  C   UNL     1      43.444   4.102  11.007  0.00  0.00    +0.000 C 
BRANCH   8   9
ATOM      9  N   UNL     1      43.921   3.824   9.654  0.00  0.00    +0.000 NA
ATOM     10  H   UNL     1      43.140   3.911   8.999  0.00  0.00    +0.000 HD
BRANCH   9  11
ATOM     11  C   UNL     1      44.459   2.464   9.506  0.00  0.00    +0.000 C 
BRANCH  11  12
ATOM     12  C   UNL     1      45.564   2.384   8.466  0.00  0.00    +0.000 A 
ATOM     13  N   UNL     1      45.849   3.504   7.768  0.00  0.00    +0.000 NA
ATOM     14  C   UNL     1      46.796   3.392   6.820  0.00  0.00    +0.000 A 
ATOM     15  C   UNL     1      47.470   2.225   6.554  0.00  0.00    +0.000 A 
ATOM     16  C   UNL     1      47.120   1.146   7.330  0.00  0.00    +0.000 A 
ATOM     17  N   UNL     1      46.179   1.192   8.292  0.00  0.00    +0.000 NA
ENDBRANCH  11  12
ENDBRANCH   9  11
ENDBRANCH   8   9
ENDBRANCH   1   8
BRANCH   4  18
ATOM     18  C   UNL     1      46.810   8.243  13.494  0.00  0.00    +0.000 C 
BRANCH  18  19
ATOM     19  N   UNL     1      48.264   8.186  13.342  0.00  0.00    +0.000 N 
ATOM     20  C   UNL     1      48.785   8.468  12.010  0.00  0.00    +0.000 C 
ATOM     21  C   UNL     1      49.182   7.771  14.340  0.00  0.00    +0.000 C 
ATOM     22  O   UNL     1      50.324   7.463  14.051  0.00  0.00    +0.000 OA
BRANCH  21  23
ATOM     23  C   UNL     1      48.799   7.889  15.757  0.00  0.00    +0.000 A 
ATOM     24  C   UNL     1      48.345   8.990  16.428  0.00  0.00    +0.000 A 
ATOM     25  S   UNL     1      48.659   9.025  18.089  0.00  0.00    +0.000 S 
ATOM     26  C   UNL     1      48.947   7.371  18.024  0.00  0.00    +0.000 A 
ATOM     27  N   UNL     1      49.209   6.672  19.154  0.00  0.00    +0.000 NA
ATOM     28  C   UNL     1      49.202   5.398  18.966  0.00  0.00    +0.000 A 
ATOM     29  N   UNL     1      48.932   4.767  17.787  0.00  0.00    +0.000 N 
ATOM     30  C   UNL     1      48.624   5.435  16.612  0.00  0.00    +0.000 A 
ATOM     31  O   UNL     1      48.120   4.876  15.658  0.00  0.00    +0.000 OA
ATOM     32  C   UNL     1      48.784   6.862  16.746  0.00  0.00    +0.000 A 
ATOM     33  H   UNL     1      48.776   3.774  17.767  0.00  0.00    +0.000 HD
ENDBRANCH  21  23
ENDBRANCH  18  19
ENDBRANCH   4  18
TORSDOF 7
ENDMDL
MODEL 4
REMARK VINA RESULT:    -7.310      3.190      5.613
REMARK INTER + INTRA:         -11.861
REMARK INTER:                 -10.690
REMARK INTRA:                  -1.171
REMARK UNBOUND:                -1.559
REMARK  Name = 
REMARK  9 active torsions:
REMARK  status: ('A' for Active; 'I' for Inactive)
REMARK    1  A    between atoms: C_1  and  C_2
REMARK    2  A    between atoms: C_2  and  N_3
REMARK    3  A    between atoms: C_2  and  C_11
REMARK    4  A    between atoms: N_3  and  C_4
REMARK    5  A    between atoms: C_4  and  C_5
REMARK    6  A    between atoms: C_14  and  C_15
REMARK    7  A    between atoms: C_15  and  N_16
REMARK    8  A    between atoms: N_16  and  C_17
REMARK    9  A    between atoms: C_18  and  C_20
REMARK                            x       y       z     vdW  Elec       q    Type
REMARK                         _______ _______ _______ _____ _____    ______ ____
ROOT
ATOM      1  C   UNL     1      45.573   4.862  11.974  0.00  0.00    +0.000 A 
ATOM      2  C   UNL     1      46.214   4.395  13.129  0.00  0.00    +0.000 A 
ATOM      3  C   UNL     1      47.325   5.057  13.667  0.00  0.00    +0.000 A 
ATOM      4  C   UNL     1      47.824   6.221  13.081  0.00  0.00    +0.000 A 
ATOM      5  C   UNL     1      47.185   6.637  11.894  0.00  0.00    +0.000 A 
ATOM      6  C   UNL     1      46.047   6.023  11.391  0.00  0.00    +0.000 A 
ENDROOT
BRANCH   1   8
ATOM      7  C   UNL     1      43.226   4.037  12.379  0.00  0.00    +0.000 C 
ATOM      8  C   UNL     1      44.393   4.128  11.375  0.00  0.00    +0.000 C 
BRANCH   8   9
ATOM      9  N   UNL     1      44.846   2.816  10.918  0.00  0.00    +0.000 NA
ATOM     10  H   UNL     1      45.868   2.810  10.878  0.00  0.00    +0.000 HD
BRANCH   9  11
ATOM     11  C   UNL     1      44.359   2.479   9.572  0.00  0.00    +0.000 C 
BRANCH  11  12
ATOM     12  C   UNL     1      45.474   2.441   8.541  0.00  0.00    +0.000 A 
ATOM     13  N   UNL     1      45.743   3.579   7.867  0.00  0.00    +0.000 NA
ATOM     14  C   UNL     1      46.701   3.503   6.926  0.00  0.00    +0.000 A 
ATOM     15  C   UNL     1      47.401   2.356   6.646  0.00  0.00    +0.000 A 
ATOM     16  C   UNL     1      47.066   1.255   7.398  0.00  0.00    +0.000 A 
ATOM     17  N   UNL     1      46.115   1.265   8.352  0.00  0.00    +0.000 NA
ENDBRANCH  11  12
ENDBRANCH   9  11
ENDBRANCH   8   9
ENDBRANCH   1   8
BRANCH   4  18
ATOM     18  C   UNL     1      48.917   6.976  13.840  0.00  0.00    +0.000 C 
BRANCH  18  19
ATOM     19  N   UNL     1      48.497   7.780  14.989  0.00  0.00    +0.000 N 
ATOM     20  C   UNL     1      47.727   8.980  14.688  0.00  0.00    +0.000 C 
ATOM     21  C   UNL     1      48.872   7.551  16.337  0.00  0.00    +0.000 C 
ATOM     22  O   UNL     1      48.737   8.419  17.181  0.00  0.00    +0.000 OA
BRANCH  21  23
ATOM     23  C   UNL     1      49.256   6.192  16.752  0.00  0.00    +0.000 A 
ATOM     24  C   UNL     1      48.466   5.082  16.874  0.00  0.00    +0.000 A 
ATOM     25  S   UNL     1      48.987   3.925  17.991  0.00  0.00    +0.000 S 
ATOM     26  C   UNL     1      50.508   4.636  17.952  0.00  0.00    +0.000 A 
ATOM     27  N   UNL     1      51.540   4.096  18.643  0.00  0.00    +0.000 NA
ATOM     28  C   UNL     1      52.674   4.631  18.350  0.00  0.00    +0.000 A 
ATOM     29  N   UNL     1      52.876   5.615  17.425  0.00  0.00    +0.000 N 
ATOM     30  C   UNL     1      51.859   6.175  16.667  0.00  0.00    +0.000 A 
ATOM     31  O   UNL     1      52.079   6.834  15.670  0.00  0.00    +0.000 OA
ATOM     32  C   UNL     1      50.559   5.716  17.087  0.00  0.00    +0.000 A 
ATOM     33  H   UNL     1      53.808   5.852  17.133  0.00  0.00    +0.000 HD
ENDBRANCH  21  23
ENDBRANCH  18  19
ENDBRANCH   4  18
TORSDOF 7
ENDMDL
MODEL 5
REMARK VINA RESULT:    -7.041      2.272      3.685
REMARK INTER + INTRA:         -11.482
REMARK INTER:                 -10.196
REMARK INTRA:                  -1.286
REMARK UNBOUND:                -1.559
REMARK  Name = 
REMARK  9 active torsions:
REMARK  status: ('A' for Active; 'I' for Inactive)
REMARK    1  A    between atoms: C_1  and  C_2
REMARK    2  A    between atoms: C_2  and  N_3
REMARK    3  A    between atoms: C_2  and  C_11
REMARK    4  A    between atoms: N_3  and  C_4
REMARK    5  A    between atoms: C_4  and  C_5
REMARK    6  A    between atoms: C_14  and  C_15
REMARK    7  A    between atoms: C_15  and  N_16
REMARK    8  A    between atoms: N_16  and  C_17
REMARK    9  A    between atoms: C_18  and  C_20
REMARK                            x       y       z     vdW  Elec       q    Type
REMARK                         _______ _______ _______ _____ _____    ______ ____
ROOT
ATOM      1  C   UNL     1      44.404   5.134  11.324  0.00  0.00    +0.000 A 
ATOM      2  C   UNL     1      44.133   5.647  12.601  0.00  0.00    +0.000 A 
ATOM      3  C   UNL     1      44.940   6.637  13.176  0.00  0.00    +0.000 A 
ATOM      4  C   UNL     1      46.034   7.164  12.490  0.00  0.00    +0.000 A 
ATOM      5  C   UNL     1      46.305   6.593  11.229  0.00  0.00    +0.000 A 
ATOM      6  C   UNL     1      45.477   5.658  10.627  0.00  0.00    +0.000 A 
ENDROOT
BRANCH   1   8
ATOM      7  C   UNL     1      43.508   2.798  11.626  0.00  0.00    +0.000 C 
ATOM      8  C   UNL     1      43.551   4.042  10.716  0.00  0.00    +0.000 C 
BRANCH   8   9
ATOM      9  N   UNL     1      44.064   3.743   9.380  0.00  0.00    +0.000 NA
ATOM     10  H   UNL     1      43.316   3.881   8.696  0.00  0.00    +0.000 HD
BRANCH   9  11
ATOM     11  C   UNL     1      44.524   2.353   9.242  0.00  0.00    +0.000 C 
BRANCH  11  12
ATOM     12  C   UNL     1      45.735   2.228   8.333  0.00  0.00    +0.000 A 
ATOM     13  N   UNL     1      46.154   3.339   7.691  0.00  0.00    +0.000 NA
ATOM     14  C   UNL     1      47.197   3.188   6.856  0.00  0.00    +0.000 A 
ATOM     15  C   UNL     1      47.839   1.992   6.649  0.00  0.00    +0.000 A 
ATOM     16  C   UNL     1      47.348   0.923   7.363  0.00  0.00    +0.000 A 
ATOM     17  N   UNL     1      46.307   1.008   8.211  0.00  0.00    +0.000 NA
ENDBRANCH  11  12
ENDBRANCH   9  11
ENDBRANCH   8   9
ENDBRANCH   1   8
BRANCH   4  18
ATOM     18  C   UNL     1      46.742   8.368  13.117  0.00  0.00    +0.000 C 
BRANCH  18  19
ATOM     19  N   UNL     1      46.817   9.589  12.313  0.00  0.00    +0.000 N 
ATOM     20  C   UNL     1      45.552  10.111  11.814  0.00  0.00    +0.000 C 
ATOM     21  C   UNL     1      48.011  10.226  11.892  0.00  0.00    +0.000 C 
ATOM     22  O   UNL     1      48.000  11.045  10.990  0.00  0.00    +0.000 OA
BRANCH  21  23
ATOM     23  C   UNL     1      49.243  10.028  12.675  0.00  0.00    +0.000 A 
ATOM     24  C   UNL     1      49.567  10.544  13.898  0.00  0.00    +0.000 A 
ATOM     25  S   UNL     1      51.218  10.734  14.207  0.00  0.00    +0.000 S 
ATOM     26  C   UNL     1      51.530   9.675  12.940  0.00  0.00    +0.000 A 
ATOM     27  N   UNL     1      52.798   9.289  12.660  0.00  0.00    +0.000 NA
ATOM     28  C   UNL     1      52.852   8.327  11.806  0.00  0.00    +0.000 A 
ATOM     29  N   UNL     1      51.778   7.704  11.238  0.00  0.00    +0.000 N 
ATOM     30  C   UNL     1      50.461   8.038  11.519  0.00  0.00    +0.000 A 
ATOM     31  O   UNL     1      49.531   7.310  11.233  0.00  0.00    +0.000 OA
ATOM     32  C   UNL     1      50.368   9.216  12.343  0.00  0.00    +0.000 A 
ATOM     33  H   UNL     1      51.902   6.853  10.719  0.00  0.00    +0.000 HD
ENDBRANCH  21  23
ENDBRANCH  18  19
ENDBRANCH   4  18
TORSDOF 7
ENDMDL
MODEL 6
REMARK VINA RESULT:    -6.832      3.567      6.182
REMARK INTER + INTRA:         -11.188
REMARK INTER:                  -9.999
REMARK INTRA:                  -1.188
REMARK UNBOUND:                -1.559
REMARK  Name = 
REMARK  9 active torsions:
REMARK  status: ('A' for Active; 'I' for Inactive)
REMARK    1  A    between atoms: C_1  and  C_2
REMARK    2  A    between atoms: C_2  and  N_3
REMARK    3  A    between atoms: C_2  and  C_11
REMARK    4  A    between atoms: N_3  and  C_4
REMARK    5  A    between atoms: C_4  and  C_5
REMARK    6  A    between atoms: C_14  and  C_15
REMARK    7  A    between atoms: C_15  and  N_16
REMARK    8  A    between atoms: N_16  and  C_17
REMARK    9  A    between atoms: C_18  and  C_20
REMARK                            x       y       z     vdW  Elec       q    Type
REMARK                         _______ _______ _______ _____ _____    ______ ____
ROOT
ATOM      1  C   UNL     1      46.336   6.952  12.357  0.00  0.00    +0.000 A 
ATOM      2  C   UNL     1      47.246   6.010  12.857  0.00  0.00    +0.000 A 
ATOM      3  C   UNL     1      48.191   6.353  13.831  0.00  0.00    +0.000 A 
ATOM      4  C   UNL     1      48.251   7.644  14.355  0.00  0.00    +0.000 A 
ATOM      5  C   UNL     1      47.354   8.579  13.797  0.00  0.00    +0.000 A 
ATOM      6  C   UNL     1      46.374   8.232  12.878  0.00  0.00    +0.000 A 
ENDROOT
BRANCH   1   8
ATOM      7  C   UNL     1      43.952   7.201  11.578  0.00  0.00    +0.000 C 
ATOM      8  C   UNL     1      45.335   6.589  11.281  0.00  0.00    +0.000 C 
BRANCH   8   9
ATOM      9  N   UNL     1      45.292   5.133  11.160  0.00  0.00    +0.000 NA
ATOM     10  H   UNL     1      46.237   4.783  10.988  0.00  0.00    +0.000 HD
BRANCH   9  11
ATOM     11  C   UNL     1      44.452   4.677  10.042  0.00  0.00    +0.000 C 
BRANCH  11  12
ATOM     12  C   UNL     1      45.209   3.789   9.069  0.00  0.00    +0.000 A 
ATOM     13  N   UNL     1      45.174   2.456   9.281  0.00  0.00    +0.000 NA
ATOM     14  C   UNL     1      45.893   1.699   8.434  0.00  0.00    +0.000 A 
ATOM     15  C   UNL     1      46.624   2.210   7.390  0.00  0.00    +0.000 A 
ATOM     16  C   UNL     1      46.581   3.577   7.248  0.00  0.00    +0.000 A 
ATOM     17  N   UNL     1      45.884   4.391   8.063  0.00  0.00    +0.000 NA
ENDBRANCH  11  12
ENDBRANCH   9  11
ENDBRANCH   8   9
ENDBRANCH   1   8
BRANCH   4  18
ATOM     18  C   UNL     1      49.187   7.878  15.543  0.00  0.00    +0.000 C 
BRANCH  18  19
ATOM     19  N   UNL     1      48.575   7.937  16.871  0.00  0.00    +0.000 N 
ATOM     20  C   UNL     1      48.057   9.235  17.285  0.00  0.00    +0.000 C 
ATOM     21  C   UNL     1      48.552   6.881  17.817  0.00  0.00    +0.000 C 
ATOM     22  O   UNL     1      48.301   7.094  18.989  0.00  0.00    +0.000 OA
BRANCH  21  23
ATOM     23  C   UNL     1      48.653   5.491  17.340  0.00  0.00    +0.000 A 
ATOM     24  C   UNL     1      47.686   4.717  16.760  0.00  0.00    +0.000 A 
ATOM     25  S   UNL     1      47.854   3.047  16.968  0.00  0.00    +0.000 S 
ATOM     26  C   UNL     1      49.460   3.306  17.387  0.00  0.00    +0.000 A 
ATOM     27  N   UNL     1      50.286   2.261  17.632  0.00  0.00    +0.000 NA
ATOM     28  C   UNL     1      51.521   2.612  17.736  0.00  0.00    +0.000 A 
ATOM     29  N   UNL     1      52.004   3.881  17.589  0.00  0.00    +0.000 N 
ATOM     30  C   UNL     1      51.205   4.977  17.303  0.00  0.00    +0.000 A 
ATOM     31  O   UNL     1      51.664   6.029  16.903  0.00  0.00    +0.000 OA
ATOM     32  C   UNL     1      49.803   4.647  17.343  0.00  0.00    +0.000 A 
ATOM     33  H   UNL     1      52.993   4.040  17.512  0.00  0.00    +0.000 HD
ENDBRANCH  21  23
ENDBRANCH  18  19
ENDBRANCH   4  18
TORSDOF 7
ENDMDL
MODEL 7
REMARK VINA RESULT:    -6.743      2.126      3.482
REMARK INTER + INTRA:         -11.062
REMARK INTER:                  -9.883
REMARK INTRA:                  -1.180
REMARK UNBOUND:                -1.559
REMARK  Name = 
REMARK  9 active torsions:
REMARK  status: ('A' for Active; 'I' for Inactive)
REMARK    1  A    between atoms: C_1  and  C_2
REMARK    2  A    between atoms: C_2  and  N_3
REMARK    3  A    between atoms: C_2  and  C_11
REMARK    4  A    between atoms: N_3  and  C_4
REMARK    5  A    between atoms: C_4  and  C_5
REMARK    6  A    between atoms: C_14  and  C_15
REMARK    7  A    between atoms: C_15  and  N_16
REMARK    8  A    between atoms: N_16  and  C_17
REMARK    9  A    between atoms: C_18  and  C_20
REMARK                            x       y       z     vdW  Elec       q    Type
REMARK                         _______ _______ _______ _____ _____    ______ ____
ROOT
ATOM      1  C   UNL     1      44.468   5.113  11.292  0.00  0.00    +0.000 A 
ATOM      2  C   UNL     1      44.228   5.657  12.561  0.00  0.00    +0.000 A 
ATOM      3  C   UNL     1      45.078   6.623  13.114  0.00  0.00    +0.000 A 
ATOM      4  C   UNL     1      46.187   7.095  12.411  0.00  0.00    +0.000 A 
ATOM      5  C   UNL     1      46.426   6.493  11.158  0.00  0.00    +0.000 A 
ATOM      6  C   UNL     1      45.555   5.582  10.577  0.00  0.00    +0.000 A 
ENDROOT
BRANCH   1   8
ATOM      7  C   UNL     1      43.525   2.798  11.613  0.00  0.00    +0.000 C 
ATOM      8  C   UNL     1      43.568   4.046  10.708  0.00  0.00    +0.000 C 
BRANCH   8   9
ATOM      9  N   UNL     1      44.025   3.743   9.354  0.00  0.00    +0.000 NA
ATOM     10  H   UNL     1      43.245   3.860   8.702  0.00  0.00    +0.000 HD
BRANCH   9  11
ATOM     11  C   UNL     1      44.505   2.361   9.207  0.00  0.00    +0.000 C 
BRANCH  11  12
ATOM     12  C   UNL     1      45.693   2.252   8.267  0.00  0.00    +0.000 A 
ATOM     13  N   UNL     1      46.034   3.350   7.559  0.00  0.00    +0.000 NA
ATOM     14  C   UNL     1      47.057   3.211   6.698  0.00  0.00    +0.000 A 
ATOM     15  C   UNL     1      47.753   2.040   6.528  0.00  0.00    +0.000 A 
ATOM     16  C   UNL     1      47.341   0.984   7.307  0.00  0.00    +0.000 A 
ATOM     17  N   UNL     1      46.322   1.058   8.184  0.00  0.00    +0.000 NA
ENDBRANCH  11  12
ENDBRANCH   9  11
ENDBRANCH   8   9
ENDBRANCH   1   8
BRANCH   4  18
ATOM     18  C   UNL     1      46.948   8.279  13.012  0.00  0.00    +0.000 C 
BRANCH  18  19
ATOM     19  N   UNL     1      46.903   9.543  12.275  0.00  0.00    +0.000 N 
ATOM     20  C   UNL     1      45.577  10.067  11.975  0.00  0.00    +0.000 C 
ATOM     21  C   UNL     1      48.024  10.224  11.737  0.00  0.00    +0.000 C 
ATOM     22  O   UNL     1      47.885  11.089  10.892  0.00  0.00    +0.000 OA
BRANCH  21  23
ATOM     23  C   UNL     1      49.350  10.007  12.340  0.00  0.00    +0.000 A 
ATOM     24  C   UNL     1      50.446   9.399  11.794  0.00  0.00    +0.000 A 
ATOM     25  S   UNL     1      51.518   8.686  12.889  0.00  0.00    +0.000 S 
ATOM     26  C   UNL     1      50.814   9.603  14.108  0.00  0.00    +0.000 A 
ATOM     27  N   UNL     1      51.302   9.564  15.370  0.00  0.00    +0.000 NA
ATOM     28  C   UNL     1      50.792  10.467  16.133  0.00  0.00    +0.000 A 
ATOM     29  N   UNL     1      49.880  11.409  15.752  0.00  0.00    +0.000 N 
ATOM     30  C   UNL     1      49.376  11.513  14.465  0.00  0.00    +0.000 A 
ATOM     31  O   UNL     1      48.793  12.504  14.072  0.00  0.00    +0.000 OA
ATOM     32  C   UNL     1      49.801  10.417  13.630  0.00  0.00    +0.000 A 
ATOM     33  H   UNL     1      49.666  12.181  16.359  0.00  0.00    +0.000 HD
ENDBRANCH  21  23
ENDBRANCH  18  19
ENDBRANCH   4  18
TORSDOF 7
ENDMDL
MODEL 8
REMARK VINA RESULT:    -6.450      3.754      6.718
REMARK INTER + INTRA:         -10.650
REMARK INTER:                  -8.895
REMARK INTRA:                  -1.754
REMARK UNBOUND:                -1.559
REMARK  Name = 
REMARK  9 active torsions:
REMARK  status: ('A' for Active; 'I' for Inactive)
REMARK    1  A    between atoms: C_1  and  C_2
REMARK    2  A    between atoms: C_2  and  N_3
REMARK    3  A    between atoms: C_2  and  C_11
REMARK    4  A    between atoms: N_3  and  C_4
REMARK    5  A    between atoms: C_4  and  C_5
REMARK    6  A    between atoms: C_14  and  C_15
REMARK    7  A    between atoms: C_15  and  N_16
REMARK    8  A    between atoms: N_16  and  C_17
REMARK    9  A    between atoms: C_18  and  C_20
REMARK                            x       y       z     vdW  Elec       q    Type
REMARK                         _______ _______ _______ _____ _____    ______ ____
ROOT
ATOM      1  C   UNL     1      47.774   8.037  13.479  0.00  0.00    +0.000 A 
ATOM      2  C   UNL     1      48.092   6.839  14.134  0.00  0.00    +0.000 A 
ATOM      3  C   UNL     1      48.953   6.817  15.238  0.00  0.00    +0.000 A 
ATOM      4  C   UNL     1      49.513   7.992  15.740  0.00  0.00    +0.000 A 
ATOM      5  C   UNL     1      49.209   9.172  15.029  0.00  0.00    +0.000 A 
ATOM      6  C   UNL     1      48.309   9.212  13.975  0.00  0.00    +0.000 A 
ENDROOT
BRANCH   1   8
ATOM      7  C   UNL     1      45.538   8.772  12.576  0.00  0.00    +0.000 C 
ATOM      8  C   UNL     1      46.869   8.057  12.266  0.00  0.00    +0.000 C 
BRANCH   8   9
ATOM      9  N   UNL     1      46.675   6.682  11.809  0.00  0.00    +0.000 NA
ATOM     10  H   UNL     1      47.439   6.427  11.179  0.00  0.00    +0.000 HD
BRANCH   9  11
ATOM     11  C   UNL     1      45.421   6.499  11.063  0.00  0.00    +0.000 C 
BRANCH  11  12
ATOM     12  C   UNL     1      44.716   5.201  11.418  0.00  0.00    +0.000 A 
ATOM     13  N   UNL     1      44.657   4.240  10.472  0.00  0.00    +0.000 NA
ATOM     14  C   UNL     1      43.984   3.122  10.797  0.00  0.00    +0.000 A 
ATOM     15  C   UNL     1      43.389   2.922  12.018  0.00  0.00    +0.000 A 
ATOM     16  C   UNL     1      43.520   3.952  12.920  0.00  0.00    +0.000 A 
ATOM     17  N   UNL     1      44.177   5.096  12.655  0.00  0.00    +0.000 NA
ENDBRANCH  11  12
ENDBRANCH   9  11
ENDBRANCH   8   9
ENDBRANCH   1   8
BRANCH   4  18
ATOM     18  C   UNL     1      50.288   7.894  17.056  0.00  0.00    +0.000 C 
BRANCH  18  19
ATOM     19  N   UNL     1      49.508   7.944  18.293  0.00  0.00    +0.000 N 
ATOM     20  C   UNL     1      48.892   9.225  18.616  0.00  0.00    +0.000 C 
ATOM     21  C   UNL     1      49.403   6.899  19.245  0.00  0.00    +0.000 C 
ATOM     22  O   UNL     1      48.995   7.115  20.372  0.00  0.00    +0.000 OA
BRANCH  21  23
ATOM     23  C   UNL     1      49.617   5.509  18.807  0.00  0.00    +0.000 A 
ATOM     24  C   UNL     1      50.671   4.682  19.080  0.00  0.00    +0.000 A 
ATOM     25  S   UNL     1      50.987   3.483  17.930  0.00  0.00    +0.000 S 
ATOM     26  C   UNL     1      49.440   3.723  17.321  0.00  0.00    +0.000 A 
ATOM     27  N   UNL     1      48.965   2.945  16.319  0.00  0.00    +0.000 NA
ATOM     28  C   UNL     1      47.706   3.115  16.107  0.00  0.00    +0.000 A 
ATOM     29  N   UNL     1      46.885   3.950  16.809  0.00  0.00    +0.000 N 
ATOM     30  C   UNL     1      47.315   4.739  17.865  0.00  0.00    +0.000 A 
ATOM     31  O   UNL     1      46.542   5.254  18.648  0.00  0.00    +0.000 OA
ATOM     32  C   UNL     1      48.747   4.696  18.021  0.00  0.00    +0.000 A 
ATOM     33  H   UNL     1      45.888   3.893  16.695  0.00  0.00    +0.000 HD
ENDBRANCH  21  23
ENDBRANCH  18  19
ENDBRANCH   4  18
TORSDOF 7
ENDMDL
MODEL 9
REMARK VINA RESULT:    -6.070      3.706      7.475
REMARK INTER + INTRA:         -10.113
REMARK INTER:                  -8.321
REMARK INTRA:                  -1.791
REMARK UNBOUND:                -1.559
REMARK  Name = 
REMARK  9 active torsions:
REMARK  status: ('A' for Active; 'I' for Inactive)
REMARK    1  A    between atoms: C_1  and  C_2
REMARK    2  A    between atoms: C_2  and  N_3
REMARK    3  A    between atoms: C_2  and  C_11
REMARK    4  A    between atoms: N_3  and  C_4
REMARK    5  A    between atoms: C_4  and  C_5
REMARK    6  A    between atoms: C_14  and  C_15
REMARK    7  A    between atoms: C_15  and  N_16
REMARK    8  A    between atoms: N_16  and  C_17
REMARK    9  A    between atoms: C_18  and  C_20
REMARK                            x       y       z     vdW  Elec       q    Type
REMARK                         _______ _______ _______ _____ _____    ______ ____
ROOT
ATOM      1  C   UNL     1      49.205   7.764  18.249  0.00  0.00    +0.000 A 
ATOM      2  C   UNL     1      48.337   8.843  18.032  0.00  0.00    +0.000 A 
ATOM      3  C   UNL     1      48.071   9.317  16.741  0.00  0.00    +0.000 A 
ATOM      4  C   UNL     1      48.647   8.719  15.620  0.00  0.00    +0.000 A 
ATOM      5  C   UNL     1      49.551   7.667  15.878  0.00  0.00    +0.000 A 
ATOM      6  C   UNL     1      49.771   7.152  17.147  0.00  0.00    +0.000 A 
ENDROOT
BRANCH   1   8
ATOM      7  C   UNL     1      50.954   6.721  19.734  0.00  0.00    +0.000 C 
ATOM      8  C   UNL     1      49.517   7.273  19.647  0.00  0.00    +0.000 C 
BRANCH   8   9
ATOM      9  N   UNL     1      48.511   6.284  20.027  0.00  0.00    +0.000 NA
ATOM     10  H   UNL     1      48.215   6.460  20.990  0.00  0.00    +0.000 HD
BRANCH   9  11
ATOM     11  C   UNL     1      49.018   4.904  19.976  0.00  0.00    +0.000 C 
BRANCH  11  12
ATOM     12  C   UNL     1      48.614   4.182  18.702  0.00  0.00    +0.000 A 
ATOM     13  N   UNL     1      49.449   3.233  18.229  0.00  0.00    +0.000 NA
ATOM     14  C   UNL     1      49.091   2.645  17.073  0.00  0.00    +0.000 A 
ATOM     15  C   UNL     1      47.942   2.953  16.388  0.00  0.00    +0.000 A 
ATOM     16  C   UNL     1      47.150   3.921  16.961  0.00  0.00    +0.000 A 
ATOM     17  N   UNL     1      47.453   4.548  18.112  0.00  0.00    +0.000 NA
ENDBRANCH  11  12
ENDBRANCH   9  11
ENDBRANCH   8   9
ENDBRANCH   1   8
BRANCH   4  18
ATOM     18  C   UNL     1      48.155   9.181  14.246  0.00  0.00    +0.000 C 
BRANCH  18  19
ATOM     19  N   UNL     1      48.845   8.641  13.075  0.00  0.00    +0.000 N 
ATOM     20  C   UNL     1      50.144   9.225  12.766  0.00  0.00    +0.000 C 
ATOM     21  C   UNL     1      48.310   7.693  12.166  0.00  0.00    +0.000 C 
ATOM     22  O   UNL     1      48.812   7.523  11.070  0.00  0.00    +0.000 OA
BRANCH  21  23
ATOM     23  C   UNL     1      47.249   6.781  12.626  0.00  0.00    +0.000 A 
ATOM     24  C   UNL     1      47.341   5.748  13.516  0.00  0.00    +0.000 A 
ATOM     25  S   UNL     1      46.218   4.499  13.316  0.00  0.00    +0.000 S 
ATOM     26  C   UNL     1      45.291   5.542  12.382  0.00  0.00    +0.000 A 
ATOM     27  N   UNL     1      44.082   5.154  11.909  0.00  0.00    +0.000 NA
ATOM     28  C   UNL     1      43.413   6.125  11.392  0.00  0.00    +0.000 A 
ATOM     29  N   UNL     1      43.815   7.428  11.331  0.00  0.00    +0.000 N 
ATOM     30  C   UNL     1      45.026   7.881  11.832  0.00  0.00    +0.000 A 
ATOM     31  O   UNL     1      45.251   9.060  12.024  0.00  0.00    +0.000 OA
ATOM     32  C   UNL     1      45.868   6.796  12.268  0.00  0.00    +0.000 A 
ATOM     33  H   UNL     1      43.164   8.148  11.071  0.00  0.00    +0.000 HD
ENDBRANCH  21  23
ENDBRANCH  18  19
ENDBRANCH   4  18
TORSDOF 7
ENDMDL
