MODEL 1
REMARK VINA RESULT:    -8.980      0.000      0.000
REMARK INTER + INTRA:         -13.784
REMARK INTER:                 -12.655
REMARK INTRA:                  -1.129
REMARK UNBOUND:                -1.129
REMARK  Name = 
REMARK  8 active torsions:
REMARK  status: ('A' for Active; 'I' for Inactive)
REMARK    1  A    between atoms: C_1  and  C_2
REMARK    2  A    between atoms: C_2  and  N_3
REMARK    3  A    between atoms: C_2  and  C_25
REMARK    4  A    between atoms: N_3  and  C_4
REMARK    5  A    between atoms: C_4  and  C_5
REMARK    6  A    between atoms: C_9  and  C_10
REMARK    7  A    between atoms: C_10  and  N_11
REMARK    8  A    between atoms: C_12  and  C_14
REMARK                            x       y       z     vdW  Elec       q    Type
REMARK                         _______ _______ _______ _____ _____    ______ ____
ROOT
ATOM      1  C   UNL     1      45.740   5.657  11.574  0.00  0.00    +0.000 A 
ATOM      2  C   UNL     1      46.741   6.621  11.388  0.00  0.00    +0.000 A 
ATOM      3  C   UNL     1      47.721   6.825  12.359  0.00  0.00    +0.000 A 
ATOM      4  C   UNL     1      47.695   6.090  13.543  0.00  0.00    +0.000 A 
ATOM      5  C   UNL     1      46.691   5.139  13.765  0.00  0.00    +0.000 A 
ATOM      6  C   UNL     1      45.751   4.893  12.753  0.00  0.00    +0.000 A 
ENDROOT
BRANCH   1   7
ATOM      7  C   UNL     1      44.658   5.474  10.530  0.00  0.00    +0.000 C 
BRANCH   7   8
ATOM      8  N   UNL     1      45.221   4.982   9.271  0.00  0.00    +0.000 NA
ATOM      9  H   UNL     1      44.989   5.652   8.536  0.00  0.00    +0.000 HD
BRANCH   8  11
ATOM     10  C   UNL     1      44.221   2.821  10.036  0.00  0.00    +0.000 C 
ATOM     11  C   UNL     1      44.674   3.680   8.849  0.00  0.00    +0.000 C 
BRANCH  11  12
ATOM     12  C   UNL     1      45.704   2.905   8.018  0.00  0.00    +0.000 A 
ATOM     13  C   UNL     1      46.360   3.513   6.944  0.00  0.00    +0.000 A 
ATOM     14  C   UNL     1      47.304   2.785   6.225  0.00  0.00    +0.000 A 
ATOM     15  C   UNL     1      47.562   1.467   6.585  0.00  0.00    +0.000 A 
ATOM     16  C   UNL     1      46.855   0.930   7.648  0.00  0.00    +0.000 A 
ATOM     17  N   UNL     1      45.938   1.614   8.369  0.00  0.00    +0.000 NA
ENDBRANCH  11  12
ENDBRANCH   8  11
ENDBRANCH   7   8
ENDBRANCH   1   7
BRANCH   5  18
ATOM     18  C   UNL     1      46.601   4.415  15.082  0.00  0.00    +0.000 C 
BRANCH  18  19
ATOM     19  N   UNL     1      47.879   4.327  15.733  0.00  0.00    +0.000 N 
ATOM     20  C   UNL     1      47.971   4.398  17.101  0.00  0.00    +0.000 C 
ATOM     21  O   UNL     1      46.976   4.473  17.818  0.00  0.00    +0.000 OA
ATOM     22  H   UNL     1      48.700   4.516  15.167  0.00  0.00    +0.000 HD
BRANCH  20  23
ATOM     23  C   UNL     1      49.320   4.319  17.674  0.00  0.00    +0.000 A 
ATOM     24  C   UNL     1      49.802   5.371  18.443  0.00  0.00    +0.000 A 
ATOM     25  S   UNL     1      51.357   5.090  19.085  0.00  0.00    +0.000 S 
ATOM     26  C   UNL     1      51.461   3.577  18.313  0.00  0.00    +0.000 A 
ATOM     27  N   UNL     1      52.572   2.804  18.440  0.00  0.00    +0.000 NA
ATOM     28  C   UNL     1      52.528   1.695  17.779  0.00  0.00    +0.000 A 
ATOM     29  N   UNL     1      51.473   1.287  17.005  0.00  0.00    +0.000 N 
ATOM     30  C   UNL     1      50.321   2.024  16.866  0.00  0.00    +0.000 A 
ATOM     31  O   UNL     1      49.383   1.616  16.189  0.00  0.00    +0.000 OA
ATOM     32  C   UNL     1      50.321   3.283  17.586  0.00  0.00    +0.000 A 
ATOM     33  H   UNL     1      51.498   0.404  16.517  0.00  0.00    +0.000 HD
ENDBRANCH  20  23
ENDBRANCH  18  19
ENDBRANCH   5  18
TORSDOF 7
ENDMDL
MODEL 2
REMARK VINA RESULT:    -8.640      1.760      2.271
REMARK INTER + INTRA:         -13.304
REMARK INTER:                 -12.193
REMARK INTRA:                  -1.111
REMARK UNBOUND:                -1.129
REMARK  Name = 
REMARK  8 active torsions:
REMARK  status: ('A' for Active; 'I' for Inactive)
REMARK    1  A    between atoms: C_1  and  C_2
REMARK    2  A    between atoms: C_2  and  N_3
REMARK    3  A    between atoms: C_2  and  C_25
REMARK    4  A    between atoms: N_3  and  C_4
REMARK    5  A    between atoms: C_4  and  C_5
REMARK    6  A    between atoms: C_9  and  C_10
REMARK    7  A    between atoms: C_10  and  N_11
REMARK    8  A    between atoms: C_12  and  C_14
REMARK                            x       y       z     vdW  Elec       q    Type
REMARK                         _______ _______ _______ _____ _____    ______ ____
ROOT
ATOM      1  C   UNL     1      45.600   5.509  11.524  0.00  0.00    +0.000 A 
ATOM      2  C   UNL     1      46.379   6.670  11.424  0.00  0.00    +0.000 A 
ATOM      3  C   UNL     1      47.379   6.939  12.358  0.00  0.00    +0.000 A 
ATOM      4  C   UNL     1      47.593   6.064  13.422  0.00  0.00    +0.000 A 
ATOM      5  C   UNL     1      46.811   4.911  13.560  0.00  0.00    +0.000 A 
ATOM      6  C   UNL     1      45.855   4.615  12.577  0.00  0.00    +0.000 A 
ENDROOT
BRANCH   1   7
ATOM      7  C   UNL     1      44.489   5.250  10.527  0.00  0.00    +0.000 C 
BRANCH   7   8
ATOM      8  N   UNL     1      45.034   4.928   9.207  0.00  0.00    +0.000 NA
ATOM      9  H   UNL     1      44.663   5.603   8.537  0.00  0.00    +0.000 HD
BRANCH   8  11
ATOM     10  C   UNL     1      44.333   2.618   9.864  0.00  0.00    +0.000 C 
ATOM     11  C   UNL     1      44.649   3.590   8.721  0.00  0.00    +0.000 C 
BRANCH  11  12
ATOM     12  C   UNL     1      45.753   3.000   7.836  0.00  0.00    +0.000 A 
ATOM     13  C   UNL     1      46.264   1.723   8.084  0.00  0.00    +0.000 A 
ATOM     14  C   UNL     1      47.252   1.211   7.246  0.00  0.00    +0.000 A 
ATOM     15  C   UNL     1      47.715   1.989   6.191  0.00  0.00    +0.000 A 
ATOM     16  C   UNL     1      47.174   3.253   6.024  0.00  0.00    +0.000 A 
ATOM     17  N   UNL     1      46.209   3.773   6.817  0.00  0.00    +0.000 NA
ENDBRANCH  11  12
ENDBRANCH   8  11
ENDBRANCH   7   8
ENDBRANCH   1   7
BRANCH   5  18
ATOM     18  C   UNL     1      46.973   4.018  14.761  0.00  0.00    +0.000 C 
BRANCH  18  19
ATOM     19  N   UNL     1      47.521   4.724  15.886  0.00  0.00    +0.000 N 
ATOM     20  C   UNL     1      47.259   4.307  17.168  0.00  0.00    +0.000 C 
ATOM     21  O   UNL     1      46.610   3.291  17.402  0.00  0.00    +0.000 OA
ATOM     22  H   UNL     1      47.834   5.676  15.724  0.00  0.00    +0.000 HD
BRANCH  20  23
ATOM     23  C   UNL     1      47.846   5.104  18.251  0.00  0.00    +0.000 A 
ATOM     24  C   UNL     1      47.016   5.834  19.093  0.00  0.00    +0.000 A 
ATOM     25  S   UNL     1      47.853   6.649  20.335  0.00  0.00    +0.000 S 
ATOM     26  C   UNL     1      49.357   6.099  19.758  0.00  0.00    +0.000 A 
ATOM     27  N   UNL     1      50.514   6.456  20.375  0.00  0.00    +0.000 NA
ATOM     28  C   UNL     1      51.582   5.992  19.815  0.00  0.00    +0.000 A 
ATOM     29  N   UNL     1      51.597   5.200  18.696  0.00  0.00    +0.000 N 
ATOM     30  C   UNL     1      50.451   4.795  18.053  0.00  0.00    +0.000 A 
ATOM     31  O   UNL     1      50.499   4.061  17.071  0.00  0.00    +0.000 OA
ATOM     32  C   UNL     1      49.223   5.294  18.641  0.00  0.00    +0.000 A 
ATOM     33  H   UNL     1      52.466   4.863  18.311  0.00  0.00    +0.000 HD
ENDBRANCH  20  23
ENDBRANCH  18  19
ENDBRANCH   5  18
TORSDOF 7
ENDMDL
MODEL 3
REMARK VINA RESULT:    -8.538      2.065      2.873
REMARK INTER + INTRA:         -13.160
REMARK INTER:                 -11.872
REMARK INTRA:                  -1.288
REMARK UNBOUND:                -1.129
REMARK  Name = 
REMARK  8 active torsions:
REMARK  status: ('A' for Active; 'I' for Inactive)
REMARK    1  A    between atoms: C_1  and  C_2
REMARK    2  A    between atoms: C_2  and  N_3
REMARK    3  A    between atoms: C_2  and  C_25
REMARK    4  A    between atoms: N_3  and  C_4
REMARK    5  A    between atoms: C_4  and  C_5
REMARK    6  A    between atoms: C_9  and  C_10
REMARK    7  A    between atoms: C_10  and  N_11
REMARK    8  A    between atoms: C_12  and  C_14
REMARK                            x       y       z     vdW  Elec       q    Type
REMARK                         _______ _______ _______ _____ _____    ______ ____
ROOT
ATOM      1  C   UNL     1      45.504   6.565  11.368  0.00  0.00    +0.000 A 
ATOM      2  C   UNL     1      44.764   7.753  11.463  0.00  0.00    +0.000 A 
ATOM      3  C   UNL     1      45.369   8.937  11.885  0.00  0.00    +0.000 A 
ATOM      4  C   UNL     1      46.714   8.942  12.249  0.00  0.00    +0.000 A 
ATOM      5  C   UNL     1      47.469   7.764  12.189  0.00  0.00    +0.000 A 
ATOM      6  C   UNL     1      46.869   6.595  11.696  0.00  0.00    +0.000 A 
ENDROOT
BRANCH   1   7
ATOM      7  C   UNL     1      44.825   5.278  10.947  0.00  0.00    +0.000 C 
BRANCH   7   8
ATOM      8  N   UNL     1      45.069   4.995   9.532  0.00  0.00    +0.000 NA
ATOM      9  H   UNL     1      44.594   5.709   8.978  0.00  0.00    +0.000 HD
BRANCH   8  11
ATOM     10  C   UNL     1      44.115   2.803  10.267  0.00  0.00    +0.000 C 
ATOM     11  C   UNL     1      44.539   3.692   9.091  0.00  0.00    +0.000 C 
BRANCH  11  12
ATOM     12  C   UNL     1      45.570   2.951   8.233  0.00  0.00    +0.000 A 
ATOM     13  C   UNL     1      46.236   3.603   7.191  0.00  0.00    +0.000 A 
ATOM     14  C   UNL     1      47.182   2.904   6.445  0.00  0.00    +0.000 A 
ATOM     15  C   UNL     1      47.432   1.570   6.748  0.00  0.00    +0.000 A 
ATOM     16  C   UNL     1      46.717   0.989   7.782  0.00  0.00    +0.000 A 
ATOM     17  N   UNL     1      45.798   1.645   8.527  0.00  0.00    +0.000 NA
ENDBRANCH  11  12
ENDBRANCH   8  11
ENDBRANCH   7   8
ENDBRANCH   1   7
BRANCH   5  18
ATOM     18  C   UNL     1      48.894   7.744  12.674  0.00  0.00    +0.000 C 
BRANCH  18  19
ATOM     19  N   UNL     1      49.059   6.889  13.818  0.00  0.00    +0.000 N 
ATOM     20  C   UNL     1      48.957   7.397  15.090  0.00  0.00    +0.000 C 
ATOM     21  O   UNL     1      48.659   8.571  15.300  0.00  0.00    +0.000 OA
ATOM     22  H   UNL     1      49.540   6.008  13.670  0.00  0.00    +0.000 HD
BRANCH  20  23
ATOM     23  C   UNL     1      49.161   6.452  16.193  0.00  0.00    +0.000 A 
ATOM     24  C   UNL     1      50.156   6.697  17.131  0.00  0.00    +0.000 A 
ATOM     25  S   UNL     1      50.216   5.538  18.381  0.00  0.00    +0.000 S 
ATOM     26  C   UNL     1      48.950   4.640  17.682  0.00  0.00    +0.000 A 
ATOM     27  N   UNL     1      48.510   3.489  18.257  0.00  0.00    +0.000 NA
ATOM     28  C   UNL     1      47.566   2.896  17.606  0.00  0.00    +0.000 A 
ATOM     29  N   UNL     1      47.019   3.349  16.434  0.00  0.00    +0.000 N 
ATOM     30  C   UNL     1      47.416   4.518  15.829  0.00  0.00    +0.000 A 
ATOM     31  O   UNL     1      46.884   4.910  14.795  0.00  0.00    +0.000 OA
ATOM     32  C   UNL     1      48.479   5.222  16.519  0.00  0.00    +0.000 A 
ATOM     33  H   UNL     1      46.277   2.841  15.977  0.00  0.00    +0.000 HD
ENDBRANCH  20  23
ENDBRANCH  18  19
ENDBRANCH   5  18
TORSDOF 7
ENDMDL
MODEL 4
REMARK VINA RESULT:    -7.931      2.274      2.917
REMARK INTER + INTRA:         -12.305
REMARK INTER:                 -11.195
REMARK INTRA:                  -1.110
REMARK UNBOUND:                -1.129
REMARK  Name = 
REMARK  8 active torsions:
REMARK  status: ('A' for Active; 'I' for Inactive)
REMARK    1  A    between atoms: C_1  and  C_2
REMARK    2  A    between atoms: C_2  and  N_3
REMARK    3  A    between atoms: C_2  and  C_25
REMARK    4  A    between atoms: N_3  and  C_4
REMARK    5  A    between atoms: C_4  and  C_5
REMARK    6  A    between atoms: C_9  and  C_10
REMARK    7  A    between atoms: C_10  and  N_11
REMARK    8  A    between atoms: C_12  and  C_14
REMARK                            x       y       z     vdW  Elec       q    Type
REMARK                         _______ _______ _______ _____ _____    ______ ____
ROOT
ATOM      1  C   UNL     1      45.198   6.326  11.436  0.00  0.00    +0.000 A 
ATOM      2  C   UNL     1      44.741   7.643  11.583  0.00  0.00    +0.000 A 
ATOM      3  C   UNL     1      45.486   8.579  12.301  0.00  0.00    +0.000 A 
ATOM      4  C   UNL     1      46.683   8.201  12.908  0.00  0.00    +0.000 A 
ATOM      5  C   UNL     1      47.148   6.885  12.799  0.00  0.00    +0.000 A 
ATOM      6  C   UNL     1      46.427   5.970  12.016  0.00  0.00    +0.000 A 
ENDROOT
BRANCH   1   7
ATOM      7  C   UNL     1      44.360   5.309  10.688  0.00  0.00    +0.000 C 
BRANCH   7   8
ATOM      8  N   UNL     1      44.990   4.942   9.419  0.00  0.00    +0.000 NA
ATOM      9  H   UNL     1      44.697   5.616   8.712  0.00  0.00    +0.000 HD
BRANCH   8  11
ATOM     10  C   UNL     1      44.263   2.637  10.067  0.00  0.00    +0.000 C 
ATOM     11  C   UNL     1      44.591   3.609   8.927  0.00  0.00    +0.000 C 
BRANCH  11  12
ATOM     12  C   UNL     1      45.690   3.011   8.041  0.00  0.00    +0.000 A 
ATOM     13  C   UNL     1      46.121   1.694   8.227  0.00  0.00    +0.000 A 
ATOM     14  C   UNL     1      47.107   1.178   7.389  0.00  0.00    +0.000 A 
ATOM     15  C   UNL     1      47.646   1.988   6.397  0.00  0.00    +0.000 A 
ATOM     16  C   UNL     1      47.181   3.288   6.290  0.00  0.00    +0.000 A 
ATOM     17  N   UNL     1      46.220   3.815   7.084  0.00  0.00    +0.000 NA
ENDBRANCH  11  12
ENDBRANCH   8  11
ENDBRANCH   7   8
ENDBRANCH   1   7
BRANCH   5  18
ATOM     18  C   UNL     1      48.387   6.449  13.535  0.00  0.00    +0.000 C 
BRANCH  18  19
ATOM     19  N   UNL     1      48.188   6.435  14.958  0.00  0.00    +0.000 N 
ATOM     20  C   UNL     1      48.991   7.185  15.782  0.00  0.00    +0.000 C 
ATOM     21  O   UNL     1      49.855   7.938  15.340  0.00  0.00    +0.000 OA
ATOM     22  H   UNL     1      47.669   5.653  15.344  0.00  0.00    +0.000 HD
BRANCH  20  23
ATOM     23  C   UNL     1      48.726   7.090  17.222  0.00  0.00    +0.000 A 
ATOM     24  C   UNL     1      48.370   8.231  17.930  0.00  0.00    +0.000 A 
ATOM     25  S   UNL     1      48.034   7.935  19.576  0.00  0.00    +0.000 S 
ATOM     26  C   UNL     1      48.404   6.282  19.410  0.00  0.00    +0.000 A 
ATOM     27  N   UNL     1      48.333   5.440  20.475  0.00  0.00    +0.000 NA
ATOM     28  C   UNL     1      48.668   4.221  20.214  0.00  0.00    +0.000 A 
ATOM     29  N   UNL     1      49.065   3.765  18.983  0.00  0.00    +0.000 N 
ATOM     30  C   UNL     1      49.130   4.574  17.874  0.00  0.00    +0.000 A 
ATOM     31  O   UNL     1      49.461   4.127  16.780  0.00  0.00    +0.000 OA
ATOM     32  C   UNL     1      48.767   5.957  18.115  0.00  0.00    +0.000 A 
ATOM     33  H   UNL     1      49.309   2.796  18.843  0.00  0.00    +0.000 HD
ENDBRANCH  20  23
ENDBRANCH  18  19
ENDBRANCH   5  18
TORSDOF 7
ENDMDL
MODEL 5
REMARK VINA RESULT:    -7.798      2.378      3.141
REMARK INTER + INTRA:         -12.118
REMARK INTER:                 -11.204
REMARK INTRA:                  -0.914
REMARK UNBOUND:                -1.129
REMARK  Name = 
REMARK  8 active torsions:
REMARK  status: ('A' for Active; 'I' for Inactive)
REMARK    1  A    between atoms: C_1  and  C_2
REMARK    2  A    between atoms: C_2  and  N_3
REMARK    3  A    between atoms: C_2  and  C_25
REMARK    4  A    between atoms: N_3  and  C_4
REMARK    5  A    between atoms: C_4  and  C_5
REMARK    6  A    between atoms: C_9  and  C_10
REMARK    7  A    between atoms: C_10  and  N_11
REMARK    8  A    between atoms: C_12  and  C_14
REMARK                            x       y       z     vdW  Elec       q    Type
REMARK                         _______ _______ _______ _____ _____    ______ ____
ROOT
ATOM      1  C   UNL     1      44.812   5.758  11.386  0.00  0.00    +0.000 A 
ATOM      2  C   UNL     1      44.982   7.150  11.398  0.00  0.00    +0.000 A 
ATOM      3  C   UNL     1      45.844   7.754  12.313  0.00  0.00    +0.000 A 
ATOM      4  C   UNL     1      46.524   6.976  13.249  0.00  0.00    +0.000 A 
ATOM      5  C   UNL     1      46.352   5.587  13.275  0.00  0.00    +0.000 A 
ATOM      6  C   UNL     1      45.537   4.983  12.306  0.00  0.00    +0.000 A 
ENDROOT
BRANCH   1   7
ATOM      7  C   UNL     1      43.841   5.119  10.414  0.00  0.00    +0.000 C 
BRANCH   7   8
ATOM      8  N   UNL     1      44.535   4.644   9.215  0.00  0.00    +0.000 NA
ATOM      9  H   UNL     1      44.145   5.133   8.408  0.00  0.00    +0.000 HD
BRANCH   8  11
ATOM     10  C   UNL     1      44.234   2.392  10.262  0.00  0.00    +0.000 C 
ATOM     11  C   UNL     1      44.360   3.202   8.966  0.00  0.00    +0.000 C 
BRANCH  11  12
ATOM     12  C   UNL     1      45.523   2.654   8.130  0.00  0.00    +0.000 A 
ATOM     13  C   UNL     1      46.115   3.432   7.130  0.00  0.00    +0.000 A 
ATOM     14  C   UNL     1      47.182   2.908   6.405  0.00  0.00    +0.000 A 
ATOM     15  C   UNL     1      47.625   1.620   6.684  0.00  0.00    +0.000 A 
ATOM     16  C   UNL     1      46.973   0.906   7.675  0.00  0.00    +0.000 A 
ATOM     17  N   UNL     1      45.939   1.390   8.401  0.00  0.00    +0.000 NA
ENDBRANCH  11  12
ENDBRANCH   8  11
ENDBRANCH   7   8
ENDBRANCH   1   7
BRANCH   5  18
ATOM     18  C   UNL     1      47.007   4.756  14.346  0.00  0.00    +0.000 C 
BRANCH  18  19
ATOM     19  N   UNL     1      47.708   5.568  15.302  0.00  0.00    +0.000 N 
ATOM     20  C   UNL     1      48.384   4.989  16.347  0.00  0.00    +0.000 C 
ATOM     21  O   UNL     1      48.473   3.770  16.470  0.00  0.00    +0.000 OA
ATOM     22  H   UNL     1      47.441   6.546  15.360  0.00  0.00    +0.000 HD
BRANCH  20  23
ATOM     23  C   UNL     1      49.052   5.901  17.283  0.00  0.00    +0.000 A 
ATOM     24  C   UNL     1      50.326   6.370  16.991  0.00  0.00    +0.000 A 
ATOM     25  S   UNL     1      50.930   7.469  18.148  0.00  0.00    +0.000 S 
ATOM     26  C   UNL     1      49.531   7.312  19.106  0.00  0.00    +0.000 A 
ATOM     27  N   UNL     1      49.408   7.991  20.277  0.00  0.00    +0.000 NA
ATOM     28  C   UNL     1      48.309   7.758  20.915  0.00  0.00    +0.000 A 
ATOM     29  N   UNL     1      47.322   6.909  20.487  0.00  0.00    +0.000 N 
ATOM     30  C   UNL     1      47.393   6.220  19.300  0.00  0.00    +0.000 A 
ATOM     31  O   UNL     1      46.477   5.491  18.932  0.00  0.00    +0.000 OA
ATOM     32  C   UNL     1      48.611   6.445  18.545  0.00  0.00    +0.000 A 
ATOM     33  H   UNL     1      46.482   6.774  21.030  0.00  0.00    +0.000 HD
ENDBRANCH  20  23
ENDBRANCH  18  19
ENDBRANCH   5  18
TORSDOF 7
ENDMDL
MODEL 6
REMARK VINA RESULT:    -7.656      1.479      2.198
REMARK INTER + INTRA:         -11.918
REMARK INTER:                 -11.094
REMARK INTRA:                  -0.824
REMARK UNBOUND:                -1.129
REMARK  Name = 
REMARK  8 active torsions:
REMARK  status: ('A' for Active; 'I' for Inactive)
REMARK    1  A    between atoms: C_1  and  C_2
REMARK    2  A    between atoms: C_2  and  N_3
REMARK    3  A    between atoms: C_2  and  C_25
REMARK    4  A    between atoms: N_3  and  C_4
REMARK    5  A    between atoms: C_4  and  C_5
REMARK    6  A    between atoms: C_9  and  C_10
REMARK    7  A    between atoms: C_10  and  N_11
REMARK    8  A    between atoms: C_12  and  C_14
REMARK                            x       y       z     vdW  Elec       q    Type
REMARK                         _______ _______ _______ _____ _____    ______ ____
ROOT
ATOM      1  C   UNL     1      47.589   7.006  12.229  0.00  0.00    +0.000 A 
ATOM      2  C   UNL     1      48.757   7.590  11.719  0.00  0.00    +0.000 A 
ATOM      3  C   UNL     1      49.856   7.822  12.546  0.00  0.00    +0.000 A 
ATOM      4  C   UNL     1      49.790   7.500  13.901  0.00  0.00    +0.000 A 
ATOM      5  C   UNL     1      48.626   6.940  14.440  0.00  0.00    +0.000 A 
ATOM      6  C   UNL     1      47.552   6.648  13.586  0.00  0.00    +0.000 A 
ENDROOT
BRANCH   1   7
ATOM      7  C   UNL     1      46.388   6.799  11.329  0.00  0.00    +0.000 C 
BRANCH   7   8
ATOM      8  N   UNL     1      45.731   5.522  11.616  0.00  0.00    +0.000 NA
ATOM      9  H   UNL     1      46.431   4.783  11.549  0.00  0.00    +0.000 HD
BRANCH   8  11
ATOM     10  C   UNL     1      43.418   4.607  11.354  0.00  0.00    +0.000 C 
ATOM     11  C   UNL     1      44.659   5.183  10.662  0.00  0.00    +0.000 C 
BRANCH  11  12
ATOM     12  C   UNL     1      45.168   4.190   9.610  0.00  0.00    +0.000 A 
ATOM     13  C   UNL     1      45.023   2.813   9.796  0.00  0.00    +0.000 A 
ATOM     14  C   UNL     1      45.479   1.942   8.809  0.00  0.00    +0.000 A 
ATOM     15  C   UNL     1      46.078   2.464   7.669  0.00  0.00    +0.000 A 
ATOM     16  C   UNL     1      46.204   3.840   7.568  0.00  0.00    +0.000 A 
ATOM     17  N   UNL     1      45.765   4.710   8.506  0.00  0.00    +0.000 NA
ENDBRANCH  11  12
ENDBRANCH   8  11
ENDBRANCH   7   8
ENDBRANCH   1   7
BRANCH   5  18
ATOM     18  C   UNL     1      48.515   6.685  15.920  0.00  0.00    +0.000 C 
BRANCH  18  19
ATOM     19  N   UNL     1      49.676   6.013  16.437  0.00  0.00    +0.000 N 
ATOM     20  C   UNL     1      49.553   5.065  17.421  0.00  0.00    +0.000 C 
ATOM     21  O   UNL     1      48.458   4.707  17.848  0.00  0.00    +0.000 OA
ATOM     22  H   UNL     1      50.574   6.462  16.284  0.00  0.00    +0.000 HD
BRANCH  20  23
ATOM     23  C   UNL     1      50.796   4.449  17.899  0.00  0.00    +0.000 A 
ATOM     24  C   UNL     1      51.711   5.214  18.612  0.00  0.00    +0.000 A 
ATOM     25  S   UNL     1      53.068   4.332  19.149  0.00  0.00    +0.000 S 
ATOM     26  C   UNL     1      52.506   2.909  18.401  0.00  0.00    +0.000 A 
ATOM     27  N   UNL     1      53.224   1.756  18.465  0.00  0.00    +0.000 NA
ATOM     28  C   UNL     1      52.695   0.764  17.830  0.00  0.00    +0.000 A 
ATOM     29  N   UNL     1      51.511   0.818  17.140  0.00  0.00    +0.000 N 
ATOM     30  C   UNL     1      50.741   1.954  17.068  0.00  0.00    +0.000 A 
ATOM     31  O   UNL     1      49.672   1.959  16.466  0.00  0.00    +0.000 OA
ATOM     32  C   UNL     1      51.294   3.101  17.762  0.00  0.00    +0.000 A 
ATOM     33  H   UNL     1      51.148   0.003  16.669  0.00  0.00    +0.000 HD
ENDBRANCH  20  23
ENDBRANCH  18  19
ENDBRANCH   5  18
TORSDOF 7
ENDMDL
MODEL 7
REMARK VINA RESULT:    -7.369      3.519      4.519
REMARK INTER + INTRA:         -11.513
REMARK INTER:                 -10.446
REMARK INTRA:                  -1.067
REMARK UNBOUND:                -1.129
REMARK  Name = 
REMARK  8 active torsions:
REMARK  status: ('A' for Active; 'I' for Inactive)
REMARK    1  A    between atoms: C_1  and  C_2
REMARK    2  A    between atoms: C_2  and  N_3
REMARK    3  A    between atoms: C_2  and  C_25
REMARK    4  A    between atoms: N_3  and  C_4
REMARK    5  A    between atoms: C_4  and  C_5
REMARK    6  A    between atoms: C_9  and  C_10
REMARK    7  A    between atoms: C_10  and  N_11
REMARK    8  A    between atoms: C_12  and  C_14
REMARK                            x       y       z     vdW  Elec       q    Type
REMARK                         _______ _______ _______ _____ _____    ______ ____
ROOT
ATOM      1  C   UNL     1      45.707   6.002  11.876  0.00  0.00    +0.000 A 
ATOM      2  C   UNL     1      46.187   4.835  12.486  0.00  0.00    +0.000 A 
ATOM      3  C   UNL     1      47.079   4.906  13.556  0.00  0.00    +0.000 A 
ATOM      4  C   UNL     1      47.527   6.146  14.009  0.00  0.00    +0.000 A 
ATOM      5  C   UNL     1      47.084   7.326  13.400  0.00  0.00    +0.000 A 
ATOM      6  C   UNL     1      46.133   7.246  12.371  0.00  0.00    +0.000 A 
ENDROOT
BRANCH   1   7
ATOM      7  C   UNL     1      44.770   5.910  10.688  0.00  0.00    +0.000 C 
BRANCH   7   8
ATOM      8  N   UNL     1      45.437   5.290   9.542  0.00  0.00    +0.000 NA
ATOM      9  H   UNL     1      45.495   5.982   8.795  0.00  0.00    +0.000 HD
BRANCH   8  11
ATOM     10  C   UNL     1      44.073   3.264  10.087  0.00  0.00    +0.000 C 
ATOM     11  C   UNL     1      44.708   4.131   8.993  0.00  0.00    +0.000 C 
BRANCH  11  12
ATOM     12  C   UNL     1      45.637   3.270   8.129  0.00  0.00    +0.000 A 
ATOM     13  C   UNL     1      45.900   1.940   8.467  0.00  0.00    +0.000 A 
ATOM     14  C   UNL     1      46.733   1.182   7.647  0.00  0.00    +0.000 A 
ATOM     15  C   UNL     1      47.291   1.771   6.518  0.00  0.00    +0.000 A 
ATOM     16  C   UNL     1      46.998   3.100   6.262  0.00  0.00    +0.000 A 
ATOM     17  N   UNL     1      46.188   3.859   7.036  0.00  0.00    +0.000 NA
ENDBRANCH  11  12
ENDBRANCH   8  11
ENDBRANCH   7   8
ENDBRANCH   1   7
BRANCH   5  18
ATOM     18  C   UNL     1      47.641   8.660  13.821  0.00  0.00    +0.000 C 
BRANCH  18  19
ATOM     19  N   UNL     1      47.417   8.918  15.217  0.00  0.00    +0.000 N 
ATOM     20  C   UNL     1      48.387   9.522  15.979  0.00  0.00    +0.000 C 
ATOM     21  O   UNL     1      49.443   9.921  15.493  0.00  0.00    +0.000 OA
ATOM     22  H   UNL     1      46.684   8.385  15.673  0.00  0.00    +0.000 HD
BRANCH  20  23
ATOM     23  C   UNL     1      48.075   9.726  17.398  0.00  0.00    +0.000 A 
ATOM     24  C   UNL     1      47.864  11.013  17.876  0.00  0.00    +0.000 A 
ATOM     25  S   UNL     1      47.449  11.067  19.529  0.00  0.00    +0.000 S 
ATOM     26  C   UNL     1      47.591   9.377  19.676  0.00  0.00    +0.000 A 
ATOM     27  N   UNL     1      47.377   8.759  20.868  0.00  0.00    +0.000 NA
ATOM     28  C   UNL     1      47.545   7.479  20.842  0.00  0.00    +0.000 A 
ATOM     29  N   UNL     1      47.906   6.760  19.732  0.00  0.00    +0.000 N 
ATOM     30  C   UNL     1      48.110   7.338  18.502  0.00  0.00    +0.000 A 
ATOM     31  O   UNL     1      48.403   6.661  17.522  0.00  0.00    +0.000 OA
ATOM     32  C   UNL     1      47.936   8.777  18.478  0.00  0.00    +0.000 A 
ATOM     33  H   UNL     1      48.016   5.758  19.777  0.00  0.00    +0.000 HD
ENDBRANCH  20  23
ENDBRANCH  18  19
ENDBRANCH   5  18
TORSDOF 7
ENDMDL
MODEL 8
REMARK VINA RESULT:    -7.339      4.011      9.991
REMARK INTER + INTRA:         -11.470
REMARK INTER:                  -9.966
REMARK INTRA:                  -1.504
REMARK UNBOUND:                -1.129
REMARK  Name = 
REMARK  8 active torsions:
REMARK  status: ('A' for Active; 'I' for Inactive)
REMARK    1  A    between atoms: C_1  and  C_2
REMARK    2  A    between atoms: C_2  and  N_3
REMARK    3  A    between atoms: C_2  and  C_25
REMARK    4  A    between atoms: N_3  and  C_4
REMARK    5  A    between atoms: C_4  and  C_5
REMARK    6  A    between atoms: C_9  and  C_10
REMARK    7  A    between atoms: C_10  and  N_11
REMARK    8  A    between atoms: C_12  and  C_14
REMARK                            x       y       z     vdW  Elec       q    Type
REMARK                         _______ _______ _______ _____ _____    ______ ____
ROOT
ATOM      1  C   UNL     1      50.765   4.874  17.572  0.00  0.00    +0.000 A 
ATOM      2  C   UNL     1      51.533   3.703  17.646  0.00  0.00    +0.000 A 
ATOM      3  C   UNL     1      50.960   2.459  17.386  0.00  0.00    +0.000 A 
ATOM      4  C   UNL     1      49.603   2.366  17.078  0.00  0.00    +0.000 A 
ATOM      5  C   UNL     1      48.809   3.518  17.023  0.00  0.00    +0.000 A 
ATOM      6  C   UNL     1      49.410   4.770  17.218  0.00  0.00    +0.000 A 
ENDROOT
BRANCH   1   7
ATOM      7  C   UNL     1      51.391   6.215  17.897  0.00  0.00    +0.000 C 
BRANCH   7   8
ATOM      8  N   UNL     1      50.389   7.150  18.413  0.00  0.00    +0.000 NA
ATOM      9  H   UNL     1      50.487   8.032  17.909  0.00  0.00    +0.000 HD
BRANCH   8  11
ATOM     10  C   UNL     1      51.907   6.993  20.395  0.00  0.00    +0.000 C 
ATOM     11  C   UNL     1      50.553   7.458  19.846  0.00  0.00    +0.000 C 
BRANCH  11  12
ATOM     12  C   UNL     1      49.421   6.827  20.666  0.00  0.00    +0.000 A 
ATOM     13  C   UNL     1      49.359   5.443  20.855  0.00  0.00    +0.000 A 
ATOM     14  C   UNL     1      48.329   4.908  21.624  0.00  0.00    +0.000 A 
ATOM     15  C   UNL     1      47.379   5.762  22.174  0.00  0.00    +0.000 A 
ATOM     16  C   UNL     1      47.498   7.119  21.924  0.00  0.00    +0.000 A 
ATOM     17  N   UNL     1      48.491   7.668  21.188  0.00  0.00    +0.000 NA
ENDBRANCH  11  12
ENDBRANCH   8  11
ENDBRANCH   7   8
ENDBRANCH   1   7
BRANCH   5  18
ATOM     18  C   UNL     1      47.325   3.412  16.789  0.00  0.00    +0.000 C 
BRANCH  18  19
ATOM     19  N   UNL     1      46.854   4.410  15.869  0.00  0.00    +0.000 N 
ATOM     20  C   UNL     1      46.864   4.173  14.516  0.00  0.00    +0.000 C 
ATOM     21  O   UNL     1      47.208   3.091  14.047  0.00  0.00    +0.000 OA
ATOM     22  H   UNL     1      46.810   5.366  16.208  0.00  0.00    +0.000 HD
BRANCH  20  23
ATOM     23  C   UNL     1      46.384   5.260  13.655  0.00  0.00    +0.000 A 
ATOM     24  C   UNL     1      47.183   6.377  13.450  0.00  0.00    +0.000 A 
ATOM     25  S   UNL     1      46.505   7.513  12.374  0.00  0.00    +0.000 S 
ATOM     26  C   UNL     1      45.095   6.576  12.188  0.00  0.00    +0.000 A 
ATOM     27  N   UNL     1      44.077   6.997  11.392  0.00  0.00    +0.000 NA
ATOM     28  C   UNL     1      43.058   6.203  11.366  0.00  0.00    +0.000 A 
ATOM     29  N   UNL     1      42.967   5.025  12.061  0.00  0.00    +0.000 N 
ATOM     30  C   UNL     1      43.979   4.549  12.859  0.00  0.00    +0.000 A 
ATOM     31  O   UNL     1      43.876   3.476  13.444  0.00  0.00    +0.000 OA
ATOM     32  C   UNL     1      45.146   5.406  12.926  0.00  0.00    +0.000 A 
ATOM     33  H   UNL     1      42.143   4.446  11.993  0.00  0.00    +0.000 HD
ENDBRANCH  20  23
ENDBRANCH  18  19
ENDBRANCH   5  18
TORSDOF 7
ENDMDL
MODEL 9
REMARK VINA RESULT:    -7.243      3.992     10.179
REMARK INTER + INTRA:         -11.336
REMARK INTER:                 -10.101
REMARK INTRA:                  -1.235
REMARK UNBOUND:                -1.129
REMARK  Name = 
REMARK  8 active torsions:
REMARK  status: ('A' for Active; 'I' for Inactive)
REMARK    1  A    between atoms: C_1  and  C_2
REMARK    2  A    between atoms: C_2  and  N_3
REMARK    3  A    between atoms: C_2  and  C_25
REMARK    4  A    between atoms: N_3  and  C_4
REMARK    5  A    between atoms: C_4  and  C_5
REMARK    6  A    between atoms: C_9  and  C_10
REMARK    7  A    between atoms: C_10  and  N_11
REMARK    8  A    between atoms: C_12  and  C_14
REMARK                            x       y       z     vdW  Elec       q    Type
REMARK                         _______ _______ _______ _____ _____    ______ ____
ROOT
ATOM      1  C   UNL     1      48.939   4.455  19.079  0.00  0.00    +0.000 A 
ATOM      2  C   UNL     1      48.351   3.212  18.805  0.00  0.00    +0.000 A 
ATOM      3  C   UNL     1      47.908   2.902  17.519  0.00  0.00    +0.000 A 
ATOM      4  C   UNL     1      48.020   3.843  16.497  0.00  0.00    +0.000 A 
ATOM      5  C   UNL     1      48.579   5.102  16.750  0.00  0.00    +0.000 A 
ATOM      6  C   UNL     1      49.084   5.378  18.030  0.00  0.00    +0.000 A 
ENDROOT
BRANCH   1   7
ATOM      7  C   UNL     1      49.378   4.794  20.489  0.00  0.00    +0.000 C 
BRANCH   7   8
ATOM      8  N   UNL     1      49.370   6.242  20.707  0.00  0.00    +0.000 NA
ATOM      9  H   UNL     1      50.294   6.519  21.039  0.00  0.00    +0.000 HD
BRANCH   8  11
ATOM     10  C   UNL     1      47.368   5.594  22.060  0.00  0.00    +0.000 C 
ATOM     11  C   UNL     1      48.400   6.678  21.729  0.00  0.00    +0.000 C 
BRANCH  11  12
ATOM     12  C   UNL     1      47.679   7.954  21.278  0.00  0.00    +0.000 A 
ATOM     13  C   UNL     1      47.003   8.758  22.200  0.00  0.00    +0.000 A 
ATOM     14  C   UNL     1      46.377   9.921  21.757  0.00  0.00    +0.000 A 
ATOM     15  C   UNL     1      46.429  10.246  20.407  0.00  0.00    +0.000 A 
ATOM     16  C   UNL     1      47.100   9.387  19.553  0.00  0.00    +0.000 A 
ATOM     17  N   UNL     1      47.724   8.256  19.955  0.00  0.00    +0.000 NA
ENDBRANCH  11  12
ENDBRANCH   8  11
ENDBRANCH   7   8
ENDBRANCH   1   7
BRANCH   5  18
ATOM     18  C   UNL     1      48.610   6.155  15.675  0.00  0.00    +0.000 C 
BRANCH  18  19
ATOM     19  N   UNL     1      47.446   6.098  14.834  0.00  0.00    +0.000 N 
ATOM     20  C   UNL     1      47.573   6.050  13.468  0.00  0.00    +0.000 C 
ATOM     21  O   UNL     1      48.670   5.988  12.918  0.00  0.00    +0.000 OA
ATOM     22  H   UNL     1      46.566   6.396  15.243  0.00  0.00    +0.000 HD
BRANCH  20  23
ATOM     23  C   UNL     1      46.328   6.014  12.692  0.00  0.00    +0.000 A 
ATOM     24  C   UNL     1      45.815   7.192  12.165  0.00  0.00    +0.000 A 
ATOM     25  S   UNL     1      44.401   6.965  11.238  0.00  0.00    +0.000 S 
ATOM     26  C   UNL     1      44.396   5.293  11.556  0.00  0.00    +0.000 A 
ATOM     27  N   UNL     1      43.418   4.491  11.058  0.00  0.00    +0.000 NA
ATOM     28  C   UNL     1      43.522   3.250  11.401  0.00  0.00    +0.000 A 
ATOM     29  N   UNL     1      44.516   2.737  12.193  0.00  0.00    +0.000 N 
ATOM     30  C   UNL     1      45.537   3.505  12.699  0.00  0.00    +0.000 A 
ATOM     31  O   UNL     1      46.428   3.009  13.381  0.00  0.00    +0.000 OA
ATOM     32  C   UNL     1      45.465   4.910  12.346  0.00  0.00    +0.000 A 
ATOM     33  H   UNL     1      44.543   1.754  12.420  0.00  0.00    +0.000 HD
ENDBRANCH  20  23
ENDBRANCH  18  19
ENDBRANCH   5  18
TORSDOF 7
ENDMDL
