MODEL 1
REMARK VINA RESULT:    -7.668      0.000      0.000
REMARK INTER + INTRA:         -10.703
REMARK INTER:                 -10.133
REMARK INTRA:                  -0.570
REMARK UNBOUND:                -0.570
REMARK  Name = 
REMARK  6 active torsions:
REMARK  status: ('A' for Active; 'I' for Inactive)
REMARK    1  A    between atoms: C_2  and  O_3
REMARK    2  A    between atoms: C_2  and  C_4
REMARK    3  A    between atoms: C_8  and  O_9
REMARK    4  A    between atoms: O_9  and  C_10
REMARK    5  A    between atoms: C_10  and  C_11
REMARK    6  A    between atoms: C_11  and  C_12
REMARK                            x       y       z     vdW  Elec       q    Type
REMARK                         _______ _______ _______ _____ _____    ______ ____
ROOT
ATOM      1  C   UNL     1      46.494   4.930  13.273  0.00  0.00    +0.000 A 
ATOM      2  C   UNL     1      47.093   6.128  12.872  0.00  0.00    +0.000 A 
ATOM      3  C   UNL     1      46.614   6.805  11.754  0.00  0.00    +0.000 A 
ATOM      4  C   UNL     1      45.544   6.283  11.025  0.00  0.00    +0.000 A 
ATOM      5  C   UNL     1      44.932   5.091  11.418  0.00  0.00    +0.000 A 
ATOM      6  C   UNL     1      45.398   4.422  12.556  0.00  0.00    +0.000 A 
ENDROOT
BRANCH   1   8
ATOM      7  O   UNL     1      47.410   3.094  14.477  0.00  0.00    +0.000 OA
ATOM      8  C   UNL     1      47.045   4.254  14.474  0.00  0.00    +0.000 C 
BRANCH   8   9
ATOM      9  O   UNL     1      47.043   5.031  15.579  0.00  0.00    +0.000 OA
ATOM     10  H   UNL     1      46.187   5.448  15.789  0.00  0.00    +0.000 HD
ENDBRANCH   8   9
ENDBRANCH   1   8
BRANCH   5  11
ATOM     11  O   UNL     1      43.882   4.491  10.769  0.00  0.00    +0.000 OA
BRANCH  11  12
ATOM     12  C   UNL     1      44.135   4.091   9.417  0.00  0.00    +0.000 C 
BRANCH  12  13
ATOM     13  C   UNL     1      44.664   2.661   9.386  0.00  0.00    +0.000 C 
BRANCH  13  14
ATOM     14  C   UNL     1      45.670   2.468   8.277  0.00  0.00    +0.000 A 
ATOM     15  C   UNL     1      45.965   3.518   7.396  0.00  0.00    +0.000 A 
ATOM     16  C   UNL     1      46.913   3.348   6.385  0.00  0.00    +0.000 A 
ATOM     17  C   UNL     1      47.565   2.125   6.238  0.00  0.00    +0.000 A 
ATOM     18  C   UNL     1      47.254   1.064   7.088  0.00  0.00    +0.000 A 
ATOM     19  C   UNL     1      46.307   1.233   8.099  0.00  0.00    +0.000 A 
ENDBRANCH  13  14
ENDBRANCH  12  13
ENDBRANCH  11  12
ENDBRANCH   5  11
TORSDOF 6
ENDMDL
MODEL 2
REMARK VINA RESULT:    -7.625      2.413      6.049
REMARK INTER + INTRA:         -10.647
REMARK INTER:                  -9.878
REMARK INTRA:                  -0.769
REMARK UNBOUND:                -0.570
REMARK  Name = 
REMARK  6 active torsions:
REMARK  status: ('A' for Active; 'I' for Inactive)
REMARK    1  A    between atoms: C_2  and  O_3
REMARK    2  A    between atoms: C_2  and  C_4
REMARK    3  A    between atoms: C_8  and  O_9
REMARK    4  A    between atoms: O_9  and  C_10
REMARK    5  A    between atoms: C_10  and  C_11
REMARK    6  A    between atoms: C_11  and  C_12
REMARK                            x       y       z     vdW  Elec       q    Type
REMARK                         _______ _______ _______ _____ _____    ______ ____
ROOT
ATOM      1  C   UNL     1      46.251   2.067   8.027  0.00  0.00    +0.000 A 
ATOM      2  C   UNL     1      46.505   3.355   7.547  0.00  0.00    +0.000 A 
ATOM      3  C   UNL     1      45.792   4.439   8.051  0.00  0.00    +0.000 A 
ATOM      4  C   UNL     1      44.816   4.240   9.029  0.00  0.00    +0.000 A 
ATOM      5  C   UNL     1      44.555   2.960   9.522  0.00  0.00    +0.000 A 
ATOM      6  C   UNL     1      45.289   1.873   9.032  0.00  0.00    +0.000 A 
ENDROOT
BRANCH   1   8
ATOM      7  O   UNL     1      46.800  -0.221   7.674  0.00  0.00    +0.000 OA
ATOM      8  C   UNL     1      47.044   0.951   7.455  0.00  0.00    +0.000 C 
BRANCH   8   9
ATOM      9  O   UNL     1      48.101   1.360   6.720  0.00  0.00    +0.000 OA
ATOM     10  H   UNL     1      47.906   1.543   5.783  0.00  0.00    +0.000 HD
ENDBRANCH   8   9
ENDBRANCH   1   8
BRANCH   5  11
ATOM     11  O   UNL     1      43.614   2.657  10.473  0.00  0.00    +0.000 OA
BRANCH  11  12
ATOM     12  C   UNL     1      43.216   3.740  11.321  0.00  0.00    +0.000 C 
BRANCH  12  13
ATOM     13  C   UNL     1      43.921   3.633  12.669  0.00  0.00    +0.000 C 
BRANCH  13  14
ATOM     14  C   UNL     1      44.967   4.710  12.833  0.00  0.00    +0.000 A 
ATOM     15  C   UNL     1      46.209   4.410  13.409  0.00  0.00    +0.000 A 
ATOM     16  C   UNL     1      47.186   5.400  13.539  0.00  0.00    +0.000 A 
ATOM     17  C   UNL     1      46.927   6.698  13.103  0.00  0.00    +0.000 A 
ATOM     18  C   UNL     1      45.682   7.014  12.558  0.00  0.00    +0.000 A 
ATOM     19  C   UNL     1      44.704   6.026  12.429  0.00  0.00    +0.000 A 
ENDBRANCH  13  14
ENDBRANCH  12  13
ENDBRANCH  11  12
ENDBRANCH   5  11
TORSDOF 6
ENDMDL
MODEL 3
REMARK VINA RESULT:    -6.895      1.811      2.537
REMARK INTER + INTRA:          -9.682
REMARK INTER:                  -9.160
REMARK INTRA:                  -0.522
REMARK UNBOUND:                -0.570
REMARK  Name = 
REMARK  6 active torsions:
REMARK  status: ('A' for Active; 'I' for Inactive)
REMARK    1  A    between atoms: C_2  and  O_3
REMARK    2  A    between atoms: C_2  and  C_4
REMARK    3  A    between atoms: C_8  and  O_9
REMARK    4  A    between atoms: O_9  and  C_10
REMARK    5  A    between atoms: C_10  and  C_11
REMARK    6  A    between atoms: C_11  and  C_12
REMARK                            x       y       z     vdW  Elec       q    Type
REMARK                         _______ _______ _______ _____ _____    ______ ____
ROOT
ATOM      1  C   UNL     1      45.440   6.397  12.531  0.00  0.00    +0.000 A 
ATOM      2  C   UNL     1      46.276   5.673  13.387  0.00  0.00    +0.000 A 
ATOM      3  C   UNL     1      46.268   4.282  13.354  0.00  0.00    +0.000 A 
ATOM      4  C   UNL     1      45.419   3.607  12.475  0.00  0.00    +0.000 A 
ATOM      5  C   UNL     1      44.584   4.317  11.609  0.00  0.00    +0.000 A 
ATOM      6  C   UNL     1      44.609   5.717  11.626  0.00  0.00    +0.000 A 
ENDROOT
BRANCH   1   8
ATOM      7  O   UNL     1      46.382   8.484  13.176  0.00  0.00    +0.000 OA
ATOM      8  C   UNL     1      45.494   7.878  12.608  0.00  0.00    +0.000 C 
BRANCH   8   9
ATOM      9  O   UNL     1      44.429   8.487  12.041  0.00  0.00    +0.000 OA
ATOM     10  H   UNL     1      44.310   9.423  12.286  0.00  0.00    +0.000 HD
ENDBRANCH   8   9
ENDBRANCH   1   8
BRANCH   5  11
ATOM     11  O   UNL     1      43.709   3.752  10.716  0.00  0.00    +0.000 OA
BRANCH  11  12
ATOM     12  C   UNL     1      44.293   2.882   9.740  0.00  0.00    +0.000 C 
BRANCH  12  13
ATOM     13  C   UNL     1      44.701   3.682   8.507  0.00  0.00    +0.000 C 
BRANCH  13  14
ATOM     14  C   UNL     1      45.777   2.973   7.719  0.00  0.00    +0.000 A 
ATOM     15  C   UNL     1      46.341   3.576   6.586  0.00  0.00    +0.000 A 
ATOM     16  C   UNL     1      47.352   2.931   5.871  0.00  0.00    +0.000 A 
ATOM     17  C   UNL     1      47.803   1.676   6.277  0.00  0.00    +0.000 A 
ATOM     18  C   UNL     1      47.226   1.054   7.383  0.00  0.00    +0.000 A 
ATOM     19  C   UNL     1      46.214   1.697   8.098  0.00  0.00    +0.000 A 
ENDBRANCH  13  14
ENDBRANCH  12  13
ENDBRANCH  11  12
ENDBRANCH   5  11
TORSDOF 6
ENDMDL
MODEL 4
REMARK VINA RESULT:    -6.799      1.741      2.418
REMARK INTER + INTRA:          -9.556
REMARK INTER:                  -8.982
REMARK INTRA:                  -0.573
REMARK UNBOUND:                -0.570
REMARK  Name = 
REMARK  6 active torsions:
REMARK  status: ('A' for Active; 'I' for Inactive)
REMARK    1  A    between atoms: C_2  and  O_3
REMARK    2  A    between atoms: C_2  and  C_4
REMARK    3  A    between atoms: C_8  and  O_9
REMARK    4  A    between atoms: O_9  and  C_10
REMARK    5  A    between atoms: C_10  and  C_11
REMARK    6  A    between atoms: C_11  and  C_12
REMARK                            x       y       z     vdW  Elec       q    Type
REMARK                         _______ _______ _______ _____ _____    ______ ____
ROOT
ATOM      1  C   UNL     1      46.465   6.348  12.268  0.00  0.00    +0.000 A 
ATOM      2  C   UNL     1      47.024   5.536  13.259  0.00  0.00    +0.000 A 
ATOM      3  C   UNL     1      46.509   4.262  13.488  0.00  0.00    +0.000 A 
ATOM      4  C   UNL     1      45.427   3.800  12.736  0.00  0.00    +0.000 A 
ATOM      5  C   UNL     1      44.863   4.598  11.738  0.00  0.00    +0.000 A 
ATOM      6  C   UNL     1      45.396   5.869  11.492  0.00  0.00    +0.000 A 
ENDROOT
BRANCH   1   8
ATOM      7  O   UNL     1      46.416   8.723  12.156  0.00  0.00    +0.000 OA
ATOM      8  C   UNL     1      47.057   7.693  12.067  0.00  0.00    +0.000 C 
BRANCH   8   9
ATOM      9  O   UNL     1      48.361   7.662  11.715  0.00  0.00    +0.000 OA
ATOM     10  H   UNL     1      48.554   7.995  10.819  0.00  0.00    +0.000 HD
ENDBRANCH   8   9
ENDBRANCH   1   8
BRANCH   5  11
ATOM     11  O   UNL     1      43.797   4.242  10.951  0.00  0.00    +0.000 OA
BRANCH  11  12
ATOM     12  C   UNL     1      44.103   3.958   9.582  0.00  0.00    +0.000 C 
BRANCH  12  13
ATOM     13  C   UNL     1      44.662   2.545   9.454  0.00  0.00    +0.000 C 
BRANCH  13  14
ATOM     14  C   UNL     1      45.654   2.443   8.320  0.00  0.00    +0.000 A 
ATOM     15  C   UNL     1      45.879   3.538   7.474  0.00  0.00    +0.000 A 
ATOM     16  C   UNL     1      46.813   3.453   6.440  0.00  0.00    +0.000 A 
ATOM     17  C   UNL     1      47.523   2.271   6.237  0.00  0.00    +0.000 A 
ATOM     18  C   UNL     1      47.283   1.166   7.052  0.00  0.00    +0.000 A 
ATOM     19  C   UNL     1      46.348   1.249   8.086  0.00  0.00    +0.000 A 
ENDBRANCH  13  14
ENDBRANCH  12  13
ENDBRANCH  11  12
ENDBRANCH   5  11
TORSDOF 6
ENDMDL
MODEL 5
REMARK VINA RESULT:    -6.502      2.460      6.462
REMARK INTER + INTRA:          -9.163
REMARK INTER:                  -8.515
REMARK INTRA:                  -0.647
REMARK UNBOUND:                -0.570
REMARK  Name = 
REMARK  6 active torsions:
REMARK  status: ('A' for Active; 'I' for Inactive)
REMARK    1  A    between atoms: C_2  and  O_3
REMARK    2  A    between atoms: C_2  and  C_4
REMARK    3  A    between atoms: C_8  and  O_9
REMARK    4  A    between atoms: O_9  and  C_10
REMARK    5  A    between atoms: C_10  and  C_11
REMARK    6  A    between atoms: C_11  and  C_12
REMARK                            x       y       z     vdW  Elec       q    Type
REMARK                         _______ _______ _______ _____ _____    ______ ____
ROOT
ATOM      1  C   UNL     1      46.578   2.683   7.241  0.00  0.00    +0.000 A 
ATOM      2  C   UNL     1      46.304   1.417   7.767  0.00  0.00    +0.000 A 
ATOM      3  C   UNL     1      45.417   1.283   8.832  0.00  0.00    +0.000 A 
ATOM      4  C   UNL     1      44.810   2.413   9.383  0.00  0.00    +0.000 A 
ATOM      5  C   UNL     1      45.070   3.683   8.864  0.00  0.00    +0.000 A 
ATOM      6  C   UNL     1      45.942   3.815   7.777  0.00  0.00    +0.000 A 
ENDROOT
BRANCH   1   8
ATOM      7  O   UNL     1      47.176   2.939   4.953  0.00  0.00    +0.000 OA
ATOM      8  C   UNL     1      47.528   2.764   6.104  0.00  0.00    +0.000 C 
BRANCH   8   9
ATOM      9  O   UNL     1      48.815   2.561   6.460  0.00  0.00    +0.000 OA
ATOM     10  H   UNL     1      49.062   1.629   6.604  0.00  0.00    +0.000 HD
ENDBRANCH   8   9
ENDBRANCH   1   8
BRANCH   5  11
ATOM     11  O   UNL     1      44.533   4.854   9.336  0.00  0.00    +0.000 OA
BRANCH  11  12
ATOM     12  C   UNL     1      43.584   4.718  10.400  0.00  0.00    +0.000 C 
BRANCH  12  13
ATOM     13  C   UNL     1      43.735   5.873  11.384  0.00  0.00    +0.000 C 
BRANCH  13  14
ATOM     14  C   UNL     1      44.993   5.736  12.208  0.00  0.00    +0.000 A 
ATOM     15  C   UNL     1      45.340   4.500  12.772  0.00  0.00    +0.000 A 
ATOM     16  C   UNL     1      46.515   4.367  13.515  0.00  0.00    +0.000 A 
ATOM     17  C   UNL     1      47.347   5.467  13.708  0.00  0.00    +0.000 A 
ATOM     18  C   UNL     1      46.994   6.708  13.179  0.00  0.00    +0.000 A 
ATOM     19  C   UNL     1      45.819   6.844  12.438  0.00  0.00    +0.000 A 
ENDBRANCH  13  14
ENDBRANCH  12  13
ENDBRANCH  11  12
ENDBRANCH   5  11
TORSDOF 6
ENDMDL
MODEL 6
REMARK VINA RESULT:    -6.311      2.595      6.676
REMARK INTER + INTRA:          -8.911
REMARK INTER:                  -8.435
REMARK INTRA:                  -0.476
REMARK UNBOUND:                -0.570
REMARK  Name = 
REMARK  6 active torsions:
REMARK  status: ('A' for Active; 'I' for Inactive)
REMARK    1  A    between atoms: C_2  and  O_3
REMARK    2  A    between atoms: C_2  and  C_4
REMARK    3  A    between atoms: C_8  and  O_9
REMARK    4  A    between atoms: O_9  and  C_10
REMARK    5  A    between atoms: C_10  and  C_11
REMARK    6  A    between atoms: C_11  and  C_12
REMARK                            x       y       z     vdW  Elec       q    Type
REMARK                         _______ _______ _______ _____ _____    ______ ____
ROOT
ATOM      1  C   UNL     1      46.550   2.626   7.499  0.00  0.00    +0.000 A 
ATOM      2  C   UNL     1      45.937   1.466   7.981  0.00  0.00    +0.000 A 
ATOM      3  C   UNL     1      44.992   1.551   9.000  0.00  0.00    +0.000 A 
ATOM      4  C   UNL     1      44.664   2.792   9.549  0.00  0.00    +0.000 A 
ATOM      5  C   UNL     1      45.265   3.960   9.073  0.00  0.00    +0.000 A 
ATOM      6  C   UNL     1      46.197   3.877   8.032  0.00  0.00    +0.000 A 
ENDROOT
BRANCH   1   8
ATOM      7  O   UNL     1      48.490   1.710   6.471  0.00  0.00    +0.000 OA
ATOM      8  C   UNL     1      47.546   2.475   6.410  0.00  0.00    +0.000 C 
BRANCH   8   9
ATOM      9  O   UNL     1      47.342   3.315   5.371  0.00  0.00    +0.000 OA
ATOM     10  H   UNL     1      46.448   3.699   5.320  0.00  0.00    +0.000 HD
ENDBRANCH   8   9
ENDBRANCH   1   8
BRANCH   5  11
ATOM     11  O   UNL     1      45.020   5.223   9.548  0.00  0.00    +0.000 OA
BRANCH  11  12
ATOM     12  C   UNL     1      44.494   5.296  10.878  0.00  0.00    +0.000 C 
BRANCH  12  13
ATOM     13  C   UNL     1      45.636   5.308  11.890  0.00  0.00    +0.000 C 
BRANCH  13  14
ATOM     14  C   UNL     1      46.197   6.697  12.074  0.00  0.00    +0.000 A 
ATOM     15  C   UNL     1      47.553   6.954  11.825  0.00  0.00    +0.000 A 
ATOM     16  C   UNL     1      48.067   8.244  11.973  0.00  0.00    +0.000 A 
ATOM     17  C   UNL     1      47.235   9.285  12.378  0.00  0.00    +0.000 A 
ATOM     18  C   UNL     1      45.892   9.034  12.660  0.00  0.00    +0.000 A 
ATOM     19  C   UNL     1      45.377   7.745  12.514  0.00  0.00    +0.000 A 
ENDBRANCH  13  14
ENDBRANCH  12  13
ENDBRANCH  11  12
ENDBRANCH   5  11
TORSDOF 6
ENDMDL
MODEL 7
REMARK VINA RESULT:    -5.874      3.328      7.341
REMARK INTER + INTRA:          -8.332
REMARK INTER:                  -7.925
REMARK INTRA:                  -0.407
REMARK UNBOUND:                -0.570
REMARK  Name = 
REMARK  6 active torsions:
REMARK  status: ('A' for Active; 'I' for Inactive)
REMARK    1  A    between atoms: C_2  and  O_3
REMARK    2  A    between atoms: C_2  and  C_4
REMARK    3  A    between atoms: C_8  and  O_9
REMARK    4  A    between atoms: O_9  and  C_10
REMARK    5  A    between atoms: C_10  and  C_11
REMARK    6  A    between atoms: C_11  and  C_12
REMARK                            x       y       z     vdW  Elec       q    Type
REMARK                         _______ _______ _______ _____ _____    ______ ____
ROOT
ATOM      1  C   UNL     1      44.916   4.461  12.104  0.00  0.00    +0.000 A 
ATOM      2  C   UNL     1      45.103   5.486  11.172  0.00  0.00    +0.000 A 
ATOM      3  C   UNL     1      46.141   6.399  11.340  0.00  0.00    +0.000 A 
ATOM      4  C   UNL     1      46.989   6.298  12.445  0.00  0.00    +0.000 A 
ATOM      5  C   UNL     1      46.817   5.275  13.381  0.00  0.00    +0.000 A 
ATOM      6  C   UNL     1      45.788   4.344  13.199  0.00  0.00    +0.000 A 
ENDROOT
BRANCH   1   8
ATOM      7  O   UNL     1      42.845   3.773  11.156  0.00  0.00    +0.000 OA
ATOM      8  C   UNL     1      43.796   3.517  11.871  0.00  0.00    +0.000 C 
BRANCH   8   9
ATOM      9  O   UNL     1      43.900   2.370  12.577  0.00  0.00    +0.000 OA
ATOM     10  H   UNL     1      44.514   1.710  12.205  0.00  0.00    +0.000 HD
ENDBRANCH   8   9
ENDBRANCH   1   8
BRANCH   5  11
ATOM     11  O   UNL     1      47.587   5.094  14.502  0.00  0.00    +0.000 OA
BRANCH  11  12
ATOM     12  C   UNL     1      47.209   3.999  15.344  0.00  0.00    +0.000 C 
BRANCH  12  13
ATOM     13  C   UNL     1      47.592   4.297  16.790  0.00  0.00    +0.000 C 
BRANCH  13  14
ATOM     14  C   UNL     1      48.984   3.803  17.106  0.00  0.00    +0.000 A 
ATOM     15  C   UNL     1      49.297   2.442  16.990  0.00  0.00    +0.000 A 
ATOM     16  C   UNL     1      50.590   1.987  17.259  0.00  0.00    +0.000 A 
ATOM     17  C   UNL     1      51.577   2.887  17.655  0.00  0.00    +0.000 A 
ATOM     18  C   UNL     1      51.268   4.239  17.805  0.00  0.00    +0.000 A 
ATOM     19  C   UNL     1      49.976   4.694  17.538  0.00  0.00    +0.000 A 
ENDBRANCH  13  14
ENDBRANCH  12  13
ENDBRANCH  11  12
ENDBRANCH   5  11
TORSDOF 6
ENDMDL
MODEL 8
REMARK VINA RESULT:    -5.683      2.320      6.020
REMARK INTER + INTRA:          -8.080
REMARK INTER:                  -7.312
REMARK INTRA:                  -0.768
REMARK UNBOUND:                -0.570
REMARK  Name = 
REMARK  6 active torsions:
REMARK  status: ('A' for Active; 'I' for Inactive)
REMARK    1  A    between atoms: C_2  and  O_3
REMARK    2  A    between atoms: C_2  and  C_4
REMARK    3  A    between atoms: C_8  and  O_9
REMARK    4  A    between atoms: O_9  and  C_10
REMARK    5  A    between atoms: C_10  and  C_11
REMARK    6  A    between atoms: C_11  and  C_12
REMARK                            x       y       z     vdW  Elec       q    Type
REMARK                         _______ _______ _______ _____ _____    ______ ____
ROOT
ATOM      1  C   UNL     1      44.309   3.826  10.600  0.00  0.00    +0.000 A 
ATOM      2  C   UNL     1      43.224   4.707  10.603  0.00  0.00    +0.000 A 
ATOM      3  C   UNL     1      42.901   5.407  11.762  0.00  0.00    +0.000 A 
ATOM      4  C   UNL     1      43.652   5.222  12.924  0.00  0.00    +0.000 A 
ATOM      5  C   UNL     1      44.742   4.349  12.933  0.00  0.00    +0.000 A 
ATOM      6  C   UNL     1      45.082   3.664  11.761  0.00  0.00    +0.000 A 
ENDROOT
BRANCH   1   8
ATOM      7  O   UNL     1      45.159   2.025   9.297  0.00  0.00    +0.000 OA
ATOM      8  C   UNL     1      44.609   3.110   9.335  0.00  0.00    +0.000 C 
BRANCH   8   9
ATOM      9  O   UNL     1      44.271   3.806   8.227  0.00  0.00    +0.000 OA
ATOM     10  H   UNL     1      43.364   3.652   7.905  0.00  0.00    +0.000 HD
ENDBRANCH   8   9
ENDBRANCH   1   8
BRANCH   5  11
ATOM     11  O   UNL     1      45.537   4.091  14.021  0.00  0.00    +0.000 OA
BRANCH  11  12
ATOM     12  C   UNL     1      46.948   4.204  13.801  0.00  0.00    +0.000 C 
BRANCH  12  13
ATOM     13  C   UNL     1      47.499   5.408  14.557  0.00  0.00    +0.000 C 
BRANCH  13  14
ATOM     14  C   UNL     1      48.115   6.417  13.617  0.00  0.00    +0.000 A 
ATOM     15  C   UNL     1      47.562   6.633  12.347  0.00  0.00    +0.000 A 
ATOM     16  C   UNL     1      48.116   7.582  11.486  0.00  0.00    +0.000 A 
ATOM     17  C   UNL     1      49.233   8.316  11.883  0.00  0.00    +0.000 A 
ATOM     18  C   UNL     1      49.810   8.085  13.131  0.00  0.00    +0.000 A 
ATOM     19  C   UNL     1      49.257   7.136  13.992  0.00  0.00    +0.000 A 
ENDBRANCH  13  14
ENDBRANCH  12  13
ENDBRANCH  11  12
ENDBRANCH   5  11
TORSDOF 6
ENDMDL
MODEL 9
REMARK VINA RESULT:    -5.405      2.849      6.335
REMARK INTER + INTRA:          -7.714
REMARK INTER:                  -7.252
REMARK INTRA:                  -0.461
REMARK UNBOUND:                -0.570
REMARK  Name = 
REMARK  6 active torsions:
REMARK  status: ('A' for Active; 'I' for Inactive)
REMARK    1  A    between atoms: C_2  and  O_3
REMARK    2  A    between atoms: C_2  and  C_4
REMARK    3  A    between atoms: C_8  and  O_9
REMARK    4  A    between atoms: O_9  and  C_10
REMARK    5  A    between atoms: C_10  and  C_11
REMARK    6  A    between atoms: C_11  and  C_12
REMARK                            x       y       z     vdW  Elec       q    Type
REMARK                         _______ _______ _______ _____ _____    ______ ____
ROOT
ATOM      1  C   UNL     1      44.369   3.680  10.360  0.00  0.00    +0.000 A 
ATOM      2  C   UNL     1      43.799   3.021  11.453  0.00  0.00    +0.000 A 
ATOM      3  C   UNL     1      43.602   3.702  12.651  0.00  0.00    +0.000 A 
ATOM      4  C   UNL     1      43.984   5.040  12.767  0.00  0.00    +0.000 A 
ATOM      5  C   UNL     1      44.550   5.713  11.681  0.00  0.00    +0.000 A 
ATOM      6  C   UNL     1      44.725   5.035  10.469  0.00  0.00    +0.000 A 
ENDROOT
BRANCH   1   8
ATOM      7  O   UNL     1      44.994   1.772   9.084  0.00  0.00    +0.000 OA
ATOM      8  C   UNL     1      44.551   2.905   9.108  0.00  0.00    +0.000 C 
BRANCH   8   9
ATOM      9  O   UNL     1      44.238   3.600   7.993  0.00  0.00    +0.000 OA
ATOM     10  H   UNL     1      43.759   3.093   7.312  0.00  0.00    +0.000 HD
ENDBRANCH   8   9
ENDBRANCH   1   8
BRANCH   5  11
ATOM     11  O   UNL     1      44.966   7.020  11.693  0.00  0.00    +0.000 OA
BRANCH  11  12
ATOM     12  C   UNL     1      46.000   7.335  12.631  0.00  0.00    +0.000 C 
BRANCH  12  13
ATOM     13  C   UNL     1      47.333   6.774  12.146  0.00  0.00    +0.000 C 
BRANCH  13  14
ATOM     14  C   UNL     1      48.339   7.874  11.903  0.00  0.00    +0.000 A 
ATOM     15  C   UNL     1      49.689   7.564  11.683  0.00  0.00    +0.000 A 
ATOM     16  C   UNL     1      50.616   8.579  11.435  0.00  0.00    +0.000 A 
ATOM     17  C   UNL     1      50.205   9.910  11.412  0.00  0.00    +0.000 A 
ATOM     18  C   UNL     1      48.871  10.231  11.662  0.00  0.00    +0.000 A 
ATOM     19  C   UNL     1      47.943   9.218  11.911  0.00  0.00    +0.000 A 
ENDBRANCH  13  14
ENDBRANCH  12  13
ENDBRANCH  11  12
ENDBRANCH   5  11
TORSDOF 6
ENDMDL
