MODEL 1
REMARK VINA RESULT:    -8.021      0.000      0.000
REMARK INTER + INTRA:         -12.288
REMARK INTER:                 -11.303
REMARK INTRA:                  -0.985
REMARK UNBOUND:                -0.985
REMARK  Name = 
REMARK  7 active torsions:
REMARK  status: ('A' for Active; 'I' for Inactive)
REMARK    1  A    between atoms: C_2  and  C_21
REMARK    2  A    between atoms: N_3  and  C_4
REMARK    3  A    between atoms: C_4  and  C_5
REMARK    4  A    between atoms: C_8  and  N_9
REMARK    5  A    between atoms: N_9  and  C_10
REMARK    6  A    between atoms: C_10  and  C_11
REMARK    7  A    between atoms: C_11  and  C_12
REMARK                            x       y       z     vdW  Elec       q    Type
REMARK                         _______ _______ _______ _____ _____    ______ ____
ROOT
ATOM      1  C   UNL     1      46.810   6.093  12.846  0.00  0.00    +0.000 A 
ATOM      2  C   UNL     1      46.151   6.248  11.631  0.00  0.00    +0.000 A 
ATOM      3  C   UNL     1      45.427   5.176  11.111  0.00  0.00    +0.000 A 
ATOM      4  C   UNL     1      45.390   3.960  11.791  0.00  0.00    +0.000 A 
ATOM      5  C   UNL     1      45.991   3.944  13.051  0.00  0.00    +0.000 A 
ATOM      6  N   UNL     1      46.702   4.965  13.591  0.00  0.00    +0.000 NA
ENDROOT
BRANCH   4   7
ATOM      7  N   UNL     1      44.734   2.817  11.320  0.00  0.00    +0.000 N 
ATOM      8  H   UNL     1      44.036   2.507  11.996  0.00  0.00    +0.000 HD
BRANCH   7   9
ATOM      9  C   UNL     1      44.192   2.875   9.958  0.00  0.00    +0.000 C 
BRANCH   9  10
ATOM     10  C   UNL     1      44.733   1.696   9.148  0.00  0.00    +0.000 C 
BRANCH  10  11
ATOM     11  C   UNL     1      45.820   2.142   8.205  0.00  0.00    +0.000 A 
ATOM     12  N   UNL     1      45.920   3.489   8.032  0.00  0.00    +0.000 NA
ATOM     13  C   UNL     1      46.892   3.948   7.212  0.00  0.00    +0.000 A 
ATOM     14  C   UNL     1      47.793   3.129   6.557  0.00  0.00    +0.000 A 
ATOM     15  C   UNL     1      47.692   1.755   6.749  0.00  0.00    +0.000 A 
ATOM     16  C   UNL     1      46.696   1.246   7.582  0.00  0.00    +0.000 A 
ATOM     17 CL   UNL     1      46.610  -0.460   7.802  0.00  0.00    +0.000 Cl
ENDBRANCH  10  11
ENDBRANCH   9  10
ENDBRANCH   7   9
ENDBRANCH   4   7
BRANCH   1  18
ATOM     18  C   UNL     1      47.687   7.199  13.375  0.00  0.00    +0.000 C 
BRANCH  18  21
ATOM     19  O   UNL     1      49.930   6.672  15.011  0.00  0.00    +0.000 OA
ATOM     20  C   UNL     1      48.847   6.922  15.536  0.00  0.00    +0.000 C 
ATOM     21  N   UNL     1      47.729   7.227  14.815  0.00  0.00    +0.000 N 
ATOM     22  H   UNL     1      46.846   7.392  15.277  0.00  0.00    +0.000 HD
BRANCH  20  23
ATOM     23  C   UNL     1      48.690   6.963  16.993  0.00  0.00    +0.000 A 
ATOM     24  C   UNL     1      48.419   8.160  17.638  0.00  0.00    +0.000 A 
ATOM     25  S   UNL     1      48.214   7.989  19.324  0.00  0.00    +0.000 S 
ATOM     26  C   UNL     1      48.521   6.314  19.249  0.00  0.00    +0.000 A 
ATOM     27  N   UNL     1      48.496   5.545  20.371  0.00  0.00    +0.000 NA
ATOM     28  C   UNL     1      48.766   4.296  20.166  0.00  0.00    +0.000 A 
ATOM     29  N   UNL     1      49.073   3.752  18.946  0.00  0.00    +0.000 N 
ATOM     30  C   UNL     1      49.105   4.491  17.790  0.00  0.00    +0.000 A 
ATOM     31  O   UNL     1      49.365   3.962  16.713  0.00  0.00    +0.000 OA
ATOM     32  C   UNL     1      48.785   5.896  17.959  0.00  0.00    +0.000 A 
ATOM     33  H   UNL     1      49.277   2.769  18.852  0.00  0.00    +0.000 HD
ENDBRANCH  20  23
ENDBRANCH  18  21
ENDBRANCH   1  18
TORSDOF 7
ENDMDL
MODEL 2
REMARK VINA RESULT:    -7.753      1.646      2.111
REMARK INTER + INTRA:         -11.910
REMARK INTER:                 -10.978
REMARK INTRA:                  -0.932
REMARK UNBOUND:                -0.985
REMARK  Name = 
REMARK  7 active torsions:
REMARK  status: ('A' for Active; 'I' for Inactive)
REMARK    1  A    between atoms: C_2  and  C_21
REMARK    2  A    between atoms: N_3  and  C_4
REMARK    3  A    between atoms: C_4  and  C_5
REMARK    4  A    between atoms: C_8  and  N_9
REMARK    5  A    between atoms: N_9  and  C_10
REMARK    6  A    between atoms: C_10  and  C_11
REMARK    7  A    between atoms: C_11  and  C_12
REMARK                            x       y       z     vdW  Elec       q    Type
REMARK                         _______ _______ _______ _____ _____    ______ ____
ROOT
ATOM      1  C   UNL     1      46.769   4.449  14.064  0.00  0.00    +0.000 A 
ATOM      2  C   UNL     1      46.896   5.784  13.694  0.00  0.00    +0.000 A 
ATOM      3  C   UNL     1      46.284   6.224  12.522  0.00  0.00    +0.000 A 
ATOM      4  C   UNL     1      45.577   5.327  11.722  0.00  0.00    +0.000 A 
ATOM      5  C   UNL     1      45.418   4.040  12.237  0.00  0.00    +0.000 A 
ATOM      6  N   UNL     1      45.995   3.576  13.373  0.00  0.00    +0.000 NA
ENDROOT
BRANCH   4   7
ATOM      7  N   UNL     1      44.975   5.667  10.505  0.00  0.00    +0.000 N 
ATOM      8  H   UNL     1      44.645   6.632  10.531  0.00  0.00    +0.000 HD
BRANCH   7   9
ATOM      9  C   UNL     1      45.734   5.378   9.283  0.00  0.00    +0.000 C 
BRANCH   9  10
ATOM     10  C   UNL     1      44.961   4.368   8.435  0.00  0.00    +0.000 C 
BRANCH  10  11
ATOM     11  C   UNL     1      45.864   3.263   7.954  0.00  0.00    +0.000 A 
ATOM     12  N   UNL     1      46.914   3.666   7.187  0.00  0.00    +0.000 NA
ATOM     13  C   UNL     1      47.770   2.718   6.744  0.00  0.00    +0.000 A 
ATOM     14  C   UNL     1      47.646   1.373   7.039  0.00  0.00    +0.000 A 
ATOM     15  C   UNL     1      46.577   0.971   7.834  0.00  0.00    +0.000 A 
ATOM     16  C   UNL     1      45.670   1.921   8.302  0.00  0.00    +0.000 A 
ATOM     17 CL   UNL     1      44.366   1.385   9.291  0.00  0.00    +0.000 Cl
ENDBRANCH  10  11
ENDBRANCH   9  10
ENDBRANCH   7   9
ENDBRANCH   4   7
BRANCH   1  18
ATOM     18  C   UNL     1      47.512   3.927  15.267  0.00  0.00    +0.000 C 
BRANCH  18  21
ATOM     19  O   UNL     1      49.591   5.680  16.035  0.00  0.00    +0.000 OA
ATOM     20  C   UNL     1      48.558   5.643  16.699  0.00  0.00    +0.000 C 
ATOM     21  N   UNL     1      47.494   4.855  16.369  0.00  0.00    +0.000 N 
ATOM     22  H   UNL     1      46.673   4.822  16.958  0.00  0.00    +0.000 HD
BRANCH  20  23
ATOM     23  C   UNL     1      48.371   6.495  17.878  0.00  0.00    +0.000 A 
ATOM     24  C   UNL     1      48.314   7.875  17.748  0.00  0.00    +0.000 A 
ATOM     25  S   UNL     1      48.034   8.683  19.225  0.00  0.00    +0.000 S 
ATOM     26  C   UNL     1      48.020   7.215  20.092  0.00  0.00    +0.000 A 
ATOM     27  N   UNL     1      47.819   7.196  21.437  0.00  0.00    +0.000 NA
ATOM     28  C   UNL     1      47.855   6.015  21.964  0.00  0.00    +0.000 A 
ATOM     29  N   UNL     1      48.086   4.855  21.269  0.00  0.00    +0.000 N 
ATOM     30  C   UNL     1      48.289   4.830  19.912  0.00  0.00    +0.000 A 
ATOM     31  O   UNL     1      48.474   3.768  19.324  0.00  0.00    +0.000 OA
ATOM     32  C   UNL     1      48.236   6.128  19.267  0.00  0.00    +0.000 A 
ATOM     33  H   UNL     1      48.103   3.963  21.739  0.00  0.00    +0.000 HD
ENDBRANCH  20  23
ENDBRANCH  18  21
ENDBRANCH   1  18
TORSDOF 7
ENDMDL
MODEL 3
REMARK VINA RESULT:    -7.641      1.437      2.107
REMARK INTER + INTRA:         -11.753
REMARK INTER:                 -10.703
REMARK INTRA:                  -1.050
REMARK UNBOUND:                -0.985
REMARK  Name = 
REMARK  7 active torsions:
REMARK  status: ('A' for Active; 'I' for Inactive)
REMARK    1  A    between atoms: C_2  and  C_21
REMARK    2  A    between atoms: N_3  and  C_4
REMARK    3  A    between atoms: C_4  and  C_5
REMARK    4  A    between atoms: C_8  and  N_9
REMARK    5  A    between atoms: N_9  and  C_10
REMARK    6  A    between atoms: C_10  and  C_11
REMARK    7  A    between atoms: C_11  and  C_12
REMARK                            x       y       z     vdW  Elec       q    Type
REMARK                         _______ _______ _______ _____ _____    ______ ____
ROOT
ATOM      1  C   UNL     1      47.049   5.571  13.372  0.00  0.00    +0.000 A 
ATOM      2  C   UNL     1      46.207   6.037  12.368  0.00  0.00    +0.000 A 
ATOM      3  C   UNL     1      45.384   5.133  11.700  0.00  0.00    +0.000 A 
ATOM      4  C   UNL     1      45.427   3.777  12.021  0.00  0.00    +0.000 A 
ATOM      5  C   UNL     1      46.222   3.431  13.114  0.00  0.00    +0.000 A 
ATOM      6  N   UNL     1      47.034   4.282  13.790  0.00  0.00    +0.000 NA
ENDROOT
BRANCH   4   7
ATOM      7  N   UNL     1      44.676   2.792  11.369  0.00  0.00    +0.000 N 
ATOM      8  H   UNL     1      43.840   2.569  11.910  0.00  0.00    +0.000 HD
BRANCH   7   9
ATOM      9  C   UNL     1      44.370   3.017   9.952  0.00  0.00    +0.000 C 
BRANCH   9  10
ATOM     10  C   UNL     1      44.846   1.815   9.135  0.00  0.00    +0.000 C 
BRANCH  10  11
ATOM     11  C   UNL     1      45.928   2.213   8.166  0.00  0.00    +0.000 A 
ATOM     12  N   UNL     1      46.068   3.553   7.975  0.00  0.00    +0.000 NA
ATOM     13  C   UNL     1      47.039   3.970   7.131  0.00  0.00    +0.000 A 
ATOM     14  C   UNL     1      47.900   3.114   6.468  0.00  0.00    +0.000 A 
ATOM     15  C   UNL     1      47.757   1.747   6.679  0.00  0.00    +0.000 A 
ATOM     16  C   UNL     1      46.761   1.281   7.537  0.00  0.00    +0.000 A 
ATOM     17 CL   UNL     1      46.623  -0.418   7.779  0.00  0.00    +0.000 Cl
ENDBRANCH  10  11
ENDBRANCH   9  10
ENDBRANCH   7   9
ENDBRANCH   4   7
BRANCH   1  18
ATOM     18  C   UNL     1      48.026   6.510  14.033  0.00  0.00    +0.000 C 
BRANCH  18  21
ATOM     19  O   UNL     1      50.255   6.373  15.765  0.00  0.00    +0.000 OA
ATOM     20  C   UNL     1      49.122   6.312  16.236  0.00  0.00    +0.000 C 
ATOM     21  N   UNL     1      47.996   6.412  15.471  0.00  0.00    +0.000 N 
ATOM     22  H   UNL     1      47.079   6.321  15.886  0.00  0.00    +0.000 HD
BRANCH  20  23
ATOM     23  C   UNL     1      48.895   6.177  17.678  0.00  0.00    +0.000 A 
ATOM     24  C   UNL     1      49.197   4.991  18.331  0.00  0.00    +0.000 A 
ATOM     25  S   UNL     1      48.916   5.054  20.014  0.00  0.00    +0.000 S 
ATOM     26  C   UNL     1      48.343   6.657  19.916  0.00  0.00    +0.000 A 
ATOM     27  N   UNL     1      47.933   7.324  21.028  0.00  0.00    +0.000 NA
ATOM     28  C   UNL     1      47.505   8.524  20.801  0.00  0.00    +0.000 A 
ATOM     29  N   UNL     1      47.438   9.110  19.562  0.00  0.00    +0.000 N 
ATOM     30  C   UNL     1      47.845   8.473  18.417  0.00  0.00    +0.000 A 
ATOM     31  O   UNL     1      47.787   9.039  17.329  0.00  0.00    +0.000 OA
ATOM     32  C   UNL     1      48.357   7.131  18.618  0.00  0.00    +0.000 A 
ATOM     33  H   UNL     1      47.092  10.050  19.451  0.00  0.00    +0.000 HD
ENDBRANCH  20  23
ENDBRANCH  18  21
ENDBRANCH   1  18
TORSDOF 7
ENDMDL
MODEL 4
REMARK VINA RESULT:    -7.562      3.132      4.376
REMARK INTER + INTRA:         -11.641
REMARK INTER:                 -10.316
REMARK INTRA:                  -1.324
REMARK UNBOUND:                -0.985
REMARK  Name = 
REMARK  7 active torsions:
REMARK  status: ('A' for Active; 'I' for Inactive)
REMARK    1  A    between atoms: C_2  and  C_21
REMARK    2  A    between atoms: N_3  and  C_4
REMARK    3  A    between atoms: C_4  and  C_5
REMARK    4  A    between atoms: C_8  and  N_9
REMARK    5  A    between atoms: N_9  and  C_10
REMARK    6  A    between atoms: C_10  and  C_11
REMARK    7  A    between atoms: C_11  and  C_12
REMARK                            x       y       z     vdW  Elec       q    Type
REMARK                         _______ _______ _______ _____ _____    ______ ____
ROOT
ATOM      1  C   UNL     1      47.760   5.064  15.518  0.00  0.00    +0.000 A 
ATOM      2  C   UNL     1      46.935   4.135  14.893  0.00  0.00    +0.000 A 
ATOM      3  C   UNL     1      46.545   4.354  13.573  0.00  0.00    +0.000 A 
ATOM      4  C   UNL     1      46.959   5.504  12.903  0.00  0.00    +0.000 A 
ATOM      5  C   UNL     1      47.871   6.315  13.581  0.00  0.00    +0.000 A 
ATOM      6  N   UNL     1      48.275   6.133  14.862  0.00  0.00    +0.000 NA
ENDROOT
BRANCH   4   7
ATOM      7  N   UNL     1      46.575   5.832  11.597  0.00  0.00    +0.000 N 
ATOM      8  H   UNL     1      46.573   4.998  11.010  0.00  0.00    +0.000 HD
BRANCH   7   9
ATOM      9  C   UNL     1      45.345   6.617  11.442  0.00  0.00    +0.000 C 
BRANCH   9  10
ATOM     10  C   UNL     1      44.177   5.675  11.150  0.00  0.00    +0.000 C 
BRANCH  10  11
ATOM     11  C   UNL     1      44.583   4.596  10.181  0.00  0.00    +0.000 A 
ATOM     12  N   UNL     1      45.319   5.020   9.117  0.00  0.00    +0.000 NA
ATOM     13  C   UNL     1      45.729   4.091   8.224  0.00  0.00    +0.000 A 
ATOM     14  C   UNL     1      45.455   2.741   8.342  0.00  0.00    +0.000 A 
ATOM     15  C   UNL     1      44.712   2.314   9.438  0.00  0.00    +0.000 A 
ATOM     16  C   UNL     1      44.267   3.246  10.374  0.00  0.00    +0.000 A 
ATOM     17 CL   UNL     1      43.359   2.677  11.723  0.00  0.00    +0.000 Cl
ENDBRANCH  10  11
ENDBRANCH   9  10
ENDBRANCH   7   9
ENDBRANCH   4   7
BRANCH   1  18
ATOM     18  C   UNL     1      48.106   4.904  16.977  0.00  0.00    +0.000 C 
BRANCH  18  21
ATOM     19  O   UNL     1      49.488   4.729  19.436  0.00  0.00    +0.000 OA
ATOM     20  C   UNL     1      50.071   4.434  18.395  0.00  0.00    +0.000 C 
ATOM     21  N   UNL     1      49.460   4.454  17.175  0.00  0.00    +0.000 N 
ATOM     22  H   UNL     1      49.979   4.240  16.334  0.00  0.00    +0.000 HD
BRANCH  20  23
ATOM     23  C   UNL     1      51.466   3.984  18.396  0.00  0.00    +0.000 A 
ATOM     24  C   UNL     1      52.475   4.818  18.855  0.00  0.00    +0.000 A 
ATOM     25  S   UNL     1      54.019   4.091  18.830  0.00  0.00    +0.000 S 
ATOM     26  C   UNL     1      53.393   2.651  18.165  0.00  0.00    +0.000 A 
ATOM     27  N   UNL     1      54.203   1.593  17.893  0.00  0.00    +0.000 NA
ATOM     28  C   UNL     1      53.594   0.576  17.373  0.00  0.00    +0.000 A 
ATOM     29  N   UNL     1      52.254   0.528  17.089  0.00  0.00    +0.000 N 
ATOM     30  C   UNL     1      51.401   1.571  17.351  0.00  0.00    +0.000 A 
ATOM     31  O   UNL     1      50.203   1.482  17.099  0.00  0.00    +0.000 OA
ATOM     32  C   UNL     1      52.029   2.730  17.957  0.00  0.00    +0.000 A 
ATOM     33  H   UNL     1      51.839  -0.295  16.681  0.00  0.00    +0.000 HD
ENDBRANCH  20  23
ENDBRANCH  18  21
ENDBRANCH   1  18
TORSDOF 7
ENDMDL
MODEL 5
REMARK VINA RESULT:    -7.542      1.771      2.215
REMARK INTER + INTRA:         -11.612
REMARK INTER:                 -10.854
REMARK INTRA:                  -0.758
REMARK UNBOUND:                -0.985
REMARK  Name = 
REMARK  7 active torsions:
REMARK  status: ('A' for Active; 'I' for Inactive)
REMARK    1  A    between atoms: C_2  and  C_21
REMARK    2  A    between atoms: N_3  and  C_4
REMARK    3  A    between atoms: C_4  and  C_5
REMARK    4  A    between atoms: C_8  and  N_9
REMARK    5  A    between atoms: N_9  and  C_10
REMARK    6  A    between atoms: C_10  and  C_11
REMARK    7  A    between atoms: C_11  and  C_12
REMARK                            x       y       z     vdW  Elec       q    Type
REMARK                         _______ _______ _______ _____ _____    ______ ____
ROOT
ATOM      1  C   UNL     1      46.887   7.830  12.981  0.00  0.00    +0.000 A 
ATOM      2  C   UNL     1      47.210   6.527  12.615  0.00  0.00    +0.000 A 
ATOM      3  C   UNL     1      46.367   5.840  11.743  0.00  0.00    +0.000 A 
ATOM      4  C   UNL     1      45.205   6.446  11.269  0.00  0.00    +0.000 A 
ATOM      5  C   UNL     1      45.032   7.789  11.608  0.00  0.00    +0.000 A 
ATOM      6  N   UNL     1      45.829   8.491  12.450  0.00  0.00    +0.000 NA
ENDROOT
BRANCH   4   7
ATOM      7  N   UNL     1      44.277   5.815  10.433  0.00  0.00    +0.000 N 
ATOM      8  H   UNL     1      44.069   6.405   9.627  0.00  0.00    +0.000 HD
BRANCH   7   9
ATOM      9  C   UNL     1      44.566   4.431  10.042  0.00  0.00    +0.000 C 
BRANCH   9  10
ATOM     10  C   UNL     1      44.517   4.315   8.518  0.00  0.00    +0.000 C 
BRANCH  10  11
ATOM     11  C   UNL     1      45.591   3.388   8.012  0.00  0.00    +0.000 A 
ATOM     12  N   UNL     1      46.587   3.988   7.304  0.00  0.00    +0.000 NA
ATOM     13  C   UNL     1      47.590   3.207   6.842  0.00  0.00    +0.000 A 
ATOM     14  C   UNL     1      47.665   1.844   7.063  0.00  0.00    +0.000 A 
ATOM     15  C   UNL     1      46.649   1.241   7.797  0.00  0.00    +0.000 A 
ATOM     16  C   UNL     1      45.596   2.015   8.282  0.00  0.00    +0.000 A 
ATOM     17 CL   UNL     1      44.363   1.233   9.196  0.00  0.00    +0.000 Cl
ENDBRANCH  10  11
ENDBRANCH   9  10
ENDBRANCH   7   9
ENDBRANCH   4   7
BRANCH   1  18
ATOM     18  C   UNL     1      47.723   8.554  14.006  0.00  0.00    +0.000 C 
BRANCH  18  21
ATOM     19  O   UNL     1      50.227   7.415  14.656  0.00  0.00    +0.000 OA
ATOM     20  C   UNL     1      49.256   7.185  15.373  0.00  0.00    +0.000 C 
ATOM     21  N   UNL     1      48.025   7.731  15.149  0.00  0.00    +0.000 N 
ATOM     22  H   UNL     1      47.240   7.492  15.739  0.00  0.00    +0.000 HD
BRANCH  20  23
ATOM     23  C   UNL     1      49.365   6.341  16.567  0.00  0.00    +0.000 A 
ATOM     24  C   UNL     1      50.225   6.687  17.598  0.00  0.00    +0.000 A 
ATOM     25  S   UNL     1      50.164   5.609  18.921  0.00  0.00    +0.000 S 
ATOM     26  C   UNL     1      49.016   4.623  18.138  0.00  0.00    +0.000 A 
ATOM     27  N   UNL     1      48.524   3.506  18.738  0.00  0.00    +0.000 NA
ATOM     28  C   UNL     1      47.676   2.844  18.019  0.00  0.00    +0.000 A 
ATOM     29  N   UNL     1      47.286   3.192  16.751  0.00  0.00    +0.000 N 
ATOM     30  C   UNL     1      47.754   4.312  16.112  0.00  0.00    +0.000 A 
ATOM     31  O   UNL     1      47.366   4.599  14.983  0.00  0.00    +0.000 OA
ATOM     32  C   UNL     1      48.692   5.104  16.883  0.00  0.00    +0.000 A 
ATOM     33  H   UNL     1      46.621   2.632  16.241  0.00  0.00    +0.000 HD
ENDBRANCH  20  23
ENDBRANCH  18  21
ENDBRANCH   1  18
TORSDOF 7
ENDMDL
MODEL 6
REMARK VINA RESULT:    -7.382      1.391      1.600
REMARK INTER + INTRA:         -11.388
REMARK INTER:                 -10.399
REMARK INTRA:                  -0.989
REMARK UNBOUND:                -0.985
REMARK  Name = 
REMARK  7 active torsions:
REMARK  status: ('A' for Active; 'I' for Inactive)
REMARK    1  A    between atoms: C_2  and  C_21
REMARK    2  A    between atoms: N_3  and  C_4
REMARK    3  A    between atoms: C_4  and  C_5
REMARK    4  A    between atoms: C_8  and  N_9
REMARK    5  A    between atoms: N_9  and  C_10
REMARK    6  A    between atoms: C_10  and  C_11
REMARK    7  A    between atoms: C_11  and  C_12
REMARK                            x       y       z     vdW  Elec       q    Type
REMARK                         _______ _______ _______ _____ _____    ______ ____
ROOT
ATOM      1  C   UNL     1      46.321   6.874  12.872  0.00  0.00    +0.000 A 
ATOM      2  C   UNL     1      45.557   7.018  11.718  0.00  0.00    +0.000 A 
ATOM      3  C   UNL     1      44.750   5.960  11.303  0.00  0.00    +0.000 A 
ATOM      4  C   UNL     1      44.731   4.769  12.026  0.00  0.00    +0.000 A 
ATOM      5  C   UNL     1      45.446   4.767  13.224  0.00  0.00    +0.000 A 
ATOM      6  N   UNL     1      46.240   5.776  13.661  0.00  0.00    +0.000 NA
ENDROOT
BRANCH   4   7
ATOM      7  N   UNL     1      43.992   3.639  11.657  0.00  0.00    +0.000 N 
ATOM      8  H   UNL     1      43.130   3.918  11.189  0.00  0.00    +0.000 HD
BRANCH   7   9
ATOM      9  C   UNL     1      44.704   2.590  10.918  0.00  0.00    +0.000 C 
BRANCH   9  10
ATOM     10  C   UNL     1      44.352   2.690   9.433  0.00  0.00    +0.000 C 
BRANCH  10  11
ATOM     11  C   UNL     1      45.522   2.293   8.572  0.00  0.00    +0.000 A 
ATOM     12  N   UNL     1      45.731   0.952   8.460  0.00  0.00    +0.000 NA
ATOM     13  C   UNL     1      46.756   0.537   7.682  0.00  0.00    +0.000 A 
ATOM     14  C   UNL     1      47.588   1.396   6.987  0.00  0.00    +0.000 A 
ATOM     15  C   UNL     1      47.361   2.763   7.097  0.00  0.00    +0.000 A 
ATOM     16  C   UNL     1      46.317   3.227   7.897  0.00  0.00    +0.000 A 
ATOM     17 CL   UNL     1      46.062   4.927   8.000  0.00  0.00    +0.000 Cl
ENDBRANCH  10  11
ENDBRANCH   9  10
ENDBRANCH   7   9
ENDBRANCH   4   7
BRANCH   1  18
ATOM     18  C   UNL     1      47.283   7.961  13.279  0.00  0.00    +0.000 C 
BRANCH  18  21
ATOM     19  O   UNL     1      49.617   6.746  14.311  0.00  0.00    +0.000 OA
ATOM     20  C   UNL     1      48.794   7.227  15.087  0.00  0.00    +0.000 C 
ATOM     21  N   UNL     1      47.665   7.866  14.666  0.00  0.00    +0.000 N 
ATOM     22  H   UNL     1      46.991   8.218  15.332  0.00  0.00    +0.000 HD
BRANCH  20  23
ATOM     23  C   UNL     1      48.997   7.195  16.539  0.00  0.00    +0.000 A 
ATOM     24  C   UNL     1      49.406   8.333  17.218  0.00  0.00    +0.000 A 
ATOM     25  S   UNL     1      49.529   8.107  18.905  0.00  0.00    +0.000 S 
ATOM     26  C   UNL     1      49.078   6.468  18.777  0.00  0.00    +0.000 A 
ATOM     27  N   UNL     1      48.983   5.677  19.879  0.00  0.00    +0.000 NA
ATOM     28  C   UNL     1      48.651   4.452  19.629  0.00  0.00    +0.000 A 
ATOM     29  N   UNL     1      48.421   3.944  18.376  0.00  0.00    +0.000 N 
ATOM     30  C   UNL     1      48.502   4.708  17.238  0.00  0.00    +0.000 A 
ATOM     31  O   UNL     1      48.269   4.221  16.136  0.00  0.00    +0.000 OA
ATOM     32  C   UNL     1      48.848   6.098  17.465  0.00  0.00    +0.000 A 
ATOM     33  H   UNL     1      48.167   2.978  18.246  0.00  0.00    +0.000 HD
ENDBRANCH  20  23
ENDBRANCH  18  21
ENDBRANCH   1  18
TORSDOF 7
ENDMDL
MODEL 7
REMARK VINA RESULT:    -7.360      3.687      8.831
REMARK INTER + INTRA:         -11.356
REMARK INTER:                  -9.796
REMARK INTRA:                  -1.560
REMARK UNBOUND:                -0.985
REMARK  Name = 
REMARK  7 active torsions:
REMARK  status: ('A' for Active; 'I' for Inactive)
REMARK    1  A    between atoms: C_2  and  C_21
REMARK    2  A    between atoms: N_3  and  C_4
REMARK    3  A    between atoms: C_4  and  C_5
REMARK    4  A    between atoms: C_8  and  N_9
REMARK    5  A    between atoms: N_9  and  C_10
REMARK    6  A    between atoms: C_10  and  C_11
REMARK    7  A    between atoms: C_11  and  C_12
REMARK                            x       y       z     vdW  Elec       q    Type
REMARK                         _______ _______ _______ _____ _____    ______ ____
ROOT
ATOM      1  C   UNL     1      48.305   7.898  13.510  0.00  0.00    +0.000 A 
ATOM      2  C   UNL     1      47.927   8.960  14.325  0.00  0.00    +0.000 A 
ATOM      3  C   UNL     1      48.336   8.971  15.657  0.00  0.00    +0.000 A 
ATOM      4  C   UNL     1      49.092   7.917  16.167  0.00  0.00    +0.000 A 
ATOM      5  C   UNL     1      49.509   6.959  15.242  0.00  0.00    +0.000 A 
ATOM      6  N   UNL     1      49.134   6.915  13.939  0.00  0.00    +0.000 NA
ENDROOT
BRANCH   4   7
ATOM      7  N   UNL     1      49.502   7.819  17.501  0.00  0.00    +0.000 N 
ATOM      8  H   UNL     1      48.705   7.613  18.102  0.00  0.00    +0.000 HD
BRANCH   7   9
ATOM      9  C   UNL     1      50.645   6.942  17.783  0.00  0.00    +0.000 C 
BRANCH   9  10
ATOM     10  C   UNL     1      50.239   5.905  18.832  0.00  0.00    +0.000 C 
BRANCH  10  11
ATOM     11  C   UNL     1      49.318   4.871  18.241  0.00  0.00    +0.000 A 
ATOM     12  N   UNL     1      47.995   5.194  18.262  0.00  0.00    +0.000 NA
ATOM     13  C   UNL     1      47.123   4.311  17.726  0.00  0.00    +0.000 A 
ATOM     14  C   UNL     1      47.501   3.113  17.147  0.00  0.00    +0.000 A 
ATOM     15  C   UNL     1      48.855   2.797  17.118  0.00  0.00    +0.000 A 
ATOM     16  C   UNL     1      49.782   3.681  17.669  0.00  0.00    +0.000 A 
ATOM     17 CL   UNL     1      51.450   3.257  17.605  0.00  0.00    +0.000 Cl
ENDBRANCH  10  11
ENDBRANCH   9  10
ENDBRANCH   7   9
ENDBRANCH   4   7
BRANCH   1  18
ATOM     18  C   UNL     1      47.785   7.808  12.098  0.00  0.00    +0.000 C 
BRANCH  18  21
ATOM     19  O   UNL     1      44.969   7.633  11.936  0.00  0.00    +0.000 OA
ATOM     20  C   UNL     1      45.642   6.609  11.846  0.00  0.00    +0.000 C 
ATOM     21  N   UNL     1      47.007   6.616  11.873  0.00  0.00    +0.000 N 
ATOM     22  H   UNL     1      47.529   5.752  11.832  0.00  0.00    +0.000 HD
BRANCH  20  23
ATOM     23  C   UNL     1      45.022   5.295  11.647  0.00  0.00    +0.000 A 
ATOM     24  C   UNL     1      44.353   4.668  12.687  0.00  0.00    +0.000 A 
ATOM     25  S   UNL     1      43.652   3.177  12.240  0.00  0.00    +0.000 S 
ATOM     26  C   UNL     1      44.256   3.304  10.651  0.00  0.00    +0.000 A 
ATOM     27  N   UNL     1      44.009   2.338   9.726  0.00  0.00    +0.000 NA
ATOM     28  C   UNL     1      44.546   2.558   8.570  0.00  0.00    +0.000 A 
ATOM     29  N   UNL     1      45.318   3.648   8.260  0.00  0.00    +0.000 N 
ATOM     30  C   UNL     1      45.588   4.647   9.162  0.00  0.00    +0.000 A 
ATOM     31  O   UNL     1      46.268   5.617   8.840  0.00  0.00    +0.000 OA
ATOM     32  C   UNL     1      44.989   4.462  10.470  0.00  0.00    +0.000 A 
ATOM     33  H   UNL     1      45.711   3.761   7.339  0.00  0.00    +0.000 HD
ENDBRANCH  20  23
ENDBRANCH  18  21
ENDBRANCH   1  18
TORSDOF 7
ENDMDL
MODEL 8
REMARK VINA RESULT:    -7.078      2.398      3.761
REMARK INTER + INTRA:         -10.958
REMARK INTER:                  -9.735
REMARK INTRA:                  -1.224
REMARK UNBOUND:                -0.985
REMARK  Name = 
REMARK  7 active torsions:
REMARK  status: ('A' for Active; 'I' for Inactive)
REMARK    1  A    between atoms: C_2  and  C_21
REMARK    2  A    between atoms: N_3  and  C_4
REMARK    3  A    between atoms: C_4  and  C_5
REMARK    4  A    between atoms: C_8  and  N_9
REMARK    5  A    between atoms: N_9  and  C_10
REMARK    6  A    between atoms: C_10  and  C_11
REMARK    7  A    between atoms: C_11  and  C_12
REMARK                            x       y       z     vdW  Elec       q    Type
REMARK                         _______ _______ _______ _____ _____    ______ ____
ROOT
ATOM      1  C   UNL     1      47.222   4.702  15.258  0.00  0.00    +0.000 A 
ATOM      2  C   UNL     1      47.727   5.915  14.801  0.00  0.00    +0.000 A 
ATOM      3  C   UNL     1      47.408   6.339  13.512  0.00  0.00    +0.000 A 
ATOM      4  C   UNL     1      46.615   5.542  12.688  0.00  0.00    +0.000 A 
ATOM      5  C   UNL     1      46.071   4.400  13.279  0.00  0.00    +0.000 A 
ATOM      6  N   UNL     1      46.356   3.957  14.529  0.00  0.00    +0.000 NA
ENDROOT
BRANCH   4   7
ATOM      7  N   UNL     1      46.287   5.863  11.366  0.00  0.00    +0.000 N 
ATOM      8  H   UNL     1      46.365   5.037  10.772  0.00  0.00    +0.000 HD
BRANCH   7   9
ATOM      9  C   UNL     1      45.024   6.579  11.149  0.00  0.00    +0.000 C 
BRANCH   9  10
ATOM     10  C   UNL     1      43.928   5.574  10.794  0.00  0.00    +0.000 C 
BRANCH  10  11
ATOM     11  C   UNL     1      44.466   4.473   9.918  0.00  0.00    +0.000 A 
ATOM     12  N   UNL     1      45.200   4.889   8.851  0.00  0.00    +0.000 NA
ATOM     13  C   UNL     1      45.727   3.943   8.041  0.00  0.00    +0.000 A 
ATOM     14  C   UNL     1      45.572   2.584   8.247  0.00  0.00    +0.000 A 
ATOM     15  C   UNL     1      44.830   2.167   9.347  0.00  0.00    +0.000 A 
ATOM     16  C   UNL     1      44.266   3.117  10.199  0.00  0.00    +0.000 A 
ATOM     17 CL   UNL     1      43.363   2.560  11.556  0.00  0.00    +0.000 Cl
ENDBRANCH  10  11
ENDBRANCH   9  10
ENDBRANCH   7   9
ENDBRANCH   4   7
BRANCH   1  18
ATOM     18  C   UNL     1      47.641   4.171  16.605  0.00  0.00    +0.000 C 
BRANCH  18  21
ATOM     19  O   UNL     1      49.631   5.608  18.006  0.00  0.00    +0.000 OA
ATOM     20  C   UNL     1      48.451   5.754  18.317  0.00  0.00    +0.000 C 
ATOM     21  N   UNL     1      47.431   5.127  17.662  0.00  0.00    +0.000 N 
ATOM     22  H   UNL     1      46.474   5.242  17.967  0.00  0.00    +0.000 HD
BRANCH  20  23
ATOM     23  C   UNL     1      48.047   6.663  19.394  0.00  0.00    +0.000 A 
ATOM     24  C   UNL     1      47.853   6.187  20.682  0.00  0.00    +0.000 A 
ATOM     25  S   UNL     1      47.442   7.410  21.801  0.00  0.00    +0.000 S 
ATOM     26  C   UNL     1      47.470   8.608  20.589  0.00  0.00    +0.000 A 
ATOM     27  N   UNL     1      47.205   9.909  20.882  0.00  0.00    +0.000 NA
ATOM     28  C   UNL     1      47.243  10.703  19.861  0.00  0.00    +0.000 A 
ATOM     29  N   UNL     1      47.508  10.311  18.574  0.00  0.00    +0.000 N 
ATOM     30  C   UNL     1      47.785   9.010  18.236  0.00  0.00    +0.000 A 
ATOM     31  O   UNL     1      48.036   8.703  17.075  0.00  0.00    +0.000 OA
ATOM     32  C   UNL     1      47.779   8.080  19.349  0.00  0.00    +0.000 A 
ATOM     33  H   UNL     1      47.521  10.980  17.820  0.00  0.00    +0.000 HD
ENDBRANCH  20  23
ENDBRANCH  18  21
ENDBRANCH   1  18
TORSDOF 7
ENDMDL
MODEL 9
REMARK VINA RESULT:    -7.034      4.031      8.451
REMARK INTER + INTRA:         -10.897
REMARK INTER:                  -9.435
REMARK INTRA:                  -1.462
REMARK UNBOUND:                -0.985
REMARK  Name = 
REMARK  7 active torsions:
REMARK  status: ('A' for Active; 'I' for Inactive)
REMARK    1  A    between atoms: C_2  and  C_21
REMARK    2  A    between atoms: N_3  and  C_4
REMARK    3  A    between atoms: C_4  and  C_5
REMARK    4  A    between atoms: C_8  and  N_9
REMARK    5  A    between atoms: N_9  and  C_10
REMARK    6  A    between atoms: C_10  and  C_11
REMARK    7  A    between atoms: C_11  and  C_12
REMARK                            x       y       z     vdW  Elec       q    Type
REMARK                         _______ _______ _______ _____ _____    ______ ____
ROOT
ATOM      1  C   UNL     1      48.674   7.757  13.506  0.00  0.00    +0.000 A 
ATOM      2  C   UNL     1      48.871   8.864  14.325  0.00  0.00    +0.000 A 
ATOM      3  C   UNL     1      48.917   8.685  15.707  0.00  0.00    +0.000 A 
ATOM      4  C   UNL     1      48.742   7.416  16.255  0.00  0.00    +0.000 A 
ATOM      5  C   UNL     1      48.662   6.360  15.345  0.00  0.00    +0.000 A 
ATOM      6  N   UNL     1      48.616   6.494  13.996  0.00  0.00    +0.000 NA
ENDROOT
BRANCH   4   7
ATOM      7  N   UNL     1      48.721   7.150  17.629  0.00  0.00    +0.000 N 
ATOM      8  H   UNL     1      47.962   6.507  17.853  0.00  0.00    +0.000 HD
BRANCH   7   9
ATOM      9  C   UNL     1      49.988   6.742  18.247  0.00  0.00    +0.000 C 
BRANCH   9  10
ATOM     10  C   UNL     1      49.751   5.510  19.120  0.00  0.00    +0.000 C 
BRANCH  10  11
ATOM     11  C   UNL     1      49.373   4.317  18.282  0.00  0.00    +0.000 A 
ATOM     12  N   UNL     1      48.039   4.163  18.063  0.00  0.00    +0.000 NA
ATOM     13  C   UNL     1      47.643   3.120  17.299  0.00  0.00    +0.000 A 
ATOM     14  C   UNL     1      48.516   2.218  16.719  0.00  0.00    +0.000 A 
ATOM     15  C   UNL     1      49.878   2.391  16.937  0.00  0.00    +0.000 A 
ATOM     16  C   UNL     1      50.322   3.451  17.727  0.00  0.00    +0.000 A 
ATOM     17 CL   UNL     1      52.018   3.636  17.965  0.00  0.00    +0.000 Cl
ENDBRANCH  10  11
ENDBRANCH   9  10
ENDBRANCH   7   9
ENDBRANCH   4   7
BRANCH   1  18
ATOM     18  C   UNL     1      48.512   7.939  12.018  0.00  0.00    +0.000 C 
BRANCH  18  21
ATOM     19  O   UNL     1      45.693   7.884  11.830  0.00  0.00    +0.000 OA
ATOM     20  C   UNL     1      46.344   6.932  11.404  0.00  0.00    +0.000 C 
ATOM     21  N   UNL     1      47.708   6.903  11.422  0.00  0.00    +0.000 N 
ATOM     22  H   UNL     1      48.212   6.089  11.096  0.00  0.00    +0.000 HD
BRANCH  20  23
ATOM     23  C   UNL     1      45.695   5.769  10.791  0.00  0.00    +0.000 A 
ATOM     24  C   UNL     1      45.826   5.525   9.432  0.00  0.00    +0.000 A 
ATOM     25  S   UNL     1      45.047   4.095   8.922  0.00  0.00    +0.000 S 
ATOM     26  C   UNL     1      44.475   3.778  10.496  0.00  0.00    +0.000 A 
ATOM     27  N   UNL     1      43.724   2.675  10.762  0.00  0.00    +0.000 NA
ATOM     28  C   UNL     1      43.343   2.575  11.995  0.00  0.00    +0.000 A 
ATOM     29  N   UNL     1      43.634   3.483  12.980  0.00  0.00    +0.000 N 
ATOM     30  C   UNL     1      44.392   4.605  12.756  0.00  0.00    +0.000 A 
ATOM     31  O   UNL     1      44.646   5.384  13.669  0.00  0.00    +0.000 OA
ATOM     32  C   UNL     1      44.865   4.755  11.393  0.00  0.00    +0.000 A 
ATOM     33  H   UNL     1      43.306   3.348  13.923  0.00  0.00    +0.000 HD
ENDBRANCH  20  23
ENDBRANCH  18  21
ENDBRANCH   1  18
TORSDOF 7
ENDMDL
