MODEL 1
REMARK VINA RESULT:    -8.446      0.000      0.000
REMARK INTER + INTRA:         -12.207
REMARK INTER:                 -11.408
REMARK INTRA:                  -0.799
REMARK UNBOUND:                -0.799
REMARK  Name = 
REMARK  6 active torsions:
REMARK  status: ('A' for Active; 'I' for Inactive)
REMARK    1  A    between atoms: C_2  and  C_4
REMARK    2  A    between atoms: C_7  and  N_8
REMARK    3  A    between atoms: N_8  and  C_9
REMARK    4  A    between atoms: C_9  and  C_10
REMARK    5  A    between atoms: C_10  and  C_11
REMARK    6  A    between atoms: C_15  and  C_16
REMARK                            x       y       z     vdW  Elec       q    Type
REMARK                         _______ _______ _______ _____ _____    ______ ____
ROOT
ATOM      1  C   UNL     1      45.646   6.992  12.648  0.00  0.00    +0.000 C 
ENDROOT
BRANCH   1   2
ATOM      2  N   UNL     1      46.867   6.197  12.476  0.00  0.00    +0.000 N 
ATOM      3  H   UNL     1      47.670   6.772  12.234  0.00  0.00    +0.000 HD
BRANCH   2   7
ATOM      4  C   UNL     1      47.726   3.729  15.656  0.00  0.00    +0.000 A 
ATOM      5  C   UNL     1      47.959   5.091  15.738  0.00  0.00    +0.000 A 
ATOM      6  N   UNL     1      47.699   5.940  14.707  0.00  0.00    +0.000 NA
ATOM      7  C   UNL     1      47.197   5.391  13.580  0.00  0.00    +0.000 A 
ATOM      8  C   UNL     1      46.963   4.008  13.523  0.00  0.00    +0.000 A 
ATOM      9  N   UNL     1      47.223   3.141  14.537  0.00  0.00    +0.000 NA
BRANCH   4  11
ATOM     10  N   UNL     1      47.021   2.738  17.750  0.00  0.00    +0.000 N 
ATOM     11  C   UNL     1      48.024   2.858  16.825  0.00  0.00    +0.000 C 
ATOM     12  O   UNL     1      49.095   2.282  16.958  0.00  0.00    +0.000 OA
ATOM     13  H   UNL     1      47.166   2.166  18.569  0.00  0.00    +0.000 HD
ATOM     14  H   UNL     1      46.143   3.227  17.615  0.00  0.00    +0.000 HD
ENDBRANCH   4  11
ENDBRANCH   2   7
ENDBRANCH   1   2
BRANCH   1  15
ATOM     15  C   UNL     1      44.776   6.873  11.389  0.00  0.00    +0.000 C 
BRANCH  15  16
ATOM     16  C   UNL     1      44.555   5.444  10.965  0.00  0.00    +0.000 A 
ATOM     17  C   UNL     1      43.660   4.622  11.645  0.00  0.00    +0.000 A 
ATOM     18  C   UNL     1      43.510   3.314  11.217  0.00  0.00    +0.000 A 
ATOM     19  N   UNL     1      44.178   2.781  10.170  0.00  0.00    +0.000 NA
ATOM     20  C   UNL     1      45.040   3.581   9.493  0.00  0.00    +0.000 A 
ATOM     21  C   UNL     1      45.245   4.911   9.869  0.00  0.00    +0.000 A 
BRANCH  20  22
ATOM     22  C   UNL     1      45.762   2.952   8.365  0.00  0.00    +0.000 A 
ATOM     23  C   UNL     1      46.133   3.676   7.216  0.00  0.00    +0.000 A 
ATOM     24  C   UNL     1      46.849   3.076   6.174  0.00  0.00    +0.000 A 
ATOM     25  C   UNL     1      47.202   1.733   6.254  0.00  0.00    +0.000 A 
ATOM     26  C   UNL     1      46.831   0.987   7.368  0.00  0.00    +0.000 A 
ATOM     27  C   UNL     1      46.117   1.591   8.409  0.00  0.00    +0.000 A 
ENDBRANCH  20  22
ENDBRANCH  15  16
ENDBRANCH   1  15
TORSDOF 6
ENDMDL
MODEL 2
REMARK VINA RESULT:    -8.427      3.360      6.975
REMARK INTER + INTRA:         -12.182
REMARK INTER:                 -11.320
REMARK INTRA:                  -0.862
REMARK UNBOUND:                -0.799
REMARK  Name = 
REMARK  6 active torsions:
REMARK  status: ('A' for Active; 'I' for Inactive)
REMARK    1  A    between atoms: C_2  and  C_4
REMARK    2  A    between atoms: C_7  and  N_8
REMARK    3  A    between atoms: N_8  and  C_9
REMARK    4  A    between atoms: C_9  and  C_10
REMARK    5  A    between atoms: C_10  and  C_11
REMARK    6  A    between atoms: C_15  and  C_16
REMARK                            x       y       z     vdW  Elec       q    Type
REMARK                         _______ _______ _______ _____ _____    ______ ____
ROOT
ATOM      1  C   UNL     1      43.441   4.238  11.220  0.00  0.00    +0.000 C 
ENDROOT
BRANCH   1   2
ATOM      2  N   UNL     1      43.753   4.818   9.909  0.00  0.00    +0.000 N 
ATOM      3  H   UNL     1      44.098   5.772   9.983  0.00  0.00    +0.000 HD
BRANCH   2   7
ATOM      4  C   UNL     1      46.392   2.496   7.769  0.00  0.00    +0.000 A 
ATOM      5  C   UNL     1      46.333   3.864   7.567  0.00  0.00    +0.000 A 
ATOM      6  N   UNL     1      45.469   4.666   8.245  0.00  0.00    +0.000 NA
ATOM      7  C   UNL     1      44.655   4.063   9.139  0.00  0.00    +0.000 A 
ATOM      8  C   UNL     1      44.737   2.675   9.331  0.00  0.00    +0.000 A 
ATOM      9  N   UNL     1      45.587   1.854   8.659  0.00  0.00    +0.000 NA
BRANCH   4  11
ATOM     10  N   UNL     1      48.440   2.358   6.484  0.00  0.00    +0.000 N 
ATOM     11  C   UNL     1      47.369   1.678   6.999  0.00  0.00    +0.000 C 
ATOM     12  O   UNL     1      47.230   0.474   6.835  0.00  0.00    +0.000 OA
ATOM     13  H   UNL     1      49.134   1.859   5.947  0.00  0.00    +0.000 HD
ATOM     14  H   UNL     1      48.529   3.357   6.635  0.00  0.00    +0.000 HD
ENDBRANCH   4  11
ENDBRANCH   2   7
ENDBRANCH   1   2
BRANCH   1  15
ATOM     15  C   UNL     1      43.675   5.290  12.313  0.00  0.00    +0.000 C 
BRANCH  15  16
ATOM     16  C   UNL     1      45.125   5.412  12.705  0.00  0.00    +0.000 A 
ATOM     17  C   UNL     1      45.727   4.473  13.539  0.00  0.00    +0.000 A 
ATOM     18  C   UNL     1      47.059   4.648  13.874  0.00  0.00    +0.000 A 
ATOM     19  N   UNL     1      47.819   5.675  13.436  0.00  0.00    +0.000 NA
ATOM     20  C   UNL     1      47.243   6.585  12.610  0.00  0.00    +0.000 A 
ATOM     21  C   UNL     1      45.903   6.476  12.231  0.00  0.00    +0.000 A 
BRANCH  20  22
ATOM     22  C   UNL     1      48.108   7.702  12.168  0.00  0.00    +0.000 A 
ATOM     23  C   UNL     1      47.650   9.032  12.127  0.00  0.00    +0.000 A 
ATOM     24  C   UNL     1      48.491  10.083  11.743  0.00  0.00    +0.000 A 
ATOM     25  C   UNL     1      49.809   9.824  11.382  0.00  0.00    +0.000 A 
ATOM     26  C   UNL     1      50.284   8.516  11.393  0.00  0.00    +0.000 A 
ATOM     27  C   UNL     1      49.440   7.469  11.779  0.00  0.00    +0.000 A 
ENDBRANCH  20  22
ENDBRANCH  15  16
ENDBRANCH   1  15
TORSDOF 6
ENDMDL
MODEL 3
REMARK VINA RESULT:    -8.238      2.851      7.885
REMARK INTER + INTRA:         -11.927
REMARK INTER:                 -11.266
REMARK INTRA:                  -0.661
REMARK UNBOUND:                -0.799
REMARK  Name = 
REMARK  6 active torsions:
REMARK  status: ('A' for Active; 'I' for Inactive)
REMARK    1  A    between atoms: C_2  and  C_4
REMARK    2  A    between atoms: C_7  and  N_8
REMARK    3  A    between atoms: N_8  and  C_9
REMARK    4  A    between atoms: C_9  and  C_10
REMARK    5  A    between atoms: C_10  and  C_11
REMARK    6  A    between atoms: C_15  and  C_16
REMARK                            x       y       z     vdW  Elec       q    Type
REMARK                         _______ _______ _______ _____ _____    ______ ____
ROOT
ATOM      1  C   UNL     1      44.440   5.579  10.932  0.00  0.00    +0.000 C 
ENDROOT
BRANCH   1   2
ATOM      2  N   UNL     1      43.817   4.768   9.880  0.00  0.00    +0.000 N 
ATOM      3  H   UNL     1      43.219   5.322   9.271  0.00  0.00    +0.000 HD
BRANCH   2   7
ATOM      4  C   UNL     1      46.470   2.520   7.678  0.00  0.00    +0.000 A 
ATOM      5  C   UNL     1      46.443   3.899   7.555  0.00  0.00    +0.000 A 
ATOM      6  N   UNL     1      45.576   4.678   8.257  0.00  0.00    +0.000 NA
ATOM      7  C   UNL     1      44.726   4.041   9.091  0.00  0.00    +0.000 A 
ATOM      8  C   UNL     1      44.776   2.643   9.204  0.00  0.00    +0.000 A 
ATOM      9  N   UNL     1      45.628   1.844   8.507  0.00  0.00    +0.000 NA
BRANCH   4  11
ATOM     10  N   UNL     1      48.528   2.424   6.407  0.00  0.00    +0.000 N 
ATOM     11  C   UNL     1      47.452   1.729   6.888  0.00  0.00    +0.000 C 
ATOM     12  O   UNL     1      47.313   0.531   6.680  0.00  0.00    +0.000 OA
ATOM     13  H   UNL     1      49.226   1.943   5.857  0.00  0.00    +0.000 HD
ATOM     14  H   UNL     1      48.618   3.417   6.593  0.00  0.00    +0.000 HD
ENDBRANCH   4  11
ENDBRANCH   2   7
ENDBRANCH   1   2
BRANCH   1  15
ATOM     15  C   UNL     1      44.834   4.676  12.109  0.00  0.00    +0.000 C 
BRANCH  15  16
ATOM     16  C   UNL     1      46.050   5.175  12.846  0.00  0.00    +0.000 A 
ATOM     17  C   UNL     1      46.886   6.138  12.286  0.00  0.00    +0.000 A 
ATOM     18  C   UNL     1      47.996   6.546  13.006  0.00  0.00    +0.000 A 
ATOM     19  N   UNL     1      48.318   6.072  14.230  0.00  0.00    +0.000 NA
ATOM     20  C   UNL     1      47.498   5.145  14.788  0.00  0.00    +0.000 A 
ATOM     21  C   UNL     1      46.363   4.683  14.120  0.00  0.00    +0.000 A 
BRANCH  20  22
ATOM     22  C   UNL     1      47.899   4.641  16.121  0.00  0.00    +0.000 A 
ATOM     23  C   UNL     1      47.328   3.486  16.687  0.00  0.00    +0.000 A 
ATOM     24  C   UNL     1      47.744   3.000  17.932  0.00  0.00    +0.000 A 
ATOM     25  C   UNL     1      48.736   3.667  18.643  0.00  0.00    +0.000 A 
ATOM     26  C   UNL     1      49.304   4.823  18.119  0.00  0.00    +0.000 A 
ATOM     27  C   UNL     1      48.886   5.304  16.873  0.00  0.00    +0.000 A 
ENDBRANCH  20  22
ENDBRANCH  15  16
ENDBRANCH   1  15
TORSDOF 6
ENDMDL
MODEL 4
REMARK VINA RESULT:    -7.580      1.683      2.479
REMARK INTER + INTRA:         -11.038
REMARK INTER:                 -10.468
REMARK INTRA:                  -0.570
REMARK UNBOUND:                -0.799
REMARK  Name = 
REMARK  6 active torsions:
REMARK  status: ('A' for Active; 'I' for Inactive)
REMARK    1  A    between atoms: C_2  and  C_4
REMARK    2  A    between atoms: C_7  and  N_8
REMARK    3  A    between atoms: N_8  and  C_9
REMARK    4  A    between atoms: C_9  and  C_10
REMARK    5  A    between atoms: C_10  and  C_11
REMARK    6  A    between atoms: C_15  and  C_16
REMARK                            x       y       z     vdW  Elec       q    Type
REMARK                         _______ _______ _______ _____ _____    ______ ____
ROOT
ATOM      1  C   UNL     1      46.583   4.997  13.724  0.00  0.00    +0.000 C 
ENDROOT
BRANCH   1   2
ATOM      2  N   UNL     1      46.355   4.629  15.126  0.00  0.00    +0.000 N 
ATOM      3  H   UNL     1      45.565   3.997  15.234  0.00  0.00    +0.000 HD
BRANCH   2   7
ATOM      4  C   UNL     1      49.700   3.156  17.018  0.00  0.00    +0.000 A 
ATOM      5  C   UNL     1      48.885   2.319  16.274  0.00  0.00    +0.000 A 
ATOM      6  N   UNL     1      47.766   2.763  15.641  0.00  0.00    +0.000 NA
ATOM      7  C   UNL     1      47.475   4.076  15.772  0.00  0.00    +0.000 A 
ATOM      8  C   UNL     1      48.319   4.906  16.526  0.00  0.00    +0.000 A 
ATOM      9  N   UNL     1      49.438   4.482  17.172  0.00  0.00    +0.000 NA
BRANCH   4  11
ATOM     10  N   UNL     1      51.075   1.249  17.597  0.00  0.00    +0.000 N 
ATOM     11  C   UNL     1      50.917   2.607  17.676  0.00  0.00    +0.000 C 
ATOM     12  O   UNL     1      51.729   3.319  18.250  0.00  0.00    +0.000 OA
ATOM     13  H   UNL     1      51.878   0.816  18.030  0.00  0.00    +0.000 HD
ATOM     14  H   UNL     1      50.386   0.683  17.115  0.00  0.00    +0.000 HD
ENDBRANCH   4  11
ENDBRANCH   2   7
ENDBRANCH   1   2
BRANCH   1  15
ATOM     15  C   UNL     1      45.247   5.376  13.071  0.00  0.00    +0.000 C 
BRANCH  15  16
ATOM     16  C   UNL     1      44.755   4.334  12.099  0.00  0.00    +0.000 A 
ATOM     17  C   UNL     1      43.619   3.576  12.372  0.00  0.00    +0.000 A 
ATOM     18  C   UNL     1      43.225   2.624  11.447  0.00  0.00    +0.000 A 
ATOM     19  N   UNL     1      43.874   2.385  10.286  0.00  0.00    +0.000 NA
ATOM     20  C   UNL     1      44.973   3.131  10.007  0.00  0.00    +0.000 A 
ATOM     21  C   UNL     1      45.432   4.108  10.894  0.00  0.00    +0.000 A 
BRANCH  20  22
ATOM     22  C   UNL     1      45.662   2.824   8.734  0.00  0.00    +0.000 A 
ATOM     23  C   UNL     1      46.106   1.527   8.417  0.00  0.00    +0.000 A 
ATOM     24  C   UNL     1      46.722   1.245   7.192  0.00  0.00    +0.000 A 
ATOM     25  C   UNL     1      46.916   2.259   6.260  0.00  0.00    +0.000 A 
ATOM     26  C   UNL     1      46.506   3.555   6.555  0.00  0.00    +0.000 A 
ATOM     27  C   UNL     1      45.889   3.832   7.780  0.00  0.00    +0.000 A 
ENDBRANCH  20  22
ENDBRANCH  15  16
ENDBRANCH   1  15
TORSDOF 6
ENDMDL
MODEL 5
REMARK VINA RESULT:    -7.318      2.187      2.558
REMARK INTER + INTRA:         -10.685
REMARK INTER:                 -10.024
REMARK INTRA:                  -0.660
REMARK UNBOUND:                -0.799
REMARK  Name = 
REMARK  6 active torsions:
REMARK  status: ('A' for Active; 'I' for Inactive)
REMARK    1  A    between atoms: C_2  and  C_4
REMARK    2  A    between atoms: C_7  and  N_8
REMARK    3  A    between atoms: N_8  and  C_9
REMARK    4  A    between atoms: C_9  and  C_10
REMARK    5  A    between atoms: C_10  and  C_11
REMARK    6  A    between atoms: C_15  and  C_16
REMARK                            x       y       z     vdW  Elec       q    Type
REMARK                         _______ _______ _______ _____ _____    ______ ____
ROOT
ATOM      1  C   UNL     1      45.153   7.103  11.332  0.00  0.00    +0.000 C 
ENDROOT
BRANCH   1   2
ATOM      2  N   UNL     1      45.376   8.037  12.440  0.00  0.00    +0.000 N 
ATOM      3  H   UNL     1      44.588   8.067  13.083  0.00  0.00    +0.000 HD
BRANCH   2   7
ATOM      4  C   UNL     1      48.784   7.192  14.588  0.00  0.00    +0.000 A 
ATOM      5  C   UNL     1      48.240   8.465  14.602  0.00  0.00    +0.000 A 
ATOM      6  N   UNL     1      47.121   8.789  13.899  0.00  0.00    +0.000 NA
ATOM      7  C   UNL     1      46.554   7.802  13.172  0.00  0.00    +0.000 A 
ATOM      8  C   UNL     1      47.119   6.517  13.179  0.00  0.00    +0.000 A 
ATOM      9  N   UNL     1      48.240   6.174  13.868  0.00  0.00    +0.000 NA
BRANCH   4  11
ATOM     10  N   UNL     1      51.046   7.775  15.225  0.00  0.00    +0.000 N 
ATOM     11  C   UNL     1      50.004   6.903  15.390  0.00  0.00    +0.000 C 
ATOM     12  O   UNL     1      50.077   5.948  16.152  0.00  0.00    +0.000 OA
ATOM     13  H   UNL     1      51.904   7.628  15.736  0.00  0.00    +0.000 HD
ATOM     14  H   UNL     1      50.959   8.558  14.585  0.00  0.00    +0.000 HD
ENDBRANCH   4  11
ENDBRANCH   2   7
ENDBRANCH   1   2
BRANCH   1  15
ATOM     15  C   UNL     1      43.842   6.340  11.563  0.00  0.00    +0.000 C 
BRANCH  15  16
ATOM     16  C   UNL     1      43.901   4.915  11.073  0.00  0.00    +0.000 A 
ATOM     17  C   UNL     1      43.179   3.906  11.706  0.00  0.00    +0.000 A 
ATOM     18  C   UNL     1      43.286   2.615  11.219  0.00  0.00    +0.000 A 
ATOM     19  N   UNL     1      44.047   2.269  10.157  0.00  0.00    +0.000 NA
ATOM     20  C   UNL     1      44.741   3.250   9.527  0.00  0.00    +0.000 A 
ATOM     21  C   UNL     1      44.685   4.575   9.963  0.00  0.00    +0.000 A 
BRANCH  20  22
ATOM     22  C   UNL     1      45.574   2.823   8.381  0.00  0.00    +0.000 A 
ATOM     23  C   UNL     1      45.851   3.678   7.297  0.00  0.00    +0.000 A 
ATOM     24  C   UNL     1      46.672   3.273   6.238  0.00  0.00    +0.000 A 
ATOM     25  C   UNL     1      47.228   1.998   6.236  0.00  0.00    +0.000 A 
ATOM     26  C   UNL     1      46.955   1.124   7.284  0.00  0.00    +0.000 A 
ATOM     27  C   UNL     1      46.135   1.534   8.341  0.00  0.00    +0.000 A 
ENDBRANCH  20  22
ENDBRANCH  15  16
ENDBRANCH   1  15
TORSDOF 6
ENDMDL
MODEL 6
REMARK VINA RESULT:    -6.915      1.523      1.994
REMARK INTER + INTRA:         -10.139
REMARK INTER:                  -9.553
REMARK INTRA:                  -0.586
REMARK UNBOUND:                -0.799
REMARK  Name = 
REMARK  6 active torsions:
REMARK  status: ('A' for Active; 'I' for Inactive)
REMARK    1  A    between atoms: C_2  and  C_4
REMARK    2  A    between atoms: C_7  and  N_8
REMARK    3  A    between atoms: N_8  and  C_9
REMARK    4  A    between atoms: C_9  and  C_10
REMARK    5  A    between atoms: C_10  and  C_11
REMARK    6  A    between atoms: C_15  and  C_16
REMARK                            x       y       z     vdW  Elec       q    Type
REMARK                         _______ _______ _______ _____ _____    ______ ____
ROOT
ATOM      1  C   UNL     1      47.163   6.431  12.932  0.00  0.00    +0.000 C 
ENDROOT
BRANCH   1   2
ATOM      2  N   UNL     1      47.761   7.109  14.087  0.00  0.00    +0.000 N 
ATOM      3  H   UNL     1      47.197   7.893  14.408  0.00  0.00    +0.000 HD
BRANCH   2   7
ATOM      4  C   UNL     1      48.693   4.733  17.316  0.00  0.00    +0.000 A 
ATOM      5  C   UNL     1      47.934   4.235  16.270  0.00  0.00    +0.000 A 
ATOM      6  N   UNL     1      47.595   4.989  15.190  0.00  0.00    +0.000 NA
ATOM      7  C   UNL     1      48.035   6.266  15.179  0.00  0.00    +0.000 A 
ATOM      8  C   UNL     1      48.809   6.746  16.247  0.00  0.00    +0.000 A 
ATOM      9  N   UNL     1      49.151   6.013  17.340  0.00  0.00    +0.000 NA
BRANCH   4  11
ATOM     10  N   UNL     1      49.691   2.689  18.147  0.00  0.00    +0.000 N 
ATOM     11  C   UNL     1      49.036   3.849  18.463  0.00  0.00    +0.000 C 
ATOM     12  O   UNL     1      48.755   4.136  19.619  0.00  0.00    +0.000 OA
ATOM     13  H   UNL     1      49.944   2.045  18.882  0.00  0.00    +0.000 HD
ATOM     14  H   UNL     1      49.910   2.475  17.181  0.00  0.00    +0.000 HD
ENDBRANCH   4  11
ENDBRANCH   2   7
ENDBRANCH   1   2
BRANCH   1  15
ATOM     15  C   UNL     1      45.664   6.753  12.869  0.00  0.00    +0.000 C 
BRANCH  15  16
ATOM     16  C   UNL     1      44.897   5.792  11.998  0.00  0.00    +0.000 A 
ATOM     17  C   UNL     1      43.548   5.530  12.230  0.00  0.00    +0.000 A 
ATOM     18  C   UNL     1      42.901   4.626  11.405  0.00  0.00    +0.000 A 
ATOM     19  N   UNL     1      43.497   3.982  10.377  0.00  0.00    +0.000 NA
ATOM     20  C   UNL     1      44.806   4.245  10.135  0.00  0.00    +0.000 A 
ATOM     21  C   UNL     1      45.525   5.142  10.928  0.00  0.00    +0.000 A 
BRANCH  20  22
ATOM     22  C   UNL     1      45.422   3.505   9.011  0.00  0.00    +0.000 A 
ATOM     23  C   UNL     1      45.900   4.156   7.859  0.00  0.00    +0.000 A 
ATOM     24  C   UNL     1      46.515   3.446   6.821  0.00  0.00    +0.000 A 
ATOM     25  C   UNL     1      46.655   2.065   6.909  0.00  0.00    +0.000 A 
ATOM     26  C   UNL     1      46.172   1.392   8.027  0.00  0.00    +0.000 A 
ATOM     27  C   UNL     1      45.560   2.106   9.063  0.00  0.00    +0.000 A 
ENDBRANCH  20  22
ENDBRANCH  15  16
ENDBRANCH   1  15
TORSDOF 6
ENDMDL
MODEL 7
REMARK VINA RESULT:    -6.758      2.059      2.806
REMARK INTER + INTRA:          -9.928
REMARK INTER:                  -9.329
REMARK INTRA:                  -0.599
REMARK UNBOUND:                -0.799
REMARK  Name = 
REMARK  6 active torsions:
REMARK  status: ('A' for Active; 'I' for Inactive)
REMARK    1  A    between atoms: C_2  and  C_4
REMARK    2  A    between atoms: C_7  and  N_8
REMARK    3  A    between atoms: N_8  and  C_9
REMARK    4  A    between atoms: C_9  and  C_10
REMARK    5  A    between atoms: C_10  and  C_11
REMARK    6  A    between atoms: C_15  and  C_16
REMARK                            x       y       z     vdW  Elec       q    Type
REMARK                         _______ _______ _______ _____ _____    ______ ____
ROOT
ATOM      1  C   UNL     1      46.944   4.752  13.793  0.00  0.00    +0.000 C 
ENDROOT
BRANCH   1   2
ATOM      2  N   UNL     1      46.854   3.849  14.946  0.00  0.00    +0.000 N 
ATOM      3  H   UNL     1      47.132   2.899  14.714  0.00  0.00    +0.000 HD
BRANCH   2   7
ATOM      4  C   UNL     1      48.845   5.038  18.346  0.00  0.00    +0.000 A 
ATOM      5  C   UNL     1      49.109   5.641  17.128  0.00  0.00    +0.000 A 
ATOM      6  N   UNL     1      48.481   5.272  15.979  0.00  0.00    +0.000 NA
ATOM      7  C   UNL     1      47.575   4.274  16.076  0.00  0.00    +0.000 A 
ATOM      8  C   UNL     1      47.320   3.683  17.323  0.00  0.00    +0.000 A 
ATOM      9  N   UNL     1      47.942   4.030  18.481  0.00  0.00    +0.000 NA
BRANCH   4  11
ATOM     10  N   UNL     1      50.046   6.779  19.527  0.00  0.00    +0.000 N 
ATOM     11  C   UNL     1      49.562   5.499  19.567  0.00  0.00    +0.000 C 
ATOM     12  O   UNL     1      49.711   4.783  20.548  0.00  0.00    +0.000 OA
ATOM     13  H   UNL     1      50.547   7.146  20.322  0.00  0.00    +0.000 HD
ATOM     14  H   UNL     1      49.909   7.350  18.700  0.00  0.00    +0.000 HD
ENDBRANCH   4  11
ENDBRANCH   2   7
ENDBRANCH   1   2
BRANCH   1  15
ATOM     15  C   UNL     1      45.625   5.520  13.639  0.00  0.00    +0.000 C 
BRANCH  15  16
ATOM     16  C   UNL     1      44.895   5.178  12.365  0.00  0.00    +0.000 A 
ATOM     17  C   UNL     1      43.552   5.504  12.196  0.00  0.00    +0.000 A 
ATOM     18  C   UNL     1      42.933   5.151  11.009  0.00  0.00    +0.000 A 
ATOM     19  N   UNL     1      43.555   4.511   9.994  0.00  0.00    +0.000 NA
ATOM     20  C   UNL     1      44.868   4.205  10.146  0.00  0.00    +0.000 A 
ATOM     21  C   UNL     1      45.558   4.527  11.317  0.00  0.00    +0.000 A 
BRANCH  20  22
ATOM     22  C   UNL     1      45.505   3.490   9.018  0.00  0.00    +0.000 A 
ATOM     23  C   UNL     1      45.599   2.087   8.978  0.00  0.00    +0.000 A 
ATOM     24  C   UNL     1      46.169   1.423   7.886  0.00  0.00    +0.000 A 
ATOM     25  C   UNL     1      46.669   2.152   6.811  0.00  0.00    +0.000 A 
ATOM     26  C   UNL     1      46.609   3.542   6.832  0.00  0.00    +0.000 A 
ATOM     27  C   UNL     1      46.036   4.201   7.926  0.00  0.00    +0.000 A 
ENDBRANCH  20  22
ENDBRANCH  15  16
ENDBRANCH   1  15
TORSDOF 6
ENDMDL
MODEL 8
REMARK VINA RESULT:    -6.695      3.801      7.695
REMARK INTER + INTRA:          -9.843
REMARK INTER:                  -9.140
REMARK INTRA:                  -0.703
REMARK UNBOUND:                -0.799
REMARK  Name = 
REMARK  6 active torsions:
REMARK  status: ('A' for Active; 'I' for Inactive)
REMARK    1  A    between atoms: C_2  and  C_4
REMARK    2  A    between atoms: C_7  and  N_8
REMARK    3  A    between atoms: N_8  and  C_9
REMARK    4  A    between atoms: C_9  and  C_10
REMARK    5  A    between atoms: C_10  and  C_11
REMARK    6  A    between atoms: C_15  and  C_16
REMARK                            x       y       z     vdW  Elec       q    Type
REMARK                         _______ _______ _______ _____ _____    ______ ____
ROOT
ATOM      1  C   UNL     1      44.632   4.232  12.168  0.00  0.00    +0.000 C 
ENDROOT
BRANCH   1   2
ATOM      2  N   UNL     1      43.914   4.082  10.897  0.00  0.00    +0.000 N 
ATOM      3  H   UNL     1      43.424   4.933  10.630  0.00  0.00    +0.000 HD
BRANCH   2   7
ATOM      4  C   UNL     1      46.229   2.983   7.677  0.00  0.00    +0.000 A 
ATOM      5  C   UNL     1      45.648   2.023   8.488  0.00  0.00    +0.000 A 
ATOM      6  N   UNL     1      44.884   2.343   9.567  0.00  0.00    +0.000 NA
ATOM      7  C   UNL     1      44.715   3.658   9.822  0.00  0.00    +0.000 A 
ATOM      8  C   UNL     1      45.308   4.614   8.982  0.00  0.00    +0.000 A 
ATOM      9  N   UNL     1      46.081   4.316   7.904  0.00  0.00    +0.000 NA
BRANCH   4  11
ATOM     10  N   UNL     1      48.176   1.847   6.792  0.00  0.00    +0.000 N 
ATOM     11  C   UNL     1      47.045   2.563   6.505  0.00  0.00    +0.000 C 
ATOM     12  O   UNL     1      46.729   2.836   5.355  0.00  0.00    +0.000 OA
ATOM     13  H   UNL     1      48.774   1.540   6.039  0.00  0.00    +0.000 HD
ATOM     14  H   UNL     1      48.415   1.636   7.755  0.00  0.00    +0.000 HD
ENDBRANCH   4  11
ENDBRANCH   2   7
ENDBRANCH   1   2
BRANCH   1  15
ATOM     15  C   UNL     1      44.487   5.674  12.671  0.00  0.00    +0.000 C 
BRANCH  15  16
ATOM     16  C   UNL     1      45.803   6.407  12.729  0.00  0.00    +0.000 A 
ATOM     17  C   UNL     1      46.937   5.806  13.269  0.00  0.00    +0.000 A 
ATOM     18  C   UNL     1      48.114   6.535  13.308  0.00  0.00    +0.000 A 
ATOM     19  N   UNL     1      48.234   7.799  12.847  0.00  0.00    +0.000 NA
ATOM     20  C   UNL     1      47.136   8.385  12.305  0.00  0.00    +0.000 A 
ATOM     21  C   UNL     1      45.914   7.713  12.235  0.00  0.00    +0.000 A 
BRANCH  20  22
ATOM     22  C   UNL     1      47.309   9.776  11.829  0.00  0.00    +0.000 A 
ATOM     23  C   UNL     1      46.241  10.691  11.788  0.00  0.00    +0.000 A 
ATOM     24  C   UNL     1      46.428  12.014  11.371  0.00  0.00    +0.000 A 
ATOM     25  C   UNL     1      47.689  12.448  10.975  0.00  0.00    +0.000 A 
ATOM     26  C   UNL     1      48.759  11.560  10.985  0.00  0.00    +0.000 A 
ATOM     27  C   UNL     1      48.568  10.239  11.405  0.00  0.00    +0.000 A 
ENDBRANCH  20  22
ENDBRANCH  15  16
ENDBRANCH   1  15
TORSDOF 6
ENDMDL
MODEL 9
REMARK VINA RESULT:    -6.588      3.161      3.960
REMARK INTER + INTRA:          -9.699
REMARK INTER:                  -9.103
REMARK INTRA:                  -0.596
REMARK UNBOUND:                -0.799
REMARK  Name = 
REMARK  6 active torsions:
REMARK  status: ('A' for Active; 'I' for Inactive)
REMARK    1  A    between atoms: C_2  and  C_4
REMARK    2  A    between atoms: C_7  and  N_8
REMARK    3  A    between atoms: N_8  and  C_9
REMARK    4  A    between atoms: C_9  and  C_10
REMARK    5  A    between atoms: C_10  and  C_11
REMARK    6  A    between atoms: C_15  and  C_16
REMARK                            x       y       z     vdW  Elec       q    Type
REMARK                         _______ _______ _______ _____ _____    ______ ____
ROOT
ATOM      1  C   UNL     1      46.014   6.597  12.242  0.00  0.00    +0.000 C 
ENDROOT
BRANCH   1   2
ATOM      2  N   UNL     1      46.458   7.504  13.305  0.00  0.00    +0.000 N 
ATOM      3  H   UNL     1      46.214   7.160  14.231  0.00  0.00    +0.000 HD
BRANCH   2   7
ATOM      4  C   UNL     1      50.492   8.293  13.093  0.00  0.00    +0.000 A 
ATOM      5  C   UNL     1      49.805   8.446  14.286  0.00  0.00    +0.000 A 
ATOM      6  N   UNL     1      48.471   8.206  14.397  0.00  0.00    +0.000 NA
ATOM      7  C   UNL     1      47.831   7.807  13.276  0.00  0.00    +0.000 A 
ATOM      8  C   UNL     1      48.549   7.652  12.080  0.00  0.00    +0.000 A 
ATOM      9  N   UNL     1      49.880   7.894  11.945  0.00  0.00    +0.000 NA
BRANCH   4  11
ATOM     10  N   UNL     1      52.667   7.824  12.138  0.00  0.00    +0.000 N 
ATOM     11  C   UNL     1      51.955   8.563  13.044  0.00  0.00    +0.000 C 
ATOM     12  O   UNL     1      52.492   9.392  13.765  0.00  0.00    +0.000 OA
ATOM     13  H   UNL     1      53.665   7.957  12.063  0.00  0.00    +0.000 HD
ATOM     14  H   UNL     1      52.196   7.142  11.553  0.00  0.00    +0.000 HD
ENDBRANCH   4  11
ENDBRANCH   2   7
ENDBRANCH   1   2
BRANCH   1  15
ATOM     15  C   UNL     1      44.730   5.881  12.683  0.00  0.00    +0.000 C 
BRANCH  15  16
ATOM     16  C   UNL     1      44.438   4.648  11.866  0.00  0.00    +0.000 A 
ATOM     17  C   UNL     1      43.453   3.744  12.255  0.00  0.00    +0.000 A 
ATOM     18  C   UNL     1      43.241   2.623  11.471  0.00  0.00    +0.000 A 
ATOM     19  N   UNL     1      43.930   2.350  10.341  0.00  0.00    +0.000 NA
ATOM     20  C   UNL     1      44.881   3.235   9.948  0.00  0.00    +0.000 A 
ATOM     21  C   UNL     1      45.153   4.387  10.690  0.00  0.00    +0.000 A 
BRANCH  20  22
ATOM     22  C   UNL     1      45.622   2.889   8.715  0.00  0.00    +0.000 A 
ATOM     23  C   UNL     1      46.046   1.576   8.440  0.00  0.00    +0.000 A 
ATOM     24  C   UNL     1      46.713   1.257   7.252  0.00  0.00    +0.000 A 
ATOM     25  C   UNL     1      46.980   2.250   6.315  0.00  0.00    +0.000 A 
ATOM     26  C   UNL     1      46.591   3.561   6.568  0.00  0.00    +0.000 A 
ATOM     27  C   UNL     1      45.923   3.875   7.757  0.00  0.00    +0.000 A 
ENDBRANCH  20  22
ENDBRANCH  15  16
ENDBRANCH   1  15
TORSDOF 6
ENDMDL
