MODEL 1
REMARK VINA RESULT:    -7.689      0.000      0.000
REMARK INTER + INTRA:         -11.612
REMARK INTER:                 -10.387
REMARK INTRA:                  -1.225
REMARK UNBOUND:                -1.225
REMARK  Name = 
REMARK  7 active torsions:
REMARK  status: ('A' for Active; 'I' for Inactive)
REMARK    1  A    between atoms: C_1  and  N_2
REMARK    2  A    between atoms: C_4  and  C_5
REMARK    3  A    between atoms: N_7  and  C_8
REMARK    4  A    between atoms: C_8  and  C_9
REMARK    5  A    between atoms: C_12  and  O_13
REMARK    6  A    between atoms: O_13  and  C_14
REMARK    7  A    between atoms: C_14  and  C_15
REMARK                            x       y       z     vdW  Elec       q    Type
REMARK                         _______ _______ _______ _____ _____    ______ ____
ROOT
ATOM      1  C   UNL     1      48.553   6.954  14.641  0.00  0.00    +0.000 C 
ATOM      2  O   UNL     1      49.402   6.877  13.761  0.00  0.00    +0.000 OA
ATOM      3  N   UNL     1      47.319   7.526  14.417  0.00  0.00    +0.000 N 
ATOM      4  H   UNL     1      46.605   7.492  15.130  0.00  0.00    +0.000 HD
ENDROOT
BRANCH   1   8
ATOM      5  C   UNL     1      50.162   6.699  19.357  0.00  0.00    +0.000 C 
ATOM      6  N   UNL     1      49.517   6.359  18.109  0.00  0.00    +0.000 N 
ATOM      7  C   UNL     1      49.453   7.150  16.996  0.00  0.00    +0.000 A 
ATOM      8  C   UNL     1      48.774   6.459  15.998  0.00  0.00    +0.000 A 
ATOM      9  C   UNL     1      48.407   5.181  16.563  0.00  0.00    +0.000 A 
ATOM     10  C   UNL     1      47.732   4.016  16.206  0.00  0.00    +0.000 A 
ATOM     11 CL   UNL     1      46.993   3.845  14.690  0.00  0.00    +0.000 Cl
ATOM     12  N   UNL     1      47.568   2.988  17.058  0.00  0.00    +0.000 NA
ATOM     13  C   UNL     1      48.093   3.124  18.281  0.00  0.00    +0.000 A 
ATOM     14  N   UNL     1      48.763   4.177  18.770  0.00  0.00    +0.000 NA
ATOM     15  C   UNL     1      48.887   5.170  17.870  0.00  0.00    +0.000 A 
ENDBRANCH   1   8
BRANCH   3  16
ATOM     16  C   UNL     1      46.969   7.968  13.088  0.00  0.00    +0.000 C 
BRANCH  16  17
ATOM     17  C   UNL     1      46.289   6.887  12.293  0.00  0.00    +0.000 A 
ATOM     18  C   UNL     1      45.284   6.102  12.875  0.00  0.00    +0.000 A 
ATOM     19  C   UNL     1      44.637   5.102  12.142  0.00  0.00    +0.000 A 
ATOM     20  C   UNL     1      45.000   4.869  10.817  0.00  0.00    +0.000 A 
ATOM     21  C   UNL     1      46.002   5.646  10.233  0.00  0.00    +0.000 A 
ATOM     22  C   UNL     1      46.649   6.645  10.964  0.00  0.00    +0.000 A 
BRANCH  20  23
ATOM     23  O   UNL     1      44.469   3.926   9.988  0.00  0.00    +0.000 OA
BRANCH  23  24
ATOM     24  C   UNL     1      44.356   4.235   8.600  0.00  0.00    +0.000 C 
BRANCH  24  25
ATOM     25  C   UNL     1      45.100   3.133   7.835  0.00  0.00    +0.000 C 
ATOM     26  C   UNL     1      45.523   1.993   8.775  0.00  0.00    +0.000 C 
ATOM     27  C   UNL     1      46.339   0.952   8.023  0.00  0.00    +0.000 C 
ATOM     28  O   UNL     1      47.467   1.557   7.393  0.00  0.00    +0.000 OA
ATOM     29  C   UNL     1      47.087   2.537   6.429  0.00  0.00    +0.000 C 
ATOM     30  C   UNL     1      46.324   3.678   7.093  0.00  0.00    +0.000 C 
ENDBRANCH  24  25
ENDBRANCH  23  24
ENDBRANCH  20  23
ENDBRANCH  16  17
ENDBRANCH   3  16
TORSDOF 6
ENDMDL
MODEL 2
REMARK VINA RESULT:    -7.363      1.819      2.517
REMARK INTER + INTRA:         -11.170
REMARK INTER:                 -10.176
REMARK INTRA:                  -0.994
REMARK UNBOUND:                -1.225
REMARK  Name = 
REMARK  7 active torsions:
REMARK  status: ('A' for Active; 'I' for Inactive)
REMARK    1  A    between atoms: C_1  and  N_2
REMARK    2  A    between atoms: C_4  and  C_5
REMARK    3  A    between atoms: N_7  and  C_8
REMARK    4  A    between atoms: C_8  and  C_9
REMARK    5  A    between atoms: C_12  and  O_13
REMARK    6  A    between atoms: O_13  and  C_14
REMARK    7  A    between atoms: C_14  and  C_15
REMARK                            x       y       z     vdW  Elec       q    Type
REMARK                         _______ _______ _______ _____ _____    ______ ____
ROOT
ATOM      1  C   UNL     1      48.908   6.825  15.454  0.00  0.00    +0.000 C 
ATOM      2  O   UNL     1      49.988   6.901  14.879  0.00  0.00    +0.000 OA
ATOM      3  N   UNL     1      47.720   7.110  14.815  0.00  0.00    +0.000 N 
ATOM      4  H   UNL     1      46.840   6.949  15.282  0.00  0.00    +0.000 HD
ENDROOT
BRANCH   1   8
ATOM      5  C   UNL     1      48.814   4.015  19.575  0.00  0.00    +0.000 C 
ATOM      6  N   UNL     1      48.736   5.158  18.694  0.00  0.00    +0.000 N 
ATOM      7  C   UNL     1      48.999   5.158  17.352  0.00  0.00    +0.000 A 
ATOM      8  C   UNL     1      48.786   6.440  16.858  0.00  0.00    +0.000 A 
ATOM      9  C   UNL     1      48.380   7.250  17.983  0.00  0.00    +0.000 A 
ATOM     10  C   UNL     1      48.028   8.567  18.272  0.00  0.00    +0.000 A 
ATOM     11 CL   UNL     1      48.057   9.777  17.085  0.00  0.00    +0.000 Cl
ATOM     12  N   UNL     1      47.711   8.971  19.515  0.00  0.00    +0.000 NA
ATOM     13  C   UNL     1      47.738   8.045  20.480  0.00  0.00    +0.000 A 
ATOM     14  N   UNL     1      48.056   6.748  20.359  0.00  0.00    +0.000 NA
ATOM     15  C   UNL     1      48.368   6.412  19.094  0.00  0.00    +0.000 A 
ENDBRANCH   1   8
BRANCH   3  16
ATOM     16  C   UNL     1      47.725   7.417  13.405  0.00  0.00    +0.000 C 
BRANCH  16  17
ATOM     17  C   UNL     1      46.895   6.445  12.611  0.00  0.00    +0.000 A 
ATOM     18  C   UNL     1      46.470   5.238  13.186  0.00  0.00    +0.000 A 
ATOM     19  C   UNL     1      45.689   4.332  12.461  0.00  0.00    +0.000 A 
ATOM     20  C   UNL     1      45.333   4.621  11.146  0.00  0.00    +0.000 A 
ATOM     21  C   UNL     1      45.755   5.819  10.568  0.00  0.00    +0.000 A 
ATOM     22  C   UNL     1      46.535   6.725  11.290  0.00  0.00    +0.000 A 
BRANCH  20  23
ATOM     23  O   UNL     1      44.590   3.832  10.319  0.00  0.00    +0.000 OA
BRANCH  23  24
ATOM     24  C   UNL     1      44.397   4.260   8.972  0.00  0.00    +0.000 C 
BRANCH  24  25
ATOM     25  C   UNL     1      45.119   3.249   8.074  0.00  0.00    +0.000 C 
ATOM     26  C   UNL     1      45.504   1.984   8.858  0.00  0.00    +0.000 C 
ATOM     27  C   UNL     1      46.300   1.030   7.980  0.00  0.00    +0.000 C 
ATOM     28  O   UNL     1      47.449   1.682   7.441  0.00  0.00    +0.000 OA
ATOM     29  C   UNL     1      47.102   2.789   6.612  0.00  0.00    +0.000 C 
ATOM     30  C   UNL     1      46.363   3.853   7.416  0.00  0.00    +0.000 C 
ENDBRANCH  24  25
ENDBRANCH  23  24
ENDBRANCH  20  23
ENDBRANCH  16  17
ENDBRANCH   3  16
TORSDOF 6
ENDMDL
MODEL 3
REMARK VINA RESULT:    -7.339      2.615      4.436
REMARK INTER + INTRA:         -11.138
REMARK INTER:                  -9.992
REMARK INTRA:                  -1.146
REMARK UNBOUND:                -1.225
REMARK  Name = 
REMARK  7 active torsions:
REMARK  status: ('A' for Active; 'I' for Inactive)
REMARK    1  A    between atoms: C_1  and  N_2
REMARK    2  A    between atoms: C_4  and  C_5
REMARK    3  A    between atoms: N_7  and  C_8
REMARK    4  A    between atoms: C_8  and  C_9
REMARK    5  A    between atoms: C_12  and  O_13
REMARK    6  A    between atoms: O_13  and  C_14
REMARK    7  A    between atoms: C_14  and  C_15
REMARK                            x       y       z     vdW  Elec       q    Type
REMARK                         _______ _______ _______ _____ _____    ______ ____
ROOT
ATOM      1  C   UNL     1      48.490   6.974  14.793  0.00  0.00    +0.000 C 
ATOM      2  O   UNL     1      49.247   6.165  15.317  0.00  0.00    +0.000 OA
ATOM      3  N   UNL     1      47.313   6.586  14.189  0.00  0.00    +0.000 N 
ATOM      4  H   UNL     1      46.663   7.280  13.848  0.00  0.00    +0.000 HD
ENDROOT
BRANCH   1   8
ATOM      5  C   UNL     1      49.149  11.687  16.289  0.00  0.00    +0.000 C 
ATOM      6  N   UNL     1      49.050  10.519  15.444  0.00  0.00    +0.000 N 
ATOM      7  C   UNL     1      48.825   9.239  15.866  0.00  0.00    +0.000 A 
ATOM      8  C   UNL     1      48.770   8.407  14.752  0.00  0.00    +0.000 A 
ATOM      9  C   UNL     1      48.985   9.251  13.600  0.00  0.00    +0.000 A 
ATOM     10  C   UNL     1      49.082   9.153  12.213  0.00  0.00    +0.000 A 
ATOM     11 CL   UNL     1      48.991   7.658  11.419  0.00  0.00    +0.000 Cl
ATOM     12  N   UNL     1      49.321  10.220  11.430  0.00  0.00    +0.000 NA
ATOM     13  C   UNL     1      49.456  11.403  12.041  0.00  0.00    +0.000 A 
ATOM     14  N   UNL     1      49.390  11.656  13.356  0.00  0.00    +0.000 NA
ATOM     15  C   UNL     1      49.156  10.547  14.080  0.00  0.00    +0.000 A 
ENDBRANCH   1   8
BRANCH   3  16
ATOM     16  C   UNL     1      46.902   5.204  14.249  0.00  0.00    +0.000 C 
BRANCH  16  17
ATOM     17  C   UNL     1      46.187   4.772  12.997  0.00  0.00    +0.000 A 
ATOM     18  C   UNL     1      45.917   5.696  11.978  0.00  0.00    +0.000 A 
ATOM     19  C   UNL     1      45.262   5.303  10.806  0.00  0.00    +0.000 A 
ATOM     20  C   UNL     1      44.860   3.979  10.647  0.00  0.00    +0.000 A 
ATOM     21  C   UNL     1      45.124   3.055  11.659  0.00  0.00    +0.000 A 
ATOM     22  C   UNL     1      45.778   3.446  12.831  0.00  0.00    +0.000 A 
BRANCH  20  23
ATOM     23  O   UNL     1      44.207   3.458   9.570  0.00  0.00    +0.000 OA
BRANCH  23  24
ATOM     24  C   UNL     1      44.658   3.821   8.266  0.00  0.00    +0.000 C 
BRANCH  24  25
ATOM     25  C   UNL     1      45.932   3.013   7.993  0.00  0.00    +0.000 C 
ATOM     26  C   UNL     1      46.503   3.330   6.601  0.00  0.00    +0.000 C 
ATOM     27  C   UNL     1      47.712   2.455   6.305  0.00  0.00    +0.000 C 
ATOM     28  O   UNL     1      47.376   1.074   6.430  0.00  0.00    +0.000 OA
ATOM     29  C   UNL     1      46.956   0.738   7.752  0.00  0.00    +0.000 C 
ATOM     30  C   UNL     1      45.693   1.506   8.127  0.00  0.00    +0.000 C 
ENDBRANCH  24  25
ENDBRANCH  23  24
ENDBRANCH  20  23
ENDBRANCH  16  17
ENDBRANCH   3  16
TORSDOF 6
ENDMDL
MODEL 4
REMARK VINA RESULT:    -7.039      1.768      2.133
REMARK INTER + INTRA:         -10.733
REMARK INTER:                  -9.731
REMARK INTRA:                  -1.002
REMARK UNBOUND:                -1.225
REMARK  Name = 
REMARK  7 active torsions:
REMARK  status: ('A' for Active; 'I' for Inactive)
REMARK    1  A    between atoms: C_1  and  N_2
REMARK    2  A    between atoms: C_4  and  C_5
REMARK    3  A    between atoms: N_7  and  C_8
REMARK    4  A    between atoms: C_8  and  C_9
REMARK    5  A    between atoms: C_12  and  O_13
REMARK    6  A    between atoms: O_13  and  C_14
REMARK    7  A    between atoms: C_14  and  C_15
REMARK                            x       y       z     vdW  Elec       q    Type
REMARK                         _______ _______ _______ _____ _____    ______ ____
ROOT
ATOM      1  C   UNL     1      49.183   6.877  16.134  0.00  0.00    +0.000 C 
ATOM      2  O   UNL     1      50.290   6.490  15.779  0.00  0.00    +0.000 OA
ATOM      3  N   UNL     1      48.192   7.187  15.227  0.00  0.00    +0.000 N 
ATOM      4  H   UNL     1      47.262   7.413  15.547  0.00  0.00    +0.000 HD
ENDROOT
BRANCH   1   8
ATOM      5  C   UNL     1      47.976   9.075  20.448  0.00  0.00    +0.000 C 
ATOM      6  N   UNL     1      48.291   8.061  19.468  0.00  0.00    +0.000 N 
ATOM      7  C   UNL     1      48.525   8.272  18.138  0.00  0.00    +0.000 A 
ATOM      8  C   UNL     1      48.820   7.052  17.539  0.00  0.00    +0.000 A 
ATOM      9  C   UNL     1      48.748   6.056  18.582  0.00  0.00    +0.000 A 
ATOM     10  C   UNL     1      48.891   4.680  18.750  0.00  0.00    +0.000 A 
ATOM     11 CL   UNL     1      49.212   3.653  17.440  0.00  0.00    +0.000 Cl
ATOM     12  N   UNL     1      48.718   4.077  19.940  0.00  0.00    +0.000 NA
ATOM     13  C   UNL     1      48.406   4.862  20.978  0.00  0.00    +0.000 A 
ATOM     14  N   UNL     1      48.234   6.191  20.974  0.00  0.00    +0.000 NA
ATOM     15  C   UNL     1      48.415   6.729  19.755  0.00  0.00    +0.000 A 
ENDBRANCH   1   8
BRANCH   3  16
ATOM     16  C   UNL     1      48.420   6.968  13.819  0.00  0.00    +0.000 C 
BRANCH  16  17
ATOM     17  C   UNL     1      47.319   6.160  13.187  0.00  0.00    +0.000 A 
ATOM     18  C   UNL     1      47.102   4.829  13.572  0.00  0.00    +0.000 A 
ATOM     19  C   UNL     1      46.074   4.073  12.999  0.00  0.00    +0.000 A 
ATOM     20  C   UNL     1      45.258   4.641  12.024  0.00  0.00    +0.000 A 
ATOM     21  C   UNL     1      45.470   5.964  11.635  0.00  0.00    +0.000 A 
ATOM     22  C   UNL     1      46.496   6.721  12.205  0.00  0.00    +0.000 A 
BRANCH  20  23
ATOM     23  O   UNL     1      44.231   4.024  11.373  0.00  0.00    +0.000 OA
BRANCH  23  24
ATOM     24  C   UNL     1      43.808   4.560  10.120  0.00  0.00    +0.000 C 
BRANCH  24  25
ATOM     25  C   UNL     1      44.405   3.665   9.027  0.00  0.00    +0.000 C 
ATOM     26  C   UNL     1      44.788   2.285   9.586  0.00  0.00    +0.000 C 
ATOM     27  C   UNL     1      45.463   1.441   8.515  0.00  0.00    +0.000 C 
ATOM     28  O   UNL     1      46.596   2.122   7.978  0.00  0.00    +0.000 OA
ATOM     29  C   UNL     1      46.239   3.351   7.349  0.00  0.00    +0.000 C 
ATOM     30  C   UNL     1      45.621   4.312   8.358  0.00  0.00    +0.000 C 
ENDBRANCH  24  25
ENDBRANCH  23  24
ENDBRANCH  20  23
ENDBRANCH  16  17
ENDBRANCH   3  16
TORSDOF 6
ENDMDL
MODEL 5
REMARK VINA RESULT:    -6.660      2.622      3.092
REMARK INTER + INTRA:         -10.221
REMARK INTER:                  -9.130
REMARK INTRA:                  -1.091
REMARK UNBOUND:                -1.225
REMARK  Name = 
REMARK  7 active torsions:
REMARK  status: ('A' for Active; 'I' for Inactive)
REMARK    1  A    between atoms: C_1  and  N_2
REMARK    2  A    between atoms: C_4  and  C_5
REMARK    3  A    between atoms: N_7  and  C_8
REMARK    4  A    between atoms: C_8  and  C_9
REMARK    5  A    between atoms: C_12  and  O_13
REMARK    6  A    between atoms: O_13  and  C_14
REMARK    7  A    between atoms: C_14  and  C_15
REMARK                            x       y       z     vdW  Elec       q    Type
REMARK                         _______ _______ _______ _____ _____    ______ ____
ROOT
ATOM      1  C   UNL     1      49.930   6.079  16.942  0.00  0.00    +0.000 C 
ATOM      2  O   UNL     1      49.082   6.463  17.740  0.00  0.00    +0.000 OA
ATOM      3  N   UNL     1      49.873   6.406  15.604  0.00  0.00    +0.000 N 
ATOM      4  H   UNL     1      50.632   6.156  14.987  0.00  0.00    +0.000 HD
ENDROOT
BRANCH   1   8
ATOM      5  C   UNL     1      54.526   4.712  18.319  0.00  0.00    +0.000 C 
ATOM      6  N   UNL     1      53.133   4.647  17.939  0.00  0.00    +0.000 N 
ATOM      7  C   UNL     1      52.315   5.715  17.697  0.00  0.00    +0.000 A 
ATOM      8  C   UNL     1      51.060   5.239  17.333  0.00  0.00    +0.000 A 
ATOM      9  C   UNL     1      51.141   3.798  17.370  0.00  0.00    +0.000 A 
ATOM     10  C   UNL     1      50.334   2.682  17.161  0.00  0.00    +0.000 A 
ATOM     11 CL   UNL     1      48.692   2.833  16.770  0.00  0.00    +0.000 Cl
ATOM     12  N   UNL     1      50.786   1.425  17.320  0.00  0.00    +0.000 NA
ATOM     13  C   UNL     1      52.065   1.282  17.686  0.00  0.00    +0.000 A 
ATOM     14  N   UNL     1      52.960   2.252  17.925  0.00  0.00    +0.000 NA
ATOM     15  C   UNL     1      52.442   3.482  17.754  0.00  0.00    +0.000 A 
ENDBRANCH   1   8
BRANCH   3  16
ATOM     16  C   UNL     1      48.844   7.300  15.131  0.00  0.00    +0.000 C 
BRANCH  16  17
ATOM     17  C   UNL     1      47.791   6.579  14.335  0.00  0.00    +0.000 A 
ATOM     18  C   UNL     1      47.571   5.207  14.524  0.00  0.00    +0.000 A 
ATOM     19  C   UNL     1      46.587   4.530  13.797  0.00  0.00    +0.000 A 
ATOM     20  C   UNL     1      45.817   5.219  12.862  0.00  0.00    +0.000 A 
ATOM     21  C   UNL     1      46.034   6.584  12.668  0.00  0.00    +0.000 A 
ATOM     22  C   UNL     1      47.016   7.262  13.392  0.00  0.00    +0.000 A 
BRANCH  20  23
ATOM     23  O   UNL     1      44.836   4.690  12.078  0.00  0.00    +0.000 OA
BRANCH  23  24
ATOM     24  C   UNL     1      44.472   5.391  10.890  0.00  0.00    +0.000 C 
BRANCH  24  25
ATOM     25  C   UNL     1      44.504   4.374   9.743  0.00  0.00    +0.000 C 
ATOM     26  C   UNL     1      44.644   2.939  10.276  0.00  0.00    +0.000 C 
ATOM     27  C   UNL     1      44.768   1.950   9.126  0.00  0.00    +0.000 C 
ATOM     28  O   UNL     1      45.858   2.301   8.276  0.00  0.00    +0.000 OA
ATOM     29  C   UNL     1      45.685   3.584   7.678  0.00  0.00    +0.000 C 
ATOM     30  C   UNL     1      45.628   4.672   8.746  0.00  0.00    +0.000 C 
ENDBRANCH  24  25
ENDBRANCH  23  24
ENDBRANCH  20  23
ENDBRANCH  16  17
ENDBRANCH   3  16
TORSDOF 6
ENDMDL
MODEL 6
REMARK VINA RESULT:    -6.422      3.204      7.973
REMARK INTER + INTRA:          -9.899
REMARK INTER:                  -8.856
REMARK INTRA:                  -1.044
REMARK UNBOUND:                -1.225
REMARK  Name = 
REMARK  7 active torsions:
REMARK  status: ('A' for Active; 'I' for Inactive)
REMARK    1  A    between atoms: C_1  and  N_2
REMARK    2  A    between atoms: C_4  and  C_5
REMARK    3  A    between atoms: N_7  and  C_8
REMARK    4  A    between atoms: C_8  and  C_9
REMARK    5  A    between atoms: C_12  and  O_13
REMARK    6  A    between atoms: O_13  and  C_14
REMARK    7  A    between atoms: C_14  and  C_15
REMARK                            x       y       z     vdW  Elec       q    Type
REMARK                         _______ _______ _______ _____ _____    ______ ____
ROOT
ATOM      1  C   UNL     1      46.305   6.853  11.191  0.00  0.00    +0.000 C 
ATOM      2  O   UNL     1      45.618   7.825  11.485  0.00  0.00    +0.000 OA
ATOM      3  N   UNL     1      47.663   6.822  11.429  0.00  0.00    +0.000 N 
ATOM      4  H   UNL     1      48.188   5.975  11.265  0.00  0.00    +0.000 HD
ENDROOT
BRANCH   1   8
ATOM      5  C   UNL     1      44.981   3.568   7.678  0.00  0.00    +0.000 C 
ATOM      6  N   UNL     1      45.157   4.201   8.965  0.00  0.00    +0.000 N 
ATOM      7  C   UNL     1      45.832   5.366   9.202  0.00  0.00    +0.000 A 
ATOM      8  C   UNL     1      45.753   5.657  10.560  0.00  0.00    +0.000 A 
ATOM      9  C   UNL     1      44.989   4.590  11.164  0.00  0.00    +0.000 A 
ATOM     10  C   UNL     1      44.528   4.190  12.416  0.00  0.00    +0.000 A 
ATOM     11 CL   UNL     1      44.901   5.061  13.821  0.00  0.00    +0.000 Cl
ATOM     12  N   UNL     1      43.822   3.059  12.596  0.00  0.00    +0.000 NA
ATOM     13  C   UNL     1      43.566   2.324  11.509  0.00  0.00    +0.000 A 
ATOM     14  N   UNL     1      43.940   2.575  10.246  0.00  0.00    +0.000 NA
ATOM     15  C   UNL     1      44.647   3.714  10.137  0.00  0.00    +0.000 A 
ENDBRANCH   1   8
BRANCH   3  16
ATOM     16  C   UNL     1      48.291   7.918  12.125  0.00  0.00    +0.000 C 
BRANCH  16  17
ATOM     17  C   UNL     1      48.821   7.504  13.472  0.00  0.00    +0.000 A 
ATOM     18  C   UNL     1      50.166   7.718  13.804  0.00  0.00    +0.000 A 
ATOM     19  C   UNL     1      50.666   7.347  15.056  0.00  0.00    +0.000 A 
ATOM     20  C   UNL     1      49.823   6.744  15.988  0.00  0.00    +0.000 A 
ATOM     21  C   UNL     1      48.484   6.526  15.662  0.00  0.00    +0.000 A 
ATOM     22  C   UNL     1      47.983   6.896  14.412  0.00  0.00    +0.000 A 
BRANCH  20  23
ATOM     23  O   UNL     1      50.172   6.322  17.236  0.00  0.00    +0.000 OA
BRANCH  23  24
ATOM     24  C   UNL     1      49.183   5.663  18.025  0.00  0.00    +0.000 C 
BRANCH  24  25
ATOM     25  C   UNL     1      49.477   4.160  17.949  0.00  0.00    +0.000 C 
ATOM     26  C   UNL     1      50.944   3.900  17.570  0.00  0.00    +0.000 C 
ATOM     27  C   UNL     1      51.199   2.409  17.407  0.00  0.00    +0.000 C 
ATOM     28  O   UNL     1      50.303   1.846  16.450  0.00  0.00    +0.000 OA
ATOM     29  C   UNL     1      48.939   1.975  16.847  0.00  0.00    +0.000 C 
ATOM     30  C   UNL     1      48.549   3.444  16.964  0.00  0.00    +0.000 C 
ENDBRANCH  24  25
ENDBRANCH  23  24
ENDBRANCH  20  23
ENDBRANCH  16  17
ENDBRANCH   3  16
TORSDOF 6
ENDMDL
MODEL 7
REMARK VINA RESULT:    -6.227      2.635      4.010
REMARK INTER + INTRA:          -9.636
REMARK INTER:                  -8.597
REMARK INTRA:                  -1.038
REMARK UNBOUND:                -1.225
REMARK  Name = 
REMARK  7 active torsions:
REMARK  status: ('A' for Active; 'I' for Inactive)
REMARK    1  A    between atoms: C_1  and  N_2
REMARK    2  A    between atoms: C_4  and  C_5
REMARK    3  A    between atoms: N_7  and  C_8
REMARK    4  A    between atoms: C_8  and  C_9
REMARK    5  A    between atoms: C_12  and  O_13
REMARK    6  A    between atoms: O_13  and  C_14
REMARK    7  A    between atoms: C_14  and  C_15
REMARK                            x       y       z     vdW  Elec       q    Type
REMARK                         _______ _______ _______ _____ _____    ______ ____
ROOT
ATOM      1  C   UNL     1      50.024   6.207  17.308  0.00  0.00    +0.000 C 
ATOM      2  O   UNL     1      48.966   6.295  17.921  0.00  0.00    +0.000 OA
ATOM      3  N   UNL     1      50.328   7.041  16.253  0.00  0.00    +0.000 N 
ATOM      4  H   UNL     1      51.242   7.009  15.827  0.00  0.00    +0.000 HD
ENDROOT
BRANCH   1   8
ATOM      5  C   UNL     1      54.376   4.205  18.700  0.00  0.00    +0.000 C 
ATOM      6  N   UNL     1      53.010   4.334  18.248  0.00  0.00    +0.000 N 
ATOM      7  C   UNL     1      52.312   5.503  18.119  0.00  0.00    +0.000 A 
ATOM      8  C   UNL     1      51.043   5.211  17.631  0.00  0.00    +0.000 A 
ATOM      9  C   UNL     1      50.986   3.777  17.469  0.00  0.00    +0.000 A 
ATOM     10  C   UNL     1      50.092   2.788  17.065  0.00  0.00    +0.000 A 
ATOM     11 CL   UNL     1      48.499   3.157  16.620  0.00  0.00    +0.000 Cl
ATOM     12  N   UNL     1      50.413   1.481  17.068  0.00  0.00    +0.000 NA
ATOM     13  C   UNL     1      51.648   1.161  17.471  0.00  0.00    +0.000 A 
ATOM     14  N   UNL     1      52.613   1.993  17.888  0.00  0.00    +0.000 NA
ATOM     15  C   UNL     1      52.225   3.281  17.866  0.00  0.00    +0.000 A 
ENDBRANCH   1   8
BRANCH   3  16
ATOM     16  C   UNL     1      49.425   8.113  15.908  0.00  0.00    +0.000 C 
BRANCH  16  17
ATOM     17  C   UNL     1      48.603   7.790  14.690  0.00  0.00    +0.000 A 
ATOM     18  C   UNL     1      47.550   8.630  14.300  0.00  0.00    +0.000 A 
ATOM     19  C   UNL     1      46.787   8.345  13.163  0.00  0.00    +0.000 A 
ATOM     20  C   UNL     1      47.064   7.207  12.409  0.00  0.00    +0.000 A 
ATOM     21  C   UNL     1      48.109   6.366  12.794  0.00  0.00    +0.000 A 
ATOM     22  C   UNL     1      48.872   6.648  13.930  0.00  0.00    +0.000 A 
BRANCH  20  23
ATOM     23  O   UNL     1      46.400   6.799  11.290  0.00  0.00    +0.000 OA
BRANCH  23  24
ATOM     24  C   UNL     1      45.000   6.544  11.392  0.00  0.00    +0.000 C 
BRANCH  24  25
ATOM     25  C   UNL     1      44.825   5.022  11.443  0.00  0.00    +0.000 C 
ATOM     26  C   UNL     1      44.457   4.458  10.061  0.00  0.00    +0.000 C 
ATOM     27  C   UNL     1      44.195   2.962  10.144  0.00  0.00    +0.000 C 
ATOM     28  O   UNL     1      43.183   2.681  11.110  0.00  0.00    +0.000 OA
ATOM     29  C   UNL     1      43.561   3.092  12.423  0.00  0.00    +0.000 C 
ATOM     30  C   UNL     1      43.773   4.601  12.474  0.00  0.00    +0.000 C 
ENDBRANCH  24  25
ENDBRANCH  23  24
ENDBRANCH  20  23
ENDBRANCH  16  17
ENDBRANCH   3  16
TORSDOF 6
ENDMDL
MODEL 8
REMARK VINA RESULT:    -6.209      4.257      9.150
REMARK INTER + INTRA:          -9.612
REMARK INTER:                  -8.591
REMARK INTRA:                  -1.021
REMARK UNBOUND:                -1.225
REMARK  Name = 
REMARK  7 active torsions:
REMARK  status: ('A' for Active; 'I' for Inactive)
REMARK    1  A    between atoms: C_1  and  N_2
REMARK    2  A    between atoms: C_4  and  C_5
REMARK    3  A    between atoms: N_7  and  C_8
REMARK    4  A    between atoms: C_8  and  C_9
REMARK    5  A    between atoms: C_12  and  O_13
REMARK    6  A    between atoms: O_13  and  C_14
REMARK    7  A    between atoms: C_14  and  C_15
REMARK                            x       y       z     vdW  Elec       q    Type
REMARK                         _______ _______ _______ _____ _____    ______ ____
ROOT
ATOM      1  C   UNL     1      46.971   4.247  14.483  0.00  0.00    +0.000 C 
ATOM      2  O   UNL     1      47.319   3.166  14.022  0.00  0.00    +0.000 OA
ATOM      3  N   UNL     1      46.899   4.471  15.842  0.00  0.00    +0.000 N 
ATOM      4  H   UNL     1      46.701   5.395  16.195  0.00  0.00    +0.000 HD
ENDROOT
BRANCH   1   8
ATOM      5  C   UNL     1      47.046   8.756  12.350  0.00  0.00    +0.000 C 
ATOM      6  N   UNL     1      46.641   7.415  12.705  0.00  0.00    +0.000 N 
ATOM      7  C   UNL     1      47.321   6.562  13.529  0.00  0.00    +0.000 A 
ATOM      8  C   UNL     1      46.595   5.381  13.642  0.00  0.00    +0.000 A 
ATOM      9  C   UNL     1      45.415   5.546  12.826  0.00  0.00    +0.000 A 
ATOM     10  C   UNL     1      44.282   4.833  12.440  0.00  0.00    +0.000 A 
ATOM     11 CL   UNL     1      44.026   3.233  12.934  0.00  0.00    +0.000 Cl
ATOM     12  N   UNL     1      43.361   5.343  11.602  0.00  0.00    +0.000 NA
ATOM     13  C   UNL     1      43.572   6.585  11.151  0.00  0.00    +0.000 A 
ATOM     14  N   UNL     1      44.607   7.390  11.429  0.00  0.00    +0.000 NA
ATOM     15  C   UNL     1      45.492   6.818  12.266  0.00  0.00    +0.000 A 
ENDBRANCH   1   8
BRANCH   3  16
ATOM     16  C   UNL     1      47.330   3.443  16.758  0.00  0.00    +0.000 C 
BRANCH  16  17
ATOM     17  C   UNL     1      48.761   3.629  17.184  0.00  0.00    +0.000 A 
ATOM     18  C   UNL     1      49.275   4.914  17.407  0.00  0.00    +0.000 A 
ATOM     19  C   UNL     1      50.600   5.099  17.814  0.00  0.00    +0.000 A 
ATOM     20  C   UNL     1      51.431   3.994  17.991  0.00  0.00    +0.000 A 
ATOM     21  C   UNL     1      50.925   2.713  17.768  0.00  0.00    +0.000 A 
ATOM     22  C   UNL     1      49.602   2.526  17.362  0.00  0.00    +0.000 A 
BRANCH  20  23
ATOM     23  O   UNL     1      52.739   4.022  18.371  0.00  0.00    +0.000 OA
BRANCH  23  24
ATOM     24  C   UNL     1      53.729   3.672  17.405  0.00  0.00    +0.000 C 
BRANCH  24  25
ATOM     25  C   UNL     1      54.566   2.539  18.011  0.00  0.00    +0.000 C 
ATOM     26  C   UNL     1      54.165   1.177  17.422  0.00  0.00    +0.000 C 
ATOM     27  C   UNL     1      54.937   0.053  18.098  0.00  0.00    +0.000 C 
ATOM     28  O   UNL     1      54.744   0.089  19.512  0.00  0.00    +0.000 OA
ATOM     29  C   UNL     1      55.221   1.303  20.090  0.00  0.00    +0.000 C 
ATOM     30  C   UNL     1      54.455   2.500  19.538  0.00  0.00    +0.000 C 
ENDBRANCH  24  25
ENDBRANCH  23  24
ENDBRANCH  20  23
ENDBRANCH  16  17
ENDBRANCH   3  16
TORSDOF 6
ENDMDL
MODEL 9
REMARK VINA RESULT:    -6.174      3.625     10.067
REMARK INTER + INTRA:          -9.565
REMARK INTER:                  -8.491
REMARK INTRA:                  -1.075
REMARK UNBOUND:                -1.225
REMARK  Name = 
REMARK  7 active torsions:
REMARK  status: ('A' for Active; 'I' for Inactive)
REMARK    1  A    between atoms: C_1  and  N_2
REMARK    2  A    between atoms: C_4  and  C_5
REMARK    3  A    between atoms: N_7  and  C_8
REMARK    4  A    between atoms: C_8  and  C_9
REMARK    5  A    between atoms: C_12  and  O_13
REMARK    6  A    between atoms: O_13  and  C_14
REMARK    7  A    between atoms: C_14  and  C_15
REMARK                            x       y       z     vdW  Elec       q    Type
REMARK                         _______ _______ _______ _____ _____    ______ ____
ROOT
ATOM      1  C   UNL     1      46.825   4.177  14.290  0.00  0.00    +0.000 C 
ATOM      2  O   UNL     1      47.669   3.452  13.775  0.00  0.00    +0.000 OA
ATOM      3  N   UNL     1      46.652   4.239  15.656  0.00  0.00    +0.000 N 
ATOM      4  H   UNL     1      46.017   4.913  16.058  0.00  0.00    +0.000 HD
ENDROOT
BRANCH   1   8
ATOM      5  C   UNL     1      42.964   5.616  11.477  0.00  0.00    +0.000 C 
ATOM      6  N   UNL     1      44.194   5.648  12.235  0.00  0.00    +0.000 N 
ATOM      7  C   UNL     1      44.730   4.607  12.941  0.00  0.00    +0.000 A 
ATOM      8  C   UNL     1      45.929   5.026  13.507  0.00  0.00    +0.000 A 
ATOM      9  C   UNL     1      46.107   6.405  13.116  0.00  0.00    +0.000 A 
ATOM     10  C   UNL     1      47.007   7.453  13.296  0.00  0.00    +0.000 A 
ATOM     11 CL   UNL     1      48.376   7.291  14.283  0.00  0.00    +0.000 Cl
ATOM     12  N   UNL     1      46.812   8.671  12.758  0.00  0.00    +0.000 NA
ATOM     13  C   UNL     1      45.708   8.840  12.023  0.00  0.00    +0.000 A 
ATOM     14  N   UNL     1      44.754   7.934  11.762  0.00  0.00    +0.000 NA
ATOM     15  C   UNL     1      45.006   6.743  12.334  0.00  0.00    +0.000 A 
ENDBRANCH   1   8
BRANCH   3  16
ATOM     16  C   UNL     1      47.543   3.505  16.522  0.00  0.00    +0.000 C 
BRANCH  16  17
ATOM     17  C   UNL     1      47.812   4.237  17.808  0.00  0.00    +0.000 A 
ATOM     18  C   UNL     1      48.840   3.816  18.664  0.00  0.00    +0.000 A 
ATOM     19  C   UNL     1      49.106   4.496  19.857  0.00  0.00    +0.000 A 
ATOM     20  C   UNL     1      48.336   5.601  20.212  0.00  0.00    +0.000 A 
ATOM     21  C   UNL     1      47.310   6.023  19.365  0.00  0.00    +0.000 A 
ATOM     22  C   UNL     1      47.042   5.345  18.173  0.00  0.00    +0.000 A 
BRANCH  20  23
ATOM     23  O   UNL     1      48.472   6.350  21.343  0.00  0.00    +0.000 OA
BRANCH  23  24
ATOM     24  C   UNL     1      47.314   7.002  21.863  0.00  0.00    +0.000 C 
BRANCH  24  25
ATOM     25  C   UNL     1      47.692   8.470  22.090  0.00  0.00    +0.000 C 
ATOM     26  C   UNL     1      46.938   9.394  21.120  0.00  0.00    +0.000 C 
ATOM     27  C   UNL     1      47.390  10.837  21.292  0.00  0.00    +0.000 C 
ATOM     28  O   UNL     1      48.803  10.945  21.127  0.00  0.00    +0.000 OA
ATOM     29  C   UNL     1      49.520  10.185  22.098  0.00  0.00    +0.000 C 
ATOM     30  C   UNL     1      49.201   8.700  21.962  0.00  0.00    +0.000 C 
ENDBRANCH  24  25
ENDBRANCH  23  24
ENDBRANCH  20  23
ENDBRANCH  16  17
ENDBRANCH   3  16
TORSDOF 6
ENDMDL
