MODEL 1
REMARK VINA RESULT:    -7.707      0.000      0.000
REMARK INTER + INTRA:          -9.775
REMARK INTER:                  -9.509
REMARK INTRA:                  -0.265
REMARK UNBOUND:                -0.265
REMARK  Name = 
REMARK  4 active torsions:
REMARK  status: ('A' for Active; 'I' for Inactive)
REMARK    1  A    between atoms: C_5  and  N_6
REMARK    2  A    between atoms: N_6  and  C_7
REMARK    3  A    between atoms: C_7  and  C_8
REMARK    4  A    between atoms: C_12  and  C_13
REMARK                            x       y       z     vdW  Elec       q    Type
REMARK                         _______ _______ _______ _____ _____    ______ ____
ROOT
ATOM      1  C   UNL     1      43.969   4.770  11.689  0.00  0.00    +0.000 C 
ATOM      2  C   UNL     1      42.857   5.023  12.707  0.00  0.00    +0.000 C 
ATOM      3  C   UNL     1      42.874   5.788  11.424  0.00  0.00    +0.000 C 
ENDROOT
BRANCH   1   4
ATOM      4  C   UNL     1      45.357   5.299  12.082  0.00  0.00    +0.000 A 
ATOM      5  C   UNL     1      45.967   6.317  11.353  0.00  0.00    +0.000 A 
ATOM      6  C   UNL     1      47.134   6.899  11.831  0.00  0.00    +0.000 A 
ATOM      7  C   UNL     1      47.671   6.455  13.032  0.00  0.00    +0.000 A 
ATOM      8  C   UNL     1      47.047   5.410  13.710  0.00  0.00    +0.000 A 
ATOM      9  N   UNL     1      45.929   4.816  13.223  0.00  0.00    +0.000 NA
BRANCH   8  10
ATOM     10  C   UNL     1      47.519   4.912  15.016  0.00  0.00    +0.000 A 
ATOM     11  C   UNL     1      47.326   3.581  15.414  0.00  0.00    +0.000 A 
ATOM     12  C   UNL     1      47.801   3.164  16.647  0.00  0.00    +0.000 A 
ATOM     13  N   UNL     1      48.453   3.966  17.512  0.00  0.00    +0.000 NA
ATOM     14  C   UNL     1      48.650   5.240  17.116  0.00  0.00    +0.000 A 
ATOM     15  C   UNL     1      48.215   5.748  15.902  0.00  0.00    +0.000 A 
ENDBRANCH   8  10
ENDBRANCH   1   4
BRANCH   1  16
ATOM     16  N   UNL     1      43.944   3.440  11.033  0.00  0.00    +0.000 N 
ATOM     17  H   UNL     1      44.130   2.676  11.678  0.00  0.00    +0.000 HD
BRANCH  16  22
ATOM     18 CL   UNL     1      46.774   2.943   5.960  0.00  0.00    +0.000 Cl
ATOM     19  C   UNL     1      45.934   3.045   7.447  0.00  0.00    +0.000 A 
ATOM     20  C   UNL     1      45.869   1.982   8.327  0.00  0.00    +0.000 A 
ATOM     21  N   UNL     1      45.209   2.046   9.518  0.00  0.00    +0.000 NA
ATOM     22  C   UNL     1      44.601   3.222   9.801  0.00  0.00    +0.000 A 
ATOM     23  C   UNL     1      44.699   4.288   8.893  0.00  0.00    +0.000 A 
ATOM     24  N   UNL     1      45.349   4.231   7.701  0.00  0.00    +0.000 NA
ENDBRANCH  16  22
ENDBRANCH   1  16
TORSDOF 4
ENDMDL
MODEL 2
REMARK VINA RESULT:    -7.702      1.979      3.517
REMARK INTER + INTRA:          -9.768
REMARK INTER:                  -9.199
REMARK INTRA:                  -0.569
REMARK UNBOUND:                -0.265
REMARK  Name = 
REMARK  4 active torsions:
REMARK  status: ('A' for Active; 'I' for Inactive)
REMARK    1  A    between atoms: C_5  and  N_6
REMARK    2  A    between atoms: N_6  and  C_7
REMARK    3  A    between atoms: C_7  and  C_8
REMARK    4  A    between atoms: C_12  and  C_13
REMARK                            x       y       z     vdW  Elec       q    Type
REMARK                         _______ _______ _______ _____ _____    ______ ____
ROOT
ATOM      1  C   UNL     1      43.766   4.849  11.526  0.00  0.00    +0.000 C 
ATOM      2  C   UNL     1      42.485   5.310  12.220  0.00  0.00    +0.000 C 
ATOM      3  C   UNL     1      43.005   6.072  11.046  0.00  0.00    +0.000 C 
ENDROOT
BRANCH   1   4
ATOM      4  C   UNL     1      45.064   5.078  12.314  0.00  0.00    +0.000 A 
ATOM      5  C   UNL     1      45.596   4.076  13.123  0.00  0.00    +0.000 A 
ATOM      6  C   UNL     1      46.857   4.242  13.681  0.00  0.00    +0.000 A 
ATOM      7  C   UNL     1      47.568   5.406  13.418  0.00  0.00    +0.000 A 
ATOM      8  C   UNL     1      46.983   6.395  12.633  0.00  0.00    +0.000 A 
ATOM      9  N   UNL     1      45.736   6.250  12.120  0.00  0.00    +0.000 NA
BRANCH   8  10
ATOM     10  C   UNL     1      47.686   7.638  12.261  0.00  0.00    +0.000 A 
ATOM     11  C   UNL     1      49.030   7.637  11.859  0.00  0.00    +0.000 A 
ATOM     12  C   UNL     1      49.637   8.833  11.509  0.00  0.00    +0.000 A 
ATOM     13  N   UNL     1      49.012  10.026  11.527  0.00  0.00    +0.000 NA
ATOM     14  C   UNL     1      47.715  10.018  11.899  0.00  0.00    +0.000 A 
ATOM     15  C   UNL     1      47.023   8.874  12.263  0.00  0.00    +0.000 A 
ENDBRANCH   8  10
ENDBRANCH   1   4
BRANCH   1  16
ATOM     16  N   UNL     1      43.670   3.560  10.798  0.00  0.00    +0.000 N 
ATOM     17  H   UNL     1      43.625   2.756  11.418  0.00  0.00    +0.000 HD
BRANCH  16  22
ATOM     18 CL   UNL     1      47.254   2.815   6.260  0.00  0.00    +0.000 Cl
ATOM     19  C   UNL     1      46.188   2.991   7.586  0.00  0.00    +0.000 A 
ATOM     20  C   UNL     1      45.848   1.929   8.402  0.00  0.00    +0.000 A 
ATOM     21  N   UNL     1      45.005   2.050   9.465  0.00  0.00    +0.000 NA
ATOM     22  C   UNL     1      44.499   3.286   9.687  0.00  0.00    +0.000 A 
ATOM     23  C   UNL     1      44.874   4.348   8.850  0.00  0.00    +0.000 A 
ATOM     24  N   UNL     1      45.709   4.234   7.783  0.00  0.00    +0.000 NA
ENDBRANCH  16  22
ENDBRANCH   1  16
TORSDOF 4
ENDMDL
MODEL 3
REMARK VINA RESULT:    -7.545      2.949      7.017
REMARK INTER + INTRA:          -9.575
REMARK INTER:                  -9.038
REMARK INTRA:                  -0.537
REMARK UNBOUND:                -0.265
REMARK  Name = 
REMARK  4 active torsions:
REMARK  status: ('A' for Active; 'I' for Inactive)
REMARK    1  A    between atoms: C_5  and  N_6
REMARK    2  A    between atoms: N_6  and  C_7
REMARK    3  A    between atoms: C_7  and  C_8
REMARK    4  A    between atoms: C_12  and  C_13
REMARK                            x       y       z     vdW  Elec       q    Type
REMARK                         _______ _______ _______ _____ _____    ______ ____
ROOT
ATOM      1  C   UNL     1      46.374   7.045  12.479  0.00  0.00    +0.000 C 
ATOM      2  C   UNL     1      46.580   8.407  11.816  0.00  0.00    +0.000 C 
ATOM      3  C   UNL     1      45.867   8.322  13.126  0.00  0.00    +0.000 C 
ENDROOT
BRANCH   1   4
ATOM      4  C   UNL     1      45.343   6.129  11.801  0.00  0.00    +0.000 A 
ATOM      5  C   UNL     1      43.979   6.294  12.032  0.00  0.00    +0.000 A 
ATOM      6  C   UNL     1      43.063   5.577  11.274  0.00  0.00    +0.000 A 
ATOM      7  C   UNL     1      43.525   4.708  10.294  0.00  0.00    +0.000 A 
ATOM      8  C   UNL     1      44.898   4.548  10.121  0.00  0.00    +0.000 A 
ATOM      9  N   UNL     1      45.793   5.220  10.888  0.00  0.00    +0.000 NA
BRANCH   8  10
ATOM     10  C   UNL     1      45.475   3.688   9.071  0.00  0.00    +0.000 A 
ATOM     11  C   UNL     1      46.119   4.224   7.946  0.00  0.00    +0.000 A 
ATOM     12  C   UNL     1      46.654   3.368   6.997  0.00  0.00    +0.000 A 
ATOM     13  N   UNL     1      46.598   2.024   7.079  0.00  0.00    +0.000 NA
ATOM     14  C   UNL     1      45.992   1.515   8.171  0.00  0.00    +0.000 A 
ATOM     15  C   UNL     1      45.431   2.290   9.174  0.00  0.00    +0.000 A 
ENDBRANCH   8  10
ENDBRANCH   1   4
BRANCH   1  16
ATOM     16  N   UNL     1      47.605   6.381  12.971  0.00  0.00    +0.000 N 
ATOM     17  H   UNL     1      48.075   5.834  12.254  0.00  0.00    +0.000 HD
BRANCH  16  22
ATOM     18 CL   UNL     1      47.624   3.201  17.858  0.00  0.00    +0.000 Cl
ATOM     19  C   UNL     1      47.626   4.171  16.448  0.00  0.00    +0.000 A 
ATOM     20  C   UNL     1      48.385   5.321  16.350  0.00  0.00    +0.000 A 
ATOM     21  N   UNL     1      48.403   6.104  15.235  0.00  0.00    +0.000 NA
ATOM     22  C   UNL     1      47.621   5.697  14.208  0.00  0.00    +0.000 A 
ATOM     23  C   UNL     1      46.873   4.516  14.332  0.00  0.00    +0.000 A 
ATOM     24  N   UNL     1      46.844   3.733  15.443  0.00  0.00    +0.000 NA
ENDBRANCH  16  22
ENDBRANCH   1  16
TORSDOF 4
ENDMDL
MODEL 4
REMARK VINA RESULT:    -6.914      1.923      2.627
REMARK INTER + INTRA:          -8.796
REMARK INTER:                  -8.297
REMARK INTRA:                  -0.499
REMARK UNBOUND:                -0.265
REMARK  Name = 
REMARK  4 active torsions:
REMARK  status: ('A' for Active; 'I' for Inactive)
REMARK    1  A    between atoms: C_5  and  N_6
REMARK    2  A    between atoms: N_6  and  C_7
REMARK    3  A    between atoms: C_7  and  C_8
REMARK    4  A    between atoms: C_12  and  C_13
REMARK                            x       y       z     vdW  Elec       q    Type
REMARK                         _______ _______ _______ _____ _____    ______ ____
ROOT
ATOM      1  C   UNL     1      44.012   5.313  11.873  0.00  0.00    +0.000 C 
ATOM      2  C   UNL     1      42.947   5.101  12.948  0.00  0.00    +0.000 C 
ATOM      3  C   UNL     1      42.532   5.337  11.532  0.00  0.00    +0.000 C 
ENDROOT
BRANCH   1   4
ATOM      4  C   UNL     1      44.753   6.658  11.933  0.00  0.00    +0.000 A 
ATOM      5  C   UNL     1      44.211   7.800  11.349  0.00  0.00    +0.000 A 
ATOM      6  C   UNL     1      44.808   9.035  11.571  0.00  0.00    +0.000 A 
ATOM      7  C   UNL     1      45.938   9.107  12.376  0.00  0.00    +0.000 A 
ATOM      8  C   UNL     1      46.466   7.935  12.911  0.00  0.00    +0.000 A 
ATOM      9  N   UNL     1      45.905   6.725  12.662  0.00  0.00    +0.000 NA
BRANCH   8  10
ATOM     10  C   UNL     1      47.630   7.925  13.817  0.00  0.00    +0.000 A 
ATOM     11  C   UNL     1      48.278   9.108  14.203  0.00  0.00    +0.000 A 
ATOM     12  C   UNL     1      49.359   9.041  15.067  0.00  0.00    +0.000 A 
ATOM     13  N   UNL     1      49.845   7.891  15.576  0.00  0.00    +0.000 NA
ATOM     14  C   UNL     1      49.207   6.759  15.215  0.00  0.00    +0.000 A 
ATOM     15  C   UNL     1      48.117   6.727  14.359  0.00  0.00    +0.000 A 
ENDBRANCH   8  10
ENDBRANCH   1   4
BRANCH   1  16
ATOM     16  N   UNL     1      44.846   4.128  11.556  0.00  0.00    +0.000 N 
ATOM     17  H   UNL     1      45.673   4.057  12.142  0.00  0.00    +0.000 HD
BRANCH  16  22
ATOM     18 CL   UNL     1      46.398   3.030   6.045  0.00  0.00    +0.000 Cl
ATOM     19  C   UNL     1      45.915   3.317   7.661  0.00  0.00    +0.000 A 
ATOM     20  C   UNL     1      45.511   2.296   8.498  0.00  0.00    +0.000 A 
ATOM     21  N   UNL     1      45.126   2.504   9.789  0.00  0.00    +0.000 NA
ATOM     22  C   UNL     1      45.152   3.787  10.219  0.00  0.00    +0.000 A 
ATOM     23  C   UNL     1      45.582   4.801   9.349  0.00  0.00    +0.000 A 
ATOM     24  N   UNL     1      45.960   4.603   8.059  0.00  0.00    +0.000 NA
ENDBRANCH  16  22
ENDBRANCH   1  16
TORSDOF 4
ENDMDL
MODEL 5
REMARK VINA RESULT:    -6.826      3.509      6.877
REMARK INTER + INTRA:          -8.688
REMARK INTER:                  -8.005
REMARK INTRA:                  -0.683
REMARK UNBOUND:                -0.265
REMARK  Name = 
REMARK  4 active torsions:
REMARK  status: ('A' for Active; 'I' for Inactive)
REMARK    1  A    between atoms: C_5  and  N_6
REMARK    2  A    between atoms: N_6  and  C_7
REMARK    3  A    between atoms: C_7  and  C_8
REMARK    4  A    between atoms: C_12  and  C_13
REMARK                            x       y       z     vdW  Elec       q    Type
REMARK                         _______ _______ _______ _____ _____    ______ ____
ROOT
ATOM      1  C   UNL     1      46.152   6.987  12.740  0.00  0.00    +0.000 C 
ATOM      2  C   UNL     1      47.234   6.508  13.707  0.00  0.00    +0.000 C 
ATOM      3  C   UNL     1      47.613   6.937  12.328  0.00  0.00    +0.000 C 
ENDROOT
BRANCH   1   4
ATOM      4  C   UNL     1      45.219   5.893  12.198  0.00  0.00    +0.000 A 
ATOM      5  C   UNL     1      43.913   5.771  12.667  0.00  0.00    +0.000 A 
ATOM      6  C   UNL     1      43.036   4.896  12.038  0.00  0.00    +0.000 A 
ATOM      7  C   UNL     1      43.480   4.159  10.948  0.00  0.00    +0.000 A 
ATOM      8  C   UNL     1      44.804   4.286  10.536  0.00  0.00    +0.000 A 
ATOM      9  N   UNL     1      45.670   5.112  11.174  0.00  0.00    +0.000 NA
BRANCH   8  10
ATOM     10  C   UNL     1      45.344   3.581   9.357  0.00  0.00    +0.000 A 
ATOM     11  C   UNL     1      45.339   2.182   9.265  0.00  0.00    +0.000 A 
ATOM     12  C   UNL     1      45.848   1.573   8.129  0.00  0.00    +0.000 A 
ATOM     13  N   UNL     1      46.360   2.247   7.080  0.00  0.00    +0.000 NA
ATOM     14  C   UNL     1      46.346   3.593   7.168  0.00  0.00    +0.000 A 
ATOM     15  C   UNL     1      45.856   4.290   8.261  0.00  0.00    +0.000 A 
ENDBRANCH   8  10
ENDBRANCH   1   4
BRANCH   1  16
ATOM     16  N   UNL     1      45.505   8.274  13.091  0.00  0.00    +0.000 N 
ATOM     17  H   UNL     1      44.643   8.155  13.617  0.00  0.00    +0.000 HD
BRANCH  16  22
ATOM     18 CL   UNL     1      44.512  12.481   9.178  0.00  0.00    +0.000 Cl
ATOM     19  C   UNL     1      44.847  11.255  10.324  0.00  0.00    +0.000 A 
ATOM     20  C   UNL     1      45.929  11.327  11.181  0.00  0.00    +0.000 A 
ATOM     21  N   UNL     1      46.210  10.364  12.102  0.00  0.00    +0.000 NA
ATOM     22  C   UNL     1      45.366   9.306  12.135  0.00  0.00    +0.000 A 
ATOM     23  C   UNL     1      44.268   9.269  11.262  0.00  0.00    +0.000 A 
ATOM     24  N   UNL     1      43.984  10.222  10.335  0.00  0.00    +0.000 NA
ENDBRANCH  16  22
ENDBRANCH   1  16
TORSDOF 4
ENDMDL
MODEL 6
REMARK VINA RESULT:    -6.229      2.794      4.530
REMARK INTER + INTRA:          -7.951
REMARK INTER:                  -7.414
REMARK INTRA:                  -0.537
REMARK UNBOUND:                -0.265
REMARK  Name = 
REMARK  4 active torsions:
REMARK  status: ('A' for Active; 'I' for Inactive)
REMARK    1  A    between atoms: C_5  and  N_6
REMARK    2  A    between atoms: N_6  and  C_7
REMARK    3  A    between atoms: C_7  and  C_8
REMARK    4  A    between atoms: C_12  and  C_13
REMARK                            x       y       z     vdW  Elec       q    Type
REMARK                         _______ _______ _______ _____ _____    ______ ____
ROOT
ATOM      1  C   UNL     1      47.406   7.773  13.070  0.00  0.00    +0.000 C 
ATOM      2  C   UNL     1      47.995   8.756  12.059  0.00  0.00    +0.000 C 
ATOM      3  C   UNL     1      48.227   7.290  11.888  0.00  0.00    +0.000 C 
ENDROOT
BRANCH   1   4
ATOM      4  C   UNL     1      48.073   7.769  14.454  0.00  0.00    +0.000 A 
ATOM      5  C   UNL     1      48.165   8.937  15.207  0.00  0.00    +0.000 A 
ATOM      6  C   UNL     1      48.608   8.873  16.522  0.00  0.00    +0.000 A 
ATOM      7  C   UNL     1      48.949   7.641  17.064  0.00  0.00    +0.000 A 
ATOM      8  C   UNL     1      48.875   6.504  16.264  0.00  0.00    +0.000 A 
ATOM      9  N   UNL     1      48.480   6.572  14.968  0.00  0.00    +0.000 NA
BRANCH   8  10
ATOM     10  C   UNL     1      49.168   5.150  16.772  0.00  0.00    +0.000 A 
ATOM     11  C   UNL     1      50.397   4.833  17.369  0.00  0.00    +0.000 A 
ATOM     12  C   UNL     1      50.613   3.548  17.841  0.00  0.00    +0.000 A 
ATOM     13  N   UNL     1      49.704   2.556  17.765  0.00  0.00    +0.000 NA
ATOM     14  C   UNL     1      48.518   2.872  17.204  0.00  0.00    +0.000 A 
ATOM     15  C   UNL     1      48.209   4.129  16.708  0.00  0.00    +0.000 A 
ENDBRANCH   8  10
ENDBRANCH   1   4
BRANCH   1  16
ATOM     16  N   UNL     1      45.927   7.661  13.064  0.00  0.00    +0.000 N 
ATOM     17  H   UNL     1      45.498   8.022  13.912  0.00  0.00    +0.000 HD
BRANCH  16  22
ATOM     18 CL   UNL     1      43.265   2.639  11.766  0.00  0.00    +0.000 Cl
ATOM     19  C   UNL     1      44.045   4.124  12.104  0.00  0.00    +0.000 A 
ATOM     20  C   UNL     1      43.821   5.259  11.348  0.00  0.00    +0.000 A 
ATOM     21  N   UNL     1      44.430   6.451  11.604  0.00  0.00    +0.000 NA
ATOM     22  C   UNL     1      45.287   6.471  12.651  0.00  0.00    +0.000 A 
ATOM     23  C   UNL     1      45.481   5.305  13.409  0.00  0.00    +0.000 A 
ATOM     24  N   UNL     1      44.884   4.111  13.156  0.00  0.00    +0.000 NA
ENDBRANCH  16  22
ENDBRANCH   1  16
TORSDOF 4
ENDMDL
MODEL 7
REMARK VINA RESULT:    -6.201      3.642      7.525
REMARK INTER + INTRA:          -7.917
REMARK INTER:                  -7.338
REMARK INTRA:                  -0.579
REMARK UNBOUND:                -0.265
REMARK  Name = 
REMARK  4 active torsions:
REMARK  status: ('A' for Active; 'I' for Inactive)
REMARK    1  A    between atoms: C_5  and  N_6
REMARK    2  A    between atoms: N_6  and  C_7
REMARK    3  A    between atoms: C_7  and  C_8
REMARK    4  A    between atoms: C_12  and  C_13
REMARK                            x       y       z     vdW  Elec       q    Type
REMARK                         _______ _______ _______ _____ _____    ______ ____
ROOT
ATOM      1  C   UNL     1      48.953   7.896  12.613  0.00  0.00    +0.000 C 
ATOM      2  C   UNL     1      49.733   8.219  11.339  0.00  0.00    +0.000 C 
ATOM      3  C   UNL     1      49.519   9.283  12.365  0.00  0.00    +0.000 C 
ENDROOT
BRANCH   1   4
ATOM      4  C   UNL     1      47.440   7.698  12.429  0.00  0.00    +0.000 A 
ATOM      5  C   UNL     1      46.540   8.701  12.781  0.00  0.00    +0.000 A 
ATOM      6  C   UNL     1      45.200   8.571  12.440  0.00  0.00    +0.000 A 
ATOM      7  C   UNL     1      44.782   7.441  11.750  0.00  0.00    +0.000 A 
ATOM      8  C   UNL     1      45.710   6.447  11.450  0.00  0.00    +0.000 A 
ATOM      9  N   UNL     1      47.011   6.556  11.817  0.00  0.00    +0.000 NA
BRANCH   8  10
ATOM     10  C   UNL     1      45.364   5.239  10.676  0.00  0.00    +0.000 A 
ATOM     11  C   UNL     1      44.695   4.153  11.259  0.00  0.00    +0.000 A 
ATOM     12  C   UNL     1      44.383   3.049  10.481  0.00  0.00    +0.000 A 
ATOM     13  N   UNL     1      44.685   2.943   9.171  0.00  0.00    +0.000 NA
ATOM     14  C   UNL     1      45.313   3.998   8.614  0.00  0.00    +0.000 A 
ATOM     15  C   UNL     1      45.662   5.145   9.309  0.00  0.00    +0.000 A 
ENDBRANCH   8  10
ENDBRANCH   1   4
BRANCH   1  16
ATOM     16  N   UNL     1      49.619   6.960  13.550  0.00  0.00    +0.000 N 
ATOM     17  H   UNL     1      49.703   6.018  13.178  0.00  0.00    +0.000 HD
BRANCH  16  22
ATOM     18 CL   UNL     1      47.992   7.190  19.144  0.00  0.00    +0.000 Cl
ATOM     19  C   UNL     1      48.486   7.081  17.510  0.00  0.00    +0.000 A 
ATOM     20  C   UNL     1      48.535   5.876  16.836  0.00  0.00    +0.000 A 
ATOM     21  N   UNL     1      48.921   5.770  15.534  0.00  0.00    +0.000 NA
ATOM     22  C   UNL     1      49.269   6.924  14.919  0.00  0.00    +0.000 A 
ATOM     23  C   UNL     1      49.194   8.135  15.625  0.00  0.00    +0.000 A 
ATOM     24  N   UNL     1      48.817   8.248  16.926  0.00  0.00    +0.000 NA
ENDBRANCH  16  22
ENDBRANCH   1  16
TORSDOF 4
ENDMDL
MODEL 8
REMARK VINA RESULT:    -6.104      3.685      7.930
REMARK INTER + INTRA:          -7.797
REMARK INTER:                  -7.479
REMARK INTRA:                  -0.318
REMARK UNBOUND:                -0.265
REMARK  Name = 
REMARK  4 active torsions:
REMARK  status: ('A' for Active; 'I' for Inactive)
REMARK    1  A    between atoms: C_5  and  N_6
REMARK    2  A    between atoms: N_6  and  C_7
REMARK    3  A    between atoms: C_7  and  C_8
REMARK    4  A    between atoms: C_12  and  C_13
REMARK                            x       y       z     vdW  Elec       q    Type
REMARK                         _______ _______ _______ _____ _____    ______ ____
ROOT
ATOM      1  C   UNL     1      48.672   5.153  17.272  0.00  0.00    +0.000 C 
ATOM      2  C   UNL     1      47.560   5.470  18.270  0.00  0.00    +0.000 C 
ATOM      3  C   UNL     1      47.616   4.122  17.630  0.00  0.00    +0.000 C 
ENDROOT
BRANCH   1   4
ATOM      4  C   UNL     1      48.556   5.852  15.908  0.00  0.00    +0.000 A 
ATOM      5  C   UNL     1      49.464   6.839  15.531  0.00  0.00    +0.000 A 
ATOM      6  C   UNL     1      49.448   7.326  14.231  0.00  0.00    +0.000 A 
ATOM      7  C   UNL     1      48.525   6.815  13.327  0.00  0.00    +0.000 A 
ATOM      8  C   UNL     1      47.614   5.854  13.756  0.00  0.00    +0.000 A 
ATOM      9  N   UNL     1      47.605   5.407  15.037  0.00  0.00    +0.000 NA
BRANCH   8  10
ATOM     10  C   UNL     1      46.636   5.221  12.851  0.00  0.00    +0.000 A 
ATOM     11  C   UNL     1      46.107   3.947  13.107  0.00  0.00    +0.000 A 
ATOM     12  C   UNL     1      45.182   3.406  12.229  0.00  0.00    +0.000 A 
ATOM     13  N   UNL     1      44.743   4.031  11.120  0.00  0.00    +0.000 NA
ATOM     14  C   UNL     1      45.242   5.263  10.888  0.00  0.00    +0.000 A 
ATOM     15  C   UNL     1      46.168   5.887  11.709  0.00  0.00    +0.000 A 
ENDBRANCH   8  10
ENDBRANCH   1   4
BRANCH   1  16
ATOM     16  N   UNL     1      50.039   5.070  17.843  0.00  0.00    +0.000 N 
ATOM     17  H   UNL     1      50.609   5.884  17.627  0.00  0.00    +0.000 HD
BRANCH  16  22
ATOM     18 CL   UNL     1      53.340   0.265  17.800  0.00  0.00    +0.000 Cl
ATOM     19  C   UNL     1      52.355   1.663  17.773  0.00  0.00    +0.000 A 
ATOM     20  C   UNL     1      51.135   1.689  17.124  0.00  0.00    +0.000 A 
ATOM     21  N   UNL     1      50.335   2.791  17.095  0.00  0.00    +0.000 NA
ATOM     22  C   UNL     1      50.803   3.886  17.738  0.00  0.00    +0.000 A 
ATOM     23  C   UNL     1      52.039   3.824  18.400  0.00  0.00    +0.000 A 
ATOM     24  N   UNL     1      52.847   2.731  18.429  0.00  0.00    +0.000 NA
ENDBRANCH  16  22
ENDBRANCH   1  16
TORSDOF 4
ENDMDL
MODEL 9
REMARK VINA RESULT:    -5.411      3.980      8.045
REMARK INTER + INTRA:          -6.941
REMARK INTER:                  -7.195
REMARK INTRA:                   0.254
REMARK UNBOUND:                -0.265
REMARK  Name = 
REMARK  4 active torsions:
REMARK  status: ('A' for Active; 'I' for Inactive)
REMARK    1  A    between atoms: C_5  and  N_6
REMARK    2  A    between atoms: N_6  and  C_7
REMARK    3  A    between atoms: C_7  and  C_8
REMARK    4  A    between atoms: C_12  and  C_13
REMARK                            x       y       z     vdW  Elec       q    Type
REMARK                         _______ _______ _______ _____ _____    ______ ____
ROOT
ATOM      1  C   UNL     1      48.562   6.625  15.402  0.00  0.00    +0.000 C 
ATOM      2  C   UNL     1      50.064   6.895  15.487  0.00  0.00    +0.000 C 
ATOM      3  C   UNL     1      49.104   7.860  16.101  0.00  0.00    +0.000 C 
ENDROOT
BRANCH   1   4
ATOM      4  C   UNL     1      47.936   6.810  14.010  0.00  0.00    +0.000 A 
ATOM      5  C   UNL     1      48.509   7.670  13.077  0.00  0.00    +0.000 A 
ATOM      6  C   UNL     1      48.032   7.683  11.772  0.00  0.00    +0.000 A 
ATOM      7  C   UNL     1      46.991   6.833  11.422  0.00  0.00    +0.000 A 
ATOM      8  C   UNL     1      46.425   6.016  12.397  0.00  0.00    +0.000 A 
ATOM      9  N   UNL     1      46.865   6.031  13.679  0.00  0.00    +0.000 NA
BRANCH   8  10
ATOM     10  C   UNL     1      45.352   5.047  12.101  0.00  0.00    +0.000 A 
ATOM     11  C   UNL     1      44.567   4.479  13.115  0.00  0.00    +0.000 A 
ATOM     12  C   UNL     1      43.565   3.583  12.778  0.00  0.00    +0.000 A 
ATOM     13  N   UNL     1      43.283   3.211  11.514  0.00  0.00    +0.000 NA
ATOM     14  C   UNL     1      44.030   3.774  10.543  0.00  0.00    +0.000 A 
ATOM     15  C   UNL     1      45.051   4.680  10.781  0.00  0.00    +0.000 A 
ENDBRANCH   8  10
ENDBRANCH   1   4
BRANCH   1  16
ATOM     16  N   UNL     1      48.076   5.462  16.181  0.00  0.00    +0.000 N 
ATOM     17  H   UNL     1      47.118   5.207  15.958  0.00  0.00    +0.000 HD
BRANCH  16  22
ATOM     18 CL   UNL     1      48.599   5.044  21.973  0.00  0.00    +0.000 Cl
ATOM     19  C   UNL     1      48.490   5.167  20.270  0.00  0.00    +0.000 A 
ATOM     20  C   UNL     1      49.459   4.647  19.433  0.00  0.00    +0.000 A 
ATOM     21  N   UNL     1      49.388   4.732  18.075  0.00  0.00    +0.000 NA
ATOM     22  C   UNL     1      48.304   5.369  17.573  0.00  0.00    +0.000 A 
ATOM     23  C   UNL     1      47.330   5.873  18.449  0.00  0.00    +0.000 A 
ATOM     24  N   UNL     1      47.397   5.799  19.804  0.00  0.00    +0.000 NA
ENDBRANCH  16  22
ENDBRANCH   1  16
TORSDOF 4
ENDMDL
