MODEL 1
REMARK VINA RESULT:    -8.898      0.000      0.000
REMARK INTER + INTRA:         -13.811
REMARK INTER:                 -12.279
REMARK INTRA:                  -1.532
REMARK UNBOUND:                -1.532
REMARK  Name = 
REMARK  8 active torsions:
REMARK  status: ('A' for Active; 'I' for Inactive)
REMARK    1  A    between atoms: C_1  and  C_2
REMARK    2  A    between atoms: C_2  and  N_3
REMARK    3  A    between atoms: C_2  and  C_16
REMARK    4  A    between atoms: C_4  and  C_6
REMARK    5  A    between atoms: C_19  and  O_20
REMARK    6  A    between atoms: C_21  and  C_22
REMARK    7  A    between atoms: C_22  and  N_23
REMARK    8  A    between atoms: C_24  and  C_26
REMARK                            x       y       z     vdW  Elec       q    Type
REMARK                         _______ _______ _______ _____ _____    ______ ____
ROOT
ATOM      1  C   UNL     1      46.321   7.309  12.463  0.00  0.00    +0.000 A 
ATOM      2  C   UNL     1      45.384   8.260  12.040  0.00  0.00    +0.000 A 
ATOM      3  C   UNL     1      44.183   7.860  11.447  0.00  0.00    +0.000 A 
ATOM      4  C   UNL     1      43.904   6.503  11.280  0.00  0.00    +0.000 A 
ATOM      5  C   UNL     1      44.804   5.525  11.713  0.00  0.00    +0.000 A 
ATOM      6  C   UNL     1      46.018   5.945  12.288  0.00  0.00    +0.000 A 
ENDROOT
BRANCH   1   8
ATOM      7  C   UNL     1      47.737   9.291  13.104  0.00  0.00    +0.000 C 
ATOM      8  C   UNL     1      47.640   7.760  13.079  0.00  0.00    +0.000 C 
BRANCH   8   9
ATOM      9  N   UNL     1      47.793   7.169  14.399  0.00  0.00    +0.000 N 
ATOM     10  C   UNL     1      49.017   6.870  14.940  0.00  0.00    +0.000 C 
ATOM     11  O   UNL     1      50.074   7.118  14.367  0.00  0.00    +0.000 OA
ATOM     12  H   UNL     1      46.972   6.711  14.785  0.00  0.00    +0.000 HD
BRANCH  10  13
ATOM     13  C   UNL     1      49.015   6.278  16.280  0.00  0.00    +0.000 A 
ATOM     14  C   UNL     1      49.673   6.922  17.318  0.00  0.00    +0.000 A 
ATOM     15  S   UNL     1      49.595   6.086  18.802  0.00  0.00    +0.000 S 
ATOM     16  C   UNL     1      48.708   4.814  18.098  0.00  0.00    +0.000 A 
ATOM     17  N   UNL     1      48.355   3.721  18.827  0.00  0.00    +0.000 NA
ATOM     18  C   UNL     1      47.713   2.822  18.157  0.00  0.00    +0.000 A 
ATOM     19  N   UNL     1      47.383   2.923  16.831  0.00  0.00    +0.000 N 
ATOM     20  C   UNL     1      47.690   4.020  16.063  0.00  0.00    +0.000 A 
ATOM     21  O   UNL     1      47.339   4.101  14.889  0.00  0.00    +0.000 OA
ATOM     22  C   UNL     1      48.440   5.044  16.761  0.00  0.00    +0.000 A 
ATOM     23  H   UNL     1      46.856   2.191  16.372  0.00  0.00    +0.000 HD
ENDBRANCH  10  13
ENDBRANCH   8   9
ENDBRANCH   1   8
BRANCH   4  24
ATOM     24  O   UNL     1      42.731   6.119  10.691  0.00  0.00    +0.000 OA
ATOM     25  H   UNL     1      42.019   6.200  11.345  0.00  0.00    +0.000 HD
ENDBRANCH   4  24
BRANCH   5  26
ATOM     26  C   UNL     1      44.506   4.051  11.596  0.00  0.00    +0.000 C 
BRANCH  26  27
ATOM     27  N   UNL     1      45.242   3.410  10.526  0.00  0.00    +0.000 N 
ATOM     28  C   UNL     1      44.905   3.568   9.200  0.00  0.00    +0.000 C 
ATOM     29  O   UNL     1      43.963   4.253   8.814  0.00  0.00    +0.000 OA
ATOM     30  H   UNL     1      46.092   2.936  10.788  0.00  0.00    +0.000 HD
BRANCH  28  31
ATOM     31  C   UNL     1      45.776   2.876   8.205  0.00  0.00    +0.000 A 
ATOM     32  C   UNL     1      46.155   1.535   8.351  0.00  0.00    +0.000 A 
ATOM     33  C   UNL     1      46.951   0.919   7.380  0.00  0.00    +0.000 A 
ATOM     34  C   UNL     1      47.367   1.636   6.259  0.00  0.00    +0.000 A 
ATOM     35  C   UNL     1      46.991   2.969   6.103  0.00  0.00    +0.000 A 
ATOM     36  C   UNL     1      46.195   3.587   7.072  0.00  0.00    +0.000 A 
ENDBRANCH  28  31
ENDBRANCH  26  27
ENDBRANCH   5  26
TORSDOF 7
ENDMDL
MODEL 2
REMARK VINA RESULT:    -8.801      1.853      2.376
REMARK INTER + INTRA:         -13.677
REMARK INTER:                 -12.664
REMARK INTRA:                  -1.014
REMARK UNBOUND:                -1.532
REMARK  Name = 
REMARK  8 active torsions:
REMARK  status: ('A' for Active; 'I' for Inactive)
REMARK    1  A    between atoms: C_1  and  C_2
REMARK    2  A    between atoms: C_2  and  N_3
REMARK    3  A    between atoms: C_2  and  C_16
REMARK    4  A    between atoms: C_4  and  C_6
REMARK    5  A    between atoms: C_19  and  O_20
REMARK    6  A    between atoms: C_21  and  C_22
REMARK    7  A    between atoms: C_22  and  N_23
REMARK    8  A    between atoms: C_24  and  C_26
REMARK                            x       y       z     vdW  Elec       q    Type
REMARK                         _______ _______ _______ _____ _____    ______ ____
ROOT
ATOM      1  C   UNL     1      46.793   6.996  12.928  0.00  0.00    +0.000 A 
ATOM      2  C   UNL     1      46.325   8.310  13.058  0.00  0.00    +0.000 A 
ATOM      3  C   UNL     1      45.151   8.713  12.415  0.00  0.00    +0.000 A 
ATOM      4  C   UNL     1      44.429   7.802  11.643  0.00  0.00    +0.000 A 
ATOM      5  C   UNL     1      44.851   6.476  11.512  0.00  0.00    +0.000 A 
ATOM      6  C   UNL     1      46.047   6.092  12.147  0.00  0.00    +0.000 A 
ENDROOT
BRANCH   1   8
ATOM      7  C   UNL     1      49.305   6.954  12.748  0.00  0.00    +0.000 C 
ATOM      8  C   UNL     1      48.091   6.578  13.609  0.00  0.00    +0.000 C 
BRANCH   8   9
ATOM      9  N   UNL     1      48.153   7.153  14.943  0.00  0.00    +0.000 N 
ATOM     10  C   UNL     1      48.673   6.477  16.017  0.00  0.00    +0.000 C 
ATOM     11  O   UNL     1      49.162   5.355  15.922  0.00  0.00    +0.000 OA
ATOM     12  H   UNL     1      47.538   7.941  15.123  0.00  0.00    +0.000 HD
BRANCH  10  13
ATOM     13  C   UNL     1      48.669   7.184  17.301  0.00  0.00    +0.000 A 
ATOM     14  C   UNL     1      49.363   8.379  17.431  0.00  0.00    +0.000 A 
ATOM     15  S   UNL     1      49.276   9.054  18.994  0.00  0.00    +0.000 S 
ATOM     16  C   UNL     1      48.337   7.752  19.561  0.00  0.00    +0.000 A 
ATOM     17  N   UNL     1      47.956   7.681  20.865  0.00  0.00    +0.000 NA
ATOM     18  C   UNL     1      47.274   6.623  21.161  0.00  0.00    +0.000 A 
ATOM     19  N   UNL     1      46.929   5.642  20.270  0.00  0.00    +0.000 N 
ATOM     20  C   UNL     1      47.264   5.686  18.938  0.00  0.00    +0.000 A 
ATOM     21  O   UNL     1      46.900   4.813  18.155  0.00  0.00    +0.000 OA
ATOM     22  C   UNL     1      48.059   6.837  18.562  0.00  0.00    +0.000 A 
ATOM     23  H   UNL     1      46.372   4.850  20.563  0.00  0.00    +0.000 HD
ENDBRANCH  10  13
ENDBRANCH   8   9
ENDBRANCH   1   8
BRANCH   4  24
ATOM     24  O   UNL     1      43.286   8.205  11.009  0.00  0.00    +0.000 OA
ATOM     25  H   UNL     1      42.537   8.066  11.611  0.00  0.00    +0.000 HD
ENDBRANCH   4  24
BRANCH   5  26
ATOM     26  C   UNL     1      44.063   5.455  10.730  0.00  0.00    +0.000 C 
BRANCH  26  27
ATOM     27  N   UNL     1      44.857   4.778   9.725  0.00  0.00    +0.000 N 
ATOM     28  C   UNL     1      44.705   3.438   9.442  0.00  0.00    +0.000 C 
ATOM     29  O   UNL     1      43.899   2.711  10.012  0.00  0.00    +0.000 OA
ATOM     30  H   UNL     1      45.446   5.361   9.151  0.00  0.00    +0.000 HD
BRANCH  28  31
ATOM     31  C   UNL     1      45.566   2.886   8.356  0.00  0.00    +0.000 A 
ATOM     32  C   UNL     1      45.988   3.664   7.269  0.00  0.00    +0.000 A 
ATOM     33  C   UNL     1      46.816   3.110   6.288  0.00  0.00    +0.000 A 
ATOM     34  C   UNL     1      47.231   1.783   6.389  0.00  0.00    +0.000 A 
ATOM     35  C   UNL     1      46.821   1.003   7.469  0.00  0.00    +0.000 A 
ATOM     36  C   UNL     1      45.993   1.554   8.452  0.00  0.00    +0.000 A 
ENDBRANCH  28  31
ENDBRANCH  26  27
ENDBRANCH   5  26
TORSDOF 7
ENDMDL
MODEL 3
REMARK VINA RESULT:    -8.505      2.026      2.779
REMARK INTER + INTRA:         -13.268
REMARK INTER:                 -12.030
REMARK INTRA:                  -1.238
REMARK UNBOUND:                -1.532
REMARK  Name = 
REMARK  8 active torsions:
REMARK  status: ('A' for Active; 'I' for Inactive)
REMARK    1  A    between atoms: C_1  and  C_2
REMARK    2  A    between atoms: C_2  and  N_3
REMARK    3  A    between atoms: C_2  and  C_16
REMARK    4  A    between atoms: C_4  and  C_6
REMARK    5  A    between atoms: C_19  and  O_20
REMARK    6  A    between atoms: C_21  and  C_22
REMARK    7  A    between atoms: C_22  and  N_23
REMARK    8  A    between atoms: C_24  and  C_26
REMARK                            x       y       z     vdW  Elec       q    Type
REMARK                         _______ _______ _______ _____ _____    ______ ____
ROOT
ATOM      1  C   UNL     1      46.044   6.781  12.771  0.00  0.00    +0.000 A 
ATOM      2  C   UNL     1      46.532   5.834  13.680  0.00  0.00    +0.000 A 
ATOM      3  C   UNL     1      46.148   4.493  13.585  0.00  0.00    +0.000 A 
ATOM      4  C   UNL     1      45.278   4.086  12.573  0.00  0.00    +0.000 A 
ATOM      5  C   UNL     1      44.790   4.998  11.633  0.00  0.00    +0.000 A 
ATOM      6  C   UNL     1      45.169   6.348  11.756  0.00  0.00    +0.000 A 
ENDROOT
BRANCH   1   8
ATOM      7  C   UNL     1      45.276   9.169  12.540  0.00  0.00    +0.000 C 
ATOM      8  C   UNL     1      46.445   8.245  12.906  0.00  0.00    +0.000 C 
BRANCH   8   9
ATOM      9  N   UNL     1      46.954   8.493  14.246  0.00  0.00    +0.000 N 
ATOM     10  C   UNL     1      48.294   8.522  14.537  0.00  0.00    +0.000 C 
ATOM     11  O   UNL     1      49.162   8.382  13.680  0.00  0.00    +0.000 OA
ATOM     12  H   UNL     1      46.299   8.350  15.010  0.00  0.00    +0.000 HD
BRANCH  10  13
ATOM     13  C   UNL     1      48.657   8.783  15.932  0.00  0.00    +0.000 A 
ATOM     14  C   UNL     1      48.593  10.078  16.428  0.00  0.00    +0.000 A 
ATOM     15  S   UNL     1      49.074  10.209  18.059  0.00  0.00    +0.000 S 
ATOM     16  C   UNL     1      49.419   8.544  18.146  0.00  0.00    +0.000 A 
ATOM     17  N   UNL     1      49.932   7.995  19.280  0.00  0.00    +0.000 NA
ATOM     18  C   UNL     1      50.173   6.728  19.194  0.00  0.00    +0.000 A 
ATOM     19  N   UNL     1      49.936   5.962  18.083  0.00  0.00    +0.000 N 
ATOM     20  C   UNL     1      49.390   6.466  16.927  0.00  0.00    +0.000 A 
ATOM     21  O   UNL     1      49.146   5.743  15.965  0.00  0.00    +0.000 OA
ATOM     22  C   UNL     1      49.132   7.890  16.962  0.00  0.00    +0.000 A 
ATOM     23  H   UNL     1      50.126   4.968  18.090  0.00  0.00    +0.000 HD
ENDBRANCH  10  13
ENDBRANCH   8   9
ENDBRANCH   1   8
BRANCH   4  24
ATOM     24  O   UNL     1      44.899   2.775  12.491  0.00  0.00    +0.000 OA
ATOM     25  H   UNL     1      44.438   2.641  11.648  0.00  0.00    +0.000 HD
ENDBRANCH   4  24
BRANCH   5  26
ATOM     26  C   UNL     1      43.893   4.578  10.496  0.00  0.00    +0.000 C 
BRANCH  26  27
ATOM     27  N   UNL     1      44.557   3.718   9.540  0.00  0.00    +0.000 N 
ATOM     28  C   UNL     1      45.503   4.188   8.654  0.00  0.00    +0.000 C 
ATOM     29  O   UNL     1      45.855   5.362   8.596  0.00  0.00    +0.000 OA
ATOM     30  H   UNL     1      44.387   2.729   9.632  0.00  0.00    +0.000 HD
BRANCH  28  31
ATOM     31  C   UNL     1      46.130   3.179   7.752  0.00  0.00    +0.000 A 
ATOM     32  C   UNL     1      46.616   3.514   6.481  0.00  0.00    +0.000 A 
ATOM     33  C   UNL     1      47.219   2.540   5.680  0.00  0.00    +0.000 A 
ATOM     34  C   UNL     1      47.346   1.232   6.144  0.00  0.00    +0.000 A 
ATOM     35  C   UNL     1      46.872   0.890   7.410  0.00  0.00    +0.000 A 
ATOM     36  C   UNL     1      46.267   1.862   8.213  0.00  0.00    +0.000 A 
ENDBRANCH  28  31
ENDBRANCH  26  27
ENDBRANCH   5  26
TORSDOF 7
ENDMDL
MODEL 4
REMARK VINA RESULT:    -7.956      2.084      2.952
REMARK INTER + INTRA:         -12.511
REMARK INTER:                 -11.271
REMARK INTRA:                  -1.240
REMARK UNBOUND:                -1.532
REMARK  Name = 
REMARK  8 active torsions:
REMARK  status: ('A' for Active; 'I' for Inactive)
REMARK    1  A    between atoms: C_1  and  C_2
REMARK    2  A    between atoms: C_2  and  N_3
REMARK    3  A    between atoms: C_2  and  C_16
REMARK    4  A    between atoms: C_4  and  C_6
REMARK    5  A    between atoms: C_19  and  O_20
REMARK    6  A    between atoms: C_21  and  C_22
REMARK    7  A    between atoms: C_22  and  N_23
REMARK    8  A    between atoms: C_24  and  C_26
REMARK                            x       y       z     vdW  Elec       q    Type
REMARK                         _______ _______ _______ _____ _____    ______ ____
ROOT
ATOM      1  C   UNL     1      47.013   6.821  13.258  0.00  0.00    +0.000 A 
ATOM      2  C   UNL     1      46.532   8.120  13.053  0.00  0.00    +0.000 A 
ATOM      3  C   UNL     1      45.363   8.339  12.320  0.00  0.00    +0.000 A 
ATOM      4  C   UNL     1      44.657   7.257  11.793  0.00  0.00    +0.000 A 
ATOM      5  C   UNL     1      45.092   5.945  11.998  0.00  0.00    +0.000 A 
ATOM      6  C   UNL     1      46.283   5.743  12.719  0.00  0.00    +0.000 A 
ENDROOT
BRANCH   1   8
ATOM      7  C   UNL     1      49.439   7.465  13.464  0.00  0.00    +0.000 C 
ATOM      8  C   UNL     1      48.307   6.599  14.032  0.00  0.00    +0.000 C 
BRANCH   8   9
ATOM      9  N   UNL     1      48.079   6.838  15.448  0.00  0.00    +0.000 N 
ATOM     10  C   UNL     1      48.764   6.171  16.432  0.00  0.00    +0.000 C 
ATOM     11  O   UNL     1      49.649   5.356  16.188  0.00  0.00    +0.000 OA
ATOM     12  H   UNL     1      47.201   7.287  15.694  0.00  0.00    +0.000 HD
BRANCH  10  13
ATOM     13  C   UNL     1      48.428   6.517  17.815  0.00  0.00    +0.000 A 
ATOM     14  C   UNL     1      47.867   5.558  18.647  0.00  0.00    +0.000 A 
ATOM     15  S   UNL     1      47.514   6.133  20.213  0.00  0.00    +0.000 S 
ATOM     16  C   UNL     1      48.064   7.696  19.821  0.00  0.00    +0.000 A 
ATOM     17  N   UNL     1      47.987   8.710  20.723  0.00  0.00    +0.000 NA
ATOM     18  C   UNL     1      48.413   9.848  20.279  0.00  0.00    +0.000 A 
ATOM     19  N   UNL     1      48.918  10.056  19.023  0.00  0.00    +0.000 N 
ATOM     20  C   UNL     1      49.044   9.055  18.089  0.00  0.00    +0.000 A 
ATOM     21  O   UNL     1      49.544   9.265  16.988  0.00  0.00    +0.000 OA
ATOM     22  C   UNL     1      48.550   7.767  18.527  0.00  0.00    +0.000 A 
ATOM     23  H   UNL     1      49.257  10.968  18.747  0.00  0.00    +0.000 HD
ENDBRANCH  10  13
ENDBRANCH   8   9
ENDBRANCH   1   8
BRANCH   4  24
ATOM     24  O   UNL     1      43.518   7.478  11.068  0.00  0.00    +0.000 OA
ATOM     25  H   UNL     1      42.753   7.327  11.647  0.00  0.00    +0.000 HD
ENDBRANCH   4  24
BRANCH   5  26
ATOM     26  C   UNL     1      44.321   4.753  11.487  0.00  0.00    +0.000 C 
BRANCH  26  27
ATOM     27  N   UNL     1      45.075   3.956  10.543  0.00  0.00    +0.000 N 
ATOM     28  C   UNL     1      44.748   3.886   9.206  0.00  0.00    +0.000 C 
ATOM     29  O   UNL     1      43.800   4.482   8.707  0.00  0.00    +0.000 OA
ATOM     30  H   UNL     1      45.931   3.545  10.884  0.00  0.00    +0.000 HD
BRANCH  28  31
ATOM     31  C   UNL     1      45.638   3.053   8.345  0.00  0.00    +0.000 A 
ATOM     32  C   UNL     1      45.804   1.678   8.555  0.00  0.00    +0.000 A 
ATOM     33  C   UNL     1      46.629   0.932   7.707  0.00  0.00    +0.000 A 
ATOM     34  C   UNL     1      47.285   1.552   6.645  0.00  0.00    +0.000 A 
ATOM     35  C   UNL     1      47.121   2.919   6.425  0.00  0.00    +0.000 A 
ATOM     36  C   UNL     1      46.298   3.667   7.271  0.00  0.00    +0.000 A 
ENDBRANCH  28  31
ENDBRANCH  26  27
ENDBRANCH   5  26
TORSDOF 7
ENDMDL
MODEL 5
REMARK VINA RESULT:    -7.941      2.664      4.169
REMARK INTER + INTRA:         -12.490
REMARK INTER:                 -11.289
REMARK INTRA:                  -1.202
REMARK UNBOUND:                -1.532
REMARK  Name = 
REMARK  8 active torsions:
REMARK  status: ('A' for Active; 'I' for Inactive)
REMARK    1  A    between atoms: C_1  and  C_2
REMARK    2  A    between atoms: C_2  and  N_3
REMARK    3  A    between atoms: C_2  and  C_16
REMARK    4  A    between atoms: C_4  and  C_6
REMARK    5  A    between atoms: C_19  and  O_20
REMARK    6  A    between atoms: C_21  and  C_22
REMARK    7  A    between atoms: C_22  and  N_23
REMARK    8  A    between atoms: C_24  and  C_26
REMARK                            x       y       z     vdW  Elec       q    Type
REMARK                         _______ _______ _______ _____ _____    ______ ____
ROOT
ATOM      1  C   UNL     1      45.950   6.872  12.740  0.00  0.00    +0.000 A 
ATOM      2  C   UNL     1      46.446   5.940  13.660  0.00  0.00    +0.000 A 
ATOM      3  C   UNL     1      46.076   4.595  13.580  0.00  0.00    +0.000 A 
ATOM      4  C   UNL     1      45.212   4.168  12.571  0.00  0.00    +0.000 A 
ATOM      5  C   UNL     1      44.716   5.064  11.620  0.00  0.00    +0.000 A 
ATOM      6  C   UNL     1      45.081   6.419  11.729  0.00  0.00    +0.000 A 
ENDROOT
BRANCH   1   8
ATOM      7  C   UNL     1      45.137   9.249  12.557  0.00  0.00    +0.000 C 
ATOM      8  C   UNL     1      46.337   8.342  12.860  0.00  0.00    +0.000 C 
BRANCH   8   9
ATOM      9  N   UNL     1      46.910   8.593  14.172  0.00  0.00    +0.000 N 
ATOM     10  C   UNL     1      48.247   8.828  14.364  0.00  0.00    +0.000 C 
ATOM     11  O   UNL     1      49.051   8.885  13.438  0.00  0.00    +0.000 OA
ATOM     12  H   UNL     1      46.354   8.299  14.970  0.00  0.00    +0.000 HD
BRANCH  10  13
ATOM     13  C   UNL     1      48.680   9.066  15.744  0.00  0.00    +0.000 A 
ATOM     14  C   UNL     1      48.748   8.005  16.636  0.00  0.00    +0.000 A 
ATOM     15  S   UNL     1      49.244   8.459  18.202  0.00  0.00    +0.000 S 
ATOM     16  C   UNL     1      49.350  10.098  17.751  0.00  0.00    +0.000 A 
ATOM     17  N   UNL     1      49.680  11.053  18.660  0.00  0.00    +0.000 NA
ATOM     18  C   UNL     1      49.693  12.256  18.185  0.00  0.00    +0.000 A 
ATOM     19  N   UNL     1      49.419  12.583  16.884  0.00  0.00    +0.000 N 
ATOM     20  C   UNL     1      49.112  11.650  15.923  0.00  0.00    +0.000 A 
ATOM     21  O   UNL     1      48.918  11.972  14.754  0.00  0.00    +0.000 OA
ATOM     22  C   UNL     1      49.053  10.289  16.414  0.00  0.00    +0.000 A 
ATOM     23  H   UNL     1      49.470  13.545  16.571  0.00  0.00    +0.000 HD
ENDBRANCH  10  13
ENDBRANCH   8   9
ENDBRANCH   1   8
BRANCH   4  24
ATOM     24  O   UNL     1      44.846   2.851  12.503  0.00  0.00    +0.000 OA
ATOM     25  H   UNL     1      43.988   2.795  12.051  0.00  0.00    +0.000 HD
ENDBRANCH   4  24
BRANCH   5  26
ATOM     26  C   UNL     1      43.825   4.623  10.486  0.00  0.00    +0.000 C 
BRANCH  26  27
ATOM     27  N   UNL     1      44.496   3.748   9.548  0.00  0.00    +0.000 N 
ATOM     28  C   UNL     1      45.457   4.202   8.671  0.00  0.00    +0.000 C 
ATOM     29  O   UNL     1      45.819   5.372   8.606  0.00  0.00    +0.000 OA
ATOM     30  H   UNL     1      44.316   2.761   9.647  0.00  0.00    +0.000 HD
BRANCH  28  31
ATOM     31  C   UNL     1      46.089   3.179   7.787  0.00  0.00    +0.000 A 
ATOM     32  C   UNL     1      46.597   3.498   6.521  0.00  0.00    +0.000 A 
ATOM     33  C   UNL     1      47.204   2.511   5.738  0.00  0.00    +0.000 A 
ATOM     34  C   UNL     1      47.311   1.206   6.216  0.00  0.00    +0.000 A 
ATOM     35  C   UNL     1      46.814   0.881   7.477  0.00  0.00    +0.000 A 
ATOM     36  C   UNL     1      46.207   1.865   8.262  0.00  0.00    +0.000 A 
ENDBRANCH  28  31
ENDBRANCH  26  27
ENDBRANCH   5  26
TORSDOF 7
ENDMDL
MODEL 6
REMARK VINA RESULT:    -7.678      1.904      2.748
REMARK INTER + INTRA:         -12.127
REMARK INTER:                 -10.850
REMARK INTRA:                  -1.278
REMARK UNBOUND:                -1.532
REMARK  Name = 
REMARK  8 active torsions:
REMARK  status: ('A' for Active; 'I' for Inactive)
REMARK    1  A    between atoms: C_1  and  C_2
REMARK    2  A    between atoms: C_2  and  N_3
REMARK    3  A    between atoms: C_2  and  C_16
REMARK    4  A    between atoms: C_4  and  C_6
REMARK    5  A    between atoms: C_19  and  O_20
REMARK    6  A    between atoms: C_21  and  C_22
REMARK    7  A    between atoms: C_22  and  N_23
REMARK    8  A    between atoms: C_24  and  C_26
REMARK                            x       y       z     vdW  Elec       q    Type
REMARK                         _______ _______ _______ _____ _____    ______ ____
ROOT
ATOM      1  C   UNL     1      46.984   8.817  12.992  0.00  0.00    +0.000 A 
ATOM      2  C   UNL     1      46.532  10.048  12.500  0.00  0.00    +0.000 A 
ATOM      3  C   UNL     1      45.383  10.120  11.710  0.00  0.00    +0.000 A 
ATOM      4  C   UNL     1      44.668   8.959  11.410  0.00  0.00    +0.000 A 
ATOM      5  C   UNL     1      45.073   7.716  11.904  0.00  0.00    +0.000 A 
ATOM      6  C   UNL     1      46.246   7.659  12.680  0.00  0.00    +0.000 A 
ENDROOT
BRANCH   1   8
ATOM      7  C   UNL     1      48.766  10.157  14.164  0.00  0.00    +0.000 C 
ATOM      8  C   UNL     1      48.258   8.749  13.826  0.00  0.00    +0.000 C 
BRANCH   8   9
ATOM      9  N   UNL     1      48.025   7.941  15.013  0.00  0.00    +0.000 N 
ATOM     10  C   UNL     1      48.911   6.987  15.445  0.00  0.00    +0.000 C 
ATOM     11  O   UNL     1      49.984   6.776  14.886  0.00  0.00    +0.000 OA
ATOM     12  H   UNL     1      47.065   7.889  15.341  0.00  0.00    +0.000 HD
BRANCH  10  13
ATOM     13  C   UNL     1      48.542   6.250  16.656  0.00  0.00    +0.000 A 
ATOM     14  C   UNL     1      48.414   4.869  16.609  0.00  0.00    +0.000 A 
ATOM     15  S   UNL     1      47.955   4.174  18.096  0.00  0.00    +0.000 S 
ATOM     16  C   UNL     1      47.876   5.701  18.846  0.00  0.00    +0.000 A 
ATOM     17  N   UNL     1      47.480   5.824  20.141  0.00  0.00    +0.000 NA
ATOM     18  C   UNL     1      47.438   7.043  20.569  0.00  0.00    +0.000 A 
ATOM     19  N   UNL     1      47.768   8.143  19.824  0.00  0.00    +0.000 N 
ATOM     20  C   UNL     1      48.203   8.066  18.523  0.00  0.00    +0.000 A 
ATOM     21  O   UNL     1      48.535   9.068  17.897  0.00  0.00    +0.000 OA
ATOM     22  C   UNL     1      48.236   6.722  17.986  0.00  0.00    +0.000 A 
ATOM     23  H   UNL     1      47.735   9.070  20.229  0.00  0.00    +0.000 HD
ENDBRANCH  10  13
ENDBRANCH   8   9
ENDBRANCH   1   8
BRANCH   4  24
ATOM     24  O   UNL     1      43.548   9.035  10.628  0.00  0.00    +0.000 OA
ATOM     25  H   UNL     1      43.411   9.963  10.378  0.00  0.00    +0.000 HD
ENDBRANCH   4  24
BRANCH   5  26
ATOM     26  C   UNL     1      44.291   6.454  11.643  0.00  0.00    +0.000 C 
BRANCH  26  27
ATOM     27  N   UNL     1      44.919   5.592  10.664  0.00  0.00    +0.000 N 
ATOM     28  C   UNL     1      44.342   4.417  10.234  0.00  0.00    +0.000 C 
ATOM     29  O   UNL     1      43.262   4.002  10.641  0.00  0.00    +0.000 OA
ATOM     30  H   UNL     1      45.748   5.952  10.216  0.00  0.00    +0.000 HD
BRANCH  28  31
ATOM     31  C   UNL     1      45.089   3.650   9.194  0.00  0.00    +0.000 A 
ATOM     32  C   UNL     1      45.752   4.282   8.133  0.00  0.00    +0.000 A 
ATOM     33  C   UNL     1      46.460   3.524   7.196  0.00  0.00    +0.000 A 
ATOM     34  C   UNL     1      46.516   2.137   7.316  0.00  0.00    +0.000 A 
ATOM     35  C   UNL     1      45.865   1.500   8.371  0.00  0.00    +0.000 A 
ATOM     36  C   UNL     1      45.155   2.255   9.309  0.00  0.00    +0.000 A 
ENDBRANCH  28  31
ENDBRANCH  26  27
ENDBRANCH   5  26
TORSDOF 7
ENDMDL
MODEL 7
REMARK VINA RESULT:    -7.500      3.133      8.387
REMARK INTER + INTRA:         -11.881
REMARK INTER:                 -10.514
REMARK INTRA:                  -1.368
REMARK UNBOUND:                -1.532
REMARK  Name = 
REMARK  8 active torsions:
REMARK  status: ('A' for Active; 'I' for Inactive)
REMARK    1  A    between atoms: C_1  and  C_2
REMARK    2  A    between atoms: C_2  and  N_3
REMARK    3  A    between atoms: C_2  and  C_16
REMARK    4  A    between atoms: C_4  and  C_6
REMARK    5  A    between atoms: C_19  and  O_20
REMARK    6  A    between atoms: C_21  and  C_22
REMARK    7  A    between atoms: C_22  and  N_23
REMARK    8  A    between atoms: C_24  and  C_26
REMARK                            x       y       z     vdW  Elec       q    Type
REMARK                         _______ _______ _______ _____ _____    ______ ____
ROOT
ATOM      1  C   UNL     1      48.372   7.424  14.179  0.00  0.00    +0.000 A 
ATOM      2  C   UNL     1      49.026   8.520  14.757  0.00  0.00    +0.000 A 
ATOM      3  C   UNL     1      49.450   8.475  16.087  0.00  0.00    +0.000 A 
ATOM      4  C   UNL     1      49.231   7.328  16.851  0.00  0.00    +0.000 A 
ATOM      5  C   UNL     1      48.605   6.205  16.303  0.00  0.00    +0.000 A 
ATOM      6  C   UNL     1      48.164   6.275  14.968  0.00  0.00    +0.000 A 
ENDROOT
BRANCH   1   8
ATOM      7  C   UNL     1      49.067   7.647  11.769  0.00  0.00    +0.000 C 
ATOM      8  C   UNL     1      47.886   7.498  12.737  0.00  0.00    +0.000 C 
BRANCH   8   9
ATOM      9  N   UNL     1      47.061   6.339  12.436  0.00  0.00    +0.000 N 
ATOM     10  C   UNL     1      45.821   6.441  11.858  0.00  0.00    +0.000 C 
ATOM     11  O   UNL     1      45.337   7.516  11.514  0.00  0.00    +0.000 OA
ATOM     12  H   UNL     1      47.291   5.482  12.931  0.00  0.00    +0.000 HD
BRANCH  10  13
ATOM     13  C   UNL     1      45.105   5.186  11.614  0.00  0.00    +0.000 A 
ATOM     14  C   UNL     1      44.410   4.579  12.651  0.00  0.00    +0.000 A 
ATOM     15  S   UNL     1      43.657   3.116  12.203  0.00  0.00    +0.000 S 
ATOM     16  C   UNL     1      44.266   3.226  10.617  0.00  0.00    +0.000 A 
ATOM     17  N   UNL     1      44.032   2.242   9.709  0.00  0.00    +0.000 NA
ATOM     18  C   UNL     1      44.580   2.443   8.555  0.00  0.00    +0.000 A 
ATOM     19  N   UNL     1      45.328   3.543   8.228  0.00  0.00    +0.000 N 
ATOM     20  C   UNL     1      45.565   4.577   9.101  0.00  0.00    +0.000 A 
ATOM     21  O   UNL     1      46.199   5.571   8.762  0.00  0.00    +0.000 OA
ATOM     22  C   UNL     1      44.998   4.383  10.420  0.00  0.00    +0.000 A 
ATOM     23  H   UNL     1      45.709   3.650   7.296  0.00  0.00    +0.000 HD
ENDBRANCH  10  13
ENDBRANCH   8   9
ENDBRANCH   1   8
BRANCH   4  24
ATOM     24  O   UNL     1      49.641   7.294  18.156  0.00  0.00    +0.000 OA
ATOM     25  H   UNL     1      49.419   8.144  18.569  0.00  0.00    +0.000 HD
ENDBRANCH   4  24
BRANCH   5  26
ATOM     26  C   UNL     1      48.404   4.933  17.087  0.00  0.00    +0.000 C 
BRANCH  26  27
ATOM     27  N   UNL     1      49.650   4.299  17.464  0.00  0.00    +0.000 N 
ATOM     28  C   UNL     1      49.951   2.999  17.124  0.00  0.00    +0.000 C 
ATOM     29  O   UNL     1      49.197   2.272  16.484  0.00  0.00    +0.000 OA
ATOM     30  H   UNL     1      50.346   4.894  17.886  0.00  0.00    +0.000 HD
BRANCH  28  31
ATOM     31  C   UNL     1      51.288   2.491  17.550  0.00  0.00    +0.000 A 
ATOM     32  C   UNL     1      51.654   1.146  17.411  0.00  0.00    +0.000 A 
ATOM     33  C   UNL     1      52.928   0.720  17.800  0.00  0.00    +0.000 A 
ATOM     34  C   UNL     1      53.842   1.633  18.323  0.00  0.00    +0.000 A 
ATOM     35  C   UNL     1      53.489   2.975  18.459  0.00  0.00    +0.000 A 
ATOM     36  C   UNL     1      52.216   3.404  18.071  0.00  0.00    +0.000 A 
ENDBRANCH  28  31
ENDBRANCH  26  27
ENDBRANCH   5  26
TORSDOF 7
ENDMDL
MODEL 8
REMARK VINA RESULT:    -7.469      3.154      6.474
REMARK INTER + INTRA:         -11.839
REMARK INTER:                  -9.358
REMARK INTRA:                  -2.482
REMARK UNBOUND:                -1.532
REMARK  Name = 
REMARK  8 active torsions:
REMARK  status: ('A' for Active; 'I' for Inactive)
REMARK    1  A    between atoms: C_1  and  C_2
REMARK    2  A    between atoms: C_2  and  N_3
REMARK    3  A    between atoms: C_2  and  C_16
REMARK    4  A    between atoms: C_4  and  C_6
REMARK    5  A    between atoms: C_19  and  O_20
REMARK    6  A    between atoms: C_21  and  C_22
REMARK    7  A    between atoms: C_22  and  N_23
REMARK    8  A    between atoms: C_24  and  C_26
REMARK                            x       y       z     vdW  Elec       q    Type
REMARK                         _______ _______ _______ _____ _____    ______ ____
ROOT
ATOM      1  C   UNL     1      46.027   6.947  12.572  0.00  0.00    +0.000 A 
ATOM      2  C   UNL     1      45.141   6.531  11.570  0.00  0.00    +0.000 A 
ATOM      3  C   UNL     1      44.863   5.174  11.384  0.00  0.00    +0.000 A 
ATOM      4  C   UNL     1      45.464   4.220  12.206  0.00  0.00    +0.000 A 
ATOM      5  C   UNL     1      46.334   4.598  13.233  0.00  0.00    +0.000 A 
ATOM      6  C   UNL     1      46.620   5.967  13.392  0.00  0.00    +0.000 A 
ENDROOT
BRANCH   1   8
ATOM      7  C   UNL     1      45.087   9.283  12.549  0.00  0.00    +0.000 C 
ATOM      8  C   UNL     1      46.346   8.427  12.742  0.00  0.00    +0.000 C 
BRANCH   8   9
ATOM      9  N   UNL     1      46.978   8.648  14.033  0.00  0.00    +0.000 N 
ATOM     10  C   UNL     1      48.280   9.062  14.159  0.00  0.00    +0.000 C 
ATOM     11  O   UNL     1      48.992   9.317  13.192  0.00  0.00    +0.000 OA
ATOM     12  H   UNL     1      46.534   8.207  14.833  0.00  0.00    +0.000 HD
BRANCH  10  13
ATOM     13  C   UNL     1      48.781   9.242  15.524  0.00  0.00    +0.000 A 
ATOM     14  C   UNL     1      48.659  10.478  16.145  0.00  0.00    +0.000 A 
ATOM     15  S   UNL     1      49.316  10.521  17.717  0.00  0.00    +0.000 S 
ATOM     16  C   UNL     1      49.820   8.898  17.609  0.00  0.00    +0.000 A 
ATOM     17  N   UNL     1      50.512   8.311  18.622  0.00  0.00    +0.000 NA
ATOM     18  C   UNL     1      50.856   7.087  18.390  0.00  0.00    +0.000 A 
ATOM     19  N   UNL     1      50.558   6.396  17.245  0.00  0.00    +0.000 N 
ATOM     20  C   UNL     1      49.835   6.936  16.209  0.00  0.00    +0.000 A 
ATOM     21  O   UNL     1      49.545   6.275  15.216  0.00  0.00    +0.000 OA
ATOM     22  C   UNL     1      49.454   8.319  16.407  0.00  0.00    +0.000 A 
ATOM     23  H   UNL     1      50.838   5.429  17.138  0.00  0.00    +0.000 HD
ENDBRANCH  10  13
ENDBRANCH   8   9
ENDBRANCH   1   8
BRANCH   4  24
ATOM     24  O   UNL     1      45.195   2.892  12.013  0.00  0.00    +0.000 OA
ATOM     25  H   UNL     1      44.271   2.805  11.731  0.00  0.00    +0.000 HD
ENDBRANCH   4  24
BRANCH   5  26
ATOM     26  C   UNL     1      46.955   3.595  14.171  0.00  0.00    +0.000 C 
BRANCH  26  27
ATOM     27  N   UNL     1      47.089   4.094  15.524  0.00  0.00    +0.000 N 
ATOM     28  C   UNL     1      47.901   3.489  16.458  0.00  0.00    +0.000 C 
ATOM     29  O   UNL     1      48.569   2.486  16.230  0.00  0.00    +0.000 OA
ATOM     30  H   UNL     1      46.653   4.981  15.720  0.00  0.00    +0.000 HD
BRANCH  28  31
ATOM     31  C   UNL     1      47.968   4.137  17.801  0.00  0.00    +0.000 A 
ATOM     32  C   UNL     1      48.819   3.672  18.812  0.00  0.00    +0.000 A 
ATOM     33  C   UNL     1      48.867   4.326  20.047  0.00  0.00    +0.000 A 
ATOM     34  C   UNL     1      48.073   5.448  20.276  0.00  0.00    +0.000 A 
ATOM     35  C   UNL     1      47.227   5.922  19.274  0.00  0.00    +0.000 A 
ATOM     36  C   UNL     1      47.177   5.269  18.039  0.00  0.00    +0.000 A 
ENDBRANCH  28  31
ENDBRANCH  26  27
ENDBRANCH   5  26
TORSDOF 7
ENDMDL
MODEL 9
REMARK VINA RESULT:    -7.162      3.748      9.744
REMARK INTER + INTRA:         -11.415
REMARK INTER:                 -10.163
REMARK INTRA:                  -1.252
REMARK UNBOUND:                -1.532
REMARK  Name = 
REMARK  8 active torsions:
REMARK  status: ('A' for Active; 'I' for Inactive)
REMARK    1  A    between atoms: C_1  and  C_2
REMARK    2  A    between atoms: C_2  and  N_3
REMARK    3  A    between atoms: C_2  and  C_16
REMARK    4  A    between atoms: C_4  and  C_6
REMARK    5  A    between atoms: C_19  and  O_20
REMARK    6  A    between atoms: C_21  and  C_22
REMARK    7  A    between atoms: C_22  and  N_23
REMARK    8  A    between atoms: C_24  and  C_26
REMARK                            x       y       z     vdW  Elec       q    Type
REMARK                         _______ _______ _______ _____ _____    ______ ____
ROOT
ATOM      1  C   UNL     1      48.956   3.933  16.983  0.00  0.00    +0.000 A 
ATOM      2  C   UNL     1      50.038   3.100  17.297  0.00  0.00    +0.000 A 
ATOM      3  C   UNL     1      51.252   3.642  17.728  0.00  0.00    +0.000 A 
ATOM      4  C   UNL     1      51.391   5.024  17.859  0.00  0.00    +0.000 A 
ATOM      5  C   UNL     1      50.327   5.885  17.580  0.00  0.00    +0.000 A 
ATOM      6  C   UNL     1      49.119   5.324  17.125  0.00  0.00    +0.000 A 
ENDROOT
BRANCH   1   8
ATOM      7  C   UNL     1      46.774   2.870  17.657  0.00  0.00    +0.000 C 
ATOM      8  C   UNL     1      47.649   3.330  16.483  0.00  0.00    +0.000 C 
BRANCH   8   9
ATOM      9  N   UNL     1      46.968   4.282  15.619  0.00  0.00    +0.000 N 
ATOM     10  C   UNL     1      46.837   4.093  14.267  0.00  0.00    +0.000 C 
ATOM     11  O   UNL     1      47.248   3.088  13.695  0.00  0.00    +0.000 OA
ATOM     12  H   UNL     1      46.855   5.222  15.987  0.00  0.00    +0.000 HD
BRANCH  10  13
ATOM     13  C   UNL     1      46.127   5.138  13.525  0.00  0.00    +0.000 A 
ATOM     14  C   UNL     1      46.659   6.418  13.460  0.00  0.00    +0.000 A 
ATOM     15  S   UNL     1      45.693   7.515  12.581  0.00  0.00    +0.000 S 
ATOM     16  C   UNL     1      44.512   6.324  12.288  0.00  0.00    +0.000 A 
ATOM     17  N   UNL     1      43.368   6.624  11.619  0.00  0.00    +0.000 NA
ATOM     18  C   UNL     1      42.548   5.632  11.497  0.00  0.00    +0.000 A 
ATOM     19  N   UNL     1      42.778   4.368  11.972  0.00  0.00    +0.000 N 
ATOM     20  C   UNL     1      43.932   4.009  12.626  0.00  0.00    +0.000 A 
ATOM     21  O   UNL     1      44.127   2.856  12.998  0.00  0.00    +0.000 OA
ATOM     22  C   UNL     1      44.869   5.097  12.817  0.00  0.00    +0.000 A 
ATOM     23  H   UNL     1      42.103   3.628  11.821  0.00  0.00    +0.000 HD
ENDBRANCH  10  13
ENDBRANCH   8   9
ENDBRANCH   1   8
BRANCH   4  24
ATOM     24  O   UNL     1      52.585   5.549  18.273  0.00  0.00    +0.000 OA
ATOM     25  H   UNL     1      53.175   4.816  18.514  0.00  0.00    +0.000 HD
ENDBRANCH   4  24
BRANCH   5  26
ATOM     26  C   UNL     1      50.431   7.378  17.764  0.00  0.00    +0.000 C 
BRANCH  26  27
ATOM     27  N   UNL     1      49.586   7.876  18.829  0.00  0.00    +0.000 N 
ATOM     28  C   UNL     1      48.437   8.597  18.586  0.00  0.00    +0.000 C 
ATOM     29  O   UNL     1      48.038   8.880  17.461  0.00  0.00    +0.000 OA
ATOM     30  H   UNL     1      49.810   7.567  19.762  0.00  0.00    +0.000 HD
BRANCH  28  31
ATOM     31  C   UNL     1      47.646   9.013  19.781  0.00  0.00    +0.000 A 
ATOM     32  C   UNL     1      47.693   8.306  20.990  0.00  0.00    +0.000 A 
ATOM     33  C   UNL     1      46.955   8.749  22.092  0.00  0.00    +0.000 A 
ATOM     34  C   UNL     1      46.174   9.899  21.995  0.00  0.00    +0.000 A 
ATOM     35  C   UNL     1      46.126  10.613  20.799  0.00  0.00    +0.000 A 
ATOM     36  C   UNL     1      46.863  10.172  19.695  0.00  0.00    +0.000 A 
ENDBRANCH  28  31
ENDBRANCH  26  27
ENDBRANCH   5  26
TORSDOF 7
ENDMDL
