MODEL 1
REMARK VINA RESULT:    -7.084      0.000      0.000
REMARK INTER + INTRA:         -10.425
REMARK INTER:                  -9.569
REMARK INTRA:                  -0.856
REMARK UNBOUND:                -0.856
REMARK  Name = 
REMARK  9 active torsions:
REMARK  status: ('A' for Active; 'I' for Inactive)
REMARK    1  A    between atoms: C_1  and  C_2
REMARK    2  A    between atoms: C_2  and  C_3
REMARK    3  A    between atoms: C_2  and  C_16
REMARK    4  A    between atoms: C_4  and  C_5
REMARK    5  A    between atoms: C_9  and  C_10
REMARK    6  A    between atoms: C_10  and  C_11
REMARK    7  A    between atoms: C_10  and  C_12
REMARK    8  A    between atoms: C_10  and  C_13
REMARK    9  A    between atoms: C_20  and  C_21
REMARK                            x       y       z     vdW  Elec       q    Type
REMARK                         _______ _______ _______ _____ _____    ______ ____
ROOT
ATOM      1  C   UNL     1      45.589   8.491  12.675  0.00  0.00    +0.000 C 
ATOM      2  C   UNL     1      46.427   7.306  12.170  0.00  0.00    +0.000 C 
ENDROOT
BRANCH   2   3
ATOM      3  C   UNL     1      45.477   6.268  11.585  0.00  0.00    +0.000 A 
ATOM      4  C   UNL     1      44.180   6.086  12.102  0.00  0.00    +0.000 A 
ATOM      5  C   UNL     1      43.268   5.248  11.463  0.00  0.00    +0.000 A 
ATOM      6  C   UNL     1      43.631   4.597  10.286  0.00  0.00    +0.000 A 
ATOM      7  C   UNL     1      44.912   4.774   9.747  0.00  0.00    +0.000 A 
ATOM      8  C   UNL     1      45.844   5.575  10.418  0.00  0.00    +0.000 A 
BRANCH   7   9
ATOM      9  C   UNL     1      45.201   4.142   8.431  0.00  0.00    +0.000 C 
ATOM     10  N   UNL     1      44.367   3.149   7.999  0.00  0.00    +0.000 N 
ATOM     11  O   UNL     1      46.188   4.456   7.776  0.00  0.00    +0.000 OA
ATOM     12  H   UNL     1      43.630   2.745   8.558  0.00  0.00    +0.000 HD
ATOM     13  H   UNL     1      44.666   2.644   7.173  0.00  0.00    +0.000 HD
ENDBRANCH   7   9
ENDBRANCH   2   3
BRANCH   2  14
ATOM     14  C   UNL     1      47.318   6.762  13.259  0.00  0.00    +0.000 C 
ATOM     15  C   UNL     1      48.058   7.495  14.109  0.00  0.00    +0.000 C 
BRANCH  15  16
ATOM     16  C   UNL     1      48.893   6.890  15.161  0.00  0.00    +0.000 A 
ATOM     17  C   UNL     1      50.114   7.447  15.516  0.00  0.00    +0.000 A 
ATOM     18  C   UNL     1      50.885   6.797  16.472  0.00  0.00    +0.000 A 
ATOM     19  C   UNL     1      50.412   5.622  17.055  0.00  0.00    +0.000 A 
ATOM     20  C   UNL     1      49.163   5.125  16.682  0.00  0.00    +0.000 A 
ATOM     21  N   UNL     1      48.416   5.761  15.745  0.00  0.00    +0.000 NA
BRANCH  20  22
ATOM     22  C   UNL     1      48.551   3.850  17.283  0.00  0.00    +0.000 C 
ATOM     23  C   UNL     1      48.857   3.793  18.790  0.00  0.00    +0.000 C 
ATOM     24  C   UNL     1      47.020   3.875  17.078  0.00  0.00    +0.000 C 
BRANCH  22  25
ATOM     25  C   UNL     1      49.070   2.608  16.668  0.00  0.00    +0.000 C 
ATOM     26  N   UNL     1      49.491   1.643  16.188  0.00  0.00    +0.000 NA
ENDBRANCH  22  25
ENDBRANCH  20  22
ENDBRANCH  15  16
ENDBRANCH   2  14
TORSDOF 6
ENDMDL
MODEL 2
REMARK VINA RESULT:    -7.035      3.345      8.389
REMARK INTER + INTRA:         -10.359
REMARK INTER:                  -9.528
REMARK INTRA:                  -0.832
REMARK UNBOUND:                -0.856
REMARK  Name = 
REMARK  9 active torsions:
REMARK  status: ('A' for Active; 'I' for Inactive)
REMARK    1  A    between atoms: C_1  and  C_2
REMARK    2  A    between atoms: C_2  and  C_3
REMARK    3  A    between atoms: C_2  and  C_16
REMARK    4  A    between atoms: C_4  and  C_5
REMARK    5  A    between atoms: C_9  and  C_10
REMARK    6  A    between atoms: C_10  and  C_11
REMARK    7  A    between atoms: C_10  and  C_12
REMARK    8  A    between atoms: C_10  and  C_13
REMARK    9  A    between atoms: C_20  and  C_21
REMARK                            x       y       z     vdW  Elec       q    Type
REMARK                         _______ _______ _______ _____ _____    ______ ____
ROOT
ATOM      1  C   UNL     1      47.242   3.196  17.773  0.00  0.00    +0.000 C 
ATOM      2  C   UNL     1      48.141   2.697  16.632  0.00  0.00    +0.000 C 
ENDROOT
BRANCH   2   3
ATOM      3  C   UNL     1      49.591   2.962  17.020  0.00  0.00    +0.000 A 
ATOM      4  C   UNL     1      50.011   4.229  17.467  0.00  0.00    +0.000 A 
ATOM      5  C   UNL     1      51.299   4.419  17.966  0.00  0.00    +0.000 A 
ATOM      6  C   UNL     1      52.177   3.341  18.049  0.00  0.00    +0.000 A 
ATOM      7  C   UNL     1      51.775   2.069  17.621  0.00  0.00    +0.000 A 
ATOM      8  C   UNL     1      50.499   1.890  17.072  0.00  0.00    +0.000 A 
BRANCH   7   9
ATOM      9  C   UNL     1      52.717   0.937  17.839  0.00  0.00    +0.000 C 
ATOM     10  N   UNL     1      52.228  -0.202  18.413  0.00  0.00    +0.000 N 
ATOM     11  O   UNL     1      53.908   1.038  17.569  0.00  0.00    +0.000 OA
ATOM     12  H   UNL     1      51.298  -0.291  18.794  0.00  0.00    +0.000 HD
ATOM     13  H   UNL     1      52.916  -0.898  18.677  0.00  0.00    +0.000 HD
ENDBRANCH   7   9
ENDBRANCH   2   3
BRANCH   2  14
ATOM     14  C   UNL     1      47.748   3.316  15.313  0.00  0.00    +0.000 C 
ATOM     15  C   UNL     1      47.095   4.480  15.155  0.00  0.00    +0.000 C 
BRANCH  15  16
ATOM     16  C   UNL     1      46.759   5.030  13.830  0.00  0.00    +0.000 A 
ATOM     17  C   UNL     1      47.508   6.055  13.269  0.00  0.00    +0.000 A 
ATOM     18  C   UNL     1      47.104   6.574  12.045  0.00  0.00    +0.000 A 
ATOM     19  C   UNL     1      45.979   6.050  11.412  0.00  0.00    +0.000 A 
ATOM     20  C   UNL     1      45.282   4.999  12.008  0.00  0.00    +0.000 A 
ATOM     21  N   UNL     1      45.677   4.498  13.205  0.00  0.00    +0.000 NA
BRANCH  20  22
ATOM     22  C   UNL     1      44.043   4.344  11.376  0.00  0.00    +0.000 C 
ATOM     23  C   UNL     1      43.714   3.039  12.122  0.00  0.00    +0.000 C 
ATOM     24  C   UNL     1      42.844   5.309  11.491  0.00  0.00    +0.000 C 
BRANCH  22  25
ATOM     25  C   UNL     1      44.225   4.014   9.944  0.00  0.00    +0.000 C 
ATOM     26  N   UNL     1      44.383   3.755   8.828  0.00  0.00    +0.000 NA
ENDBRANCH  22  25
ENDBRANCH  20  22
ENDBRANCH  15  16
ENDBRANCH   2  14
TORSDOF 6
ENDMDL
MODEL 3
REMARK VINA RESULT:    -7.024      1.445      2.495
REMARK INTER + INTRA:         -10.344
REMARK INTER:                  -9.396
REMARK INTRA:                  -0.949
REMARK UNBOUND:                -0.856
REMARK  Name = 
REMARK  9 active torsions:
REMARK  status: ('A' for Active; 'I' for Inactive)
REMARK    1  A    between atoms: C_1  and  C_2
REMARK    2  A    between atoms: C_2  and  C_3
REMARK    3  A    between atoms: C_2  and  C_16
REMARK    4  A    between atoms: C_4  and  C_5
REMARK    5  A    between atoms: C_9  and  C_10
REMARK    6  A    between atoms: C_10  and  C_11
REMARK    7  A    between atoms: C_10  and  C_12
REMARK    8  A    between atoms: C_10  and  C_13
REMARK    9  A    between atoms: C_20  and  C_21
REMARK                            x       y       z     vdW  Elec       q    Type
REMARK                         _______ _______ _______ _____ _____    ______ ____
ROOT
ATOM      1  C   UNL     1      42.767   5.113  11.902  0.00  0.00    +0.000 C 
ATOM      2  C   UNL     1      44.149   5.394  11.292  0.00  0.00    +0.000 C 
ENDROOT
BRANCH   2   3
ATOM      3  C   UNL     1      44.549   4.189  10.449  0.00  0.00    +0.000 A 
ATOM      4  C   UNL     1      43.969   2.922  10.657  0.00  0.00    +0.000 A 
ATOM      5  C   UNL     1      44.225   1.867   9.783  0.00  0.00    +0.000 A 
ATOM      6  C   UNL     1      45.044   2.069   8.674  0.00  0.00    +0.000 A 
ATOM      7  C   UNL     1      45.621   3.324   8.441  0.00  0.00    +0.000 A 
ATOM      8  C   UNL     1      45.404   4.368   9.348  0.00  0.00    +0.000 A 
BRANCH   7   9
ATOM      9  C   UNL     1      46.393   3.506   7.182  0.00  0.00    +0.000 C 
ATOM     10  N   UNL     1      46.545   2.424   6.361  0.00  0.00    +0.000 N 
ATOM     11  O   UNL     1      46.930   4.574   6.912  0.00  0.00    +0.000 OA
ATOM     12  H   UNL     1      46.258   1.486   6.599  0.00  0.00    +0.000 HD
ATOM     13  H   UNL     1      47.189   2.539   5.587  0.00  0.00    +0.000 HD
ENDBRANCH   7   9
ENDBRANCH   2   3
BRANCH   2  14
ATOM     14  C   UNL     1      45.157   5.745  12.358  0.00  0.00    +0.000 C 
ATOM     15  C   UNL     1      46.000   4.886  12.956  0.00  0.00    +0.000 C 
BRANCH  15  16
ATOM     16  C   UNL     1      46.971   5.308  13.980  0.00  0.00    +0.000 A 
ATOM     17  C   UNL     1      47.613   6.536  13.898  0.00  0.00    +0.000 A 
ATOM     18  C   UNL     1      48.564   6.851  14.860  0.00  0.00    +0.000 A 
ATOM     19  C   UNL     1      48.838   5.942  15.881  0.00  0.00    +0.000 A 
ATOM     20  C   UNL     1      48.141   4.735  15.932  0.00  0.00    +0.000 A 
ATOM     21  N   UNL     1      47.215   4.430  14.987  0.00  0.00    +0.000 NA
BRANCH  20  22
ATOM     22  C   UNL     1      48.360   3.681  17.029  0.00  0.00    +0.000 C 
ATOM     23  C   UNL     1      49.087   4.324  18.222  0.00  0.00    +0.000 C 
ATOM     24  C   UNL     1      46.990   3.145  17.499  0.00  0.00    +0.000 C 
BRANCH  22  25
ATOM     25  C   UNL     1      49.168   2.526  16.574  0.00  0.00    +0.000 C 
ATOM     26  N   UNL     1      49.791   1.624  16.206  0.00  0.00    +0.000 NA
ENDBRANCH  22  25
ENDBRANCH  20  22
ENDBRANCH  15  16
ENDBRANCH   2  14
TORSDOF 6
ENDMDL
MODEL 4
REMARK VINA RESULT:    -6.566      1.899      2.207
REMARK INTER + INTRA:          -9.726
REMARK INTER:                  -8.728
REMARK INTRA:                  -0.998
REMARK UNBOUND:                -0.856
REMARK  Name = 
REMARK  9 active torsions:
REMARK  status: ('A' for Active; 'I' for Inactive)
REMARK    1  A    between atoms: C_1  and  C_2
REMARK    2  A    between atoms: C_2  and  C_3
REMARK    3  A    between atoms: C_2  and  C_16
REMARK    4  A    between atoms: C_4  and  C_5
REMARK    5  A    between atoms: C_9  and  C_10
REMARK    6  A    between atoms: C_10  and  C_11
REMARK    7  A    between atoms: C_10  and  C_12
REMARK    8  A    between atoms: C_10  and  C_13
REMARK    9  A    between atoms: C_20  and  C_21
REMARK                            x       y       z     vdW  Elec       q    Type
REMARK                         _______ _______ _______ _____ _____    ______ ____
ROOT
ATOM      1  C   UNL     1      47.946   8.956  11.841  0.00  0.00    +0.000 C 
ATOM      2  C   UNL     1      47.979   7.420  11.857  0.00  0.00    +0.000 C 
ENDROOT
BRANCH   2   3
ATOM      3  C   UNL     1      46.541   6.915  11.872  0.00  0.00    +0.000 A 
ATOM      4  C   UNL     1      45.457   7.781  11.633  0.00  0.00    +0.000 A 
ATOM      5  C   UNL     1      44.162   7.283  11.494  0.00  0.00    +0.000 A 
ATOM      6  C   UNL     1      43.936   5.911  11.567  0.00  0.00    +0.000 A 
ATOM      7  C   UNL     1      45.002   5.030  11.790  0.00  0.00    +0.000 A 
ATOM      8  C   UNL     1      46.294   5.536  11.982  0.00  0.00    +0.000 A 
BRANCH   7   9
ATOM      9  C   UNL     1      44.714   3.570  11.746  0.00  0.00    +0.000 C 
ATOM     10  N   UNL     1      45.347   2.765  12.650  0.00  0.00    +0.000 N 
ATOM     11  O   UNL     1      43.981   3.091  10.890  0.00  0.00    +0.000 OA
ATOM     12  H   UNL     1      46.073   3.077  13.278  0.00  0.00    +0.000 HD
ATOM     13  H   UNL     1      45.242   1.767  12.507  0.00  0.00    +0.000 HD
ENDBRANCH   7   9
ENDBRANCH   2   3
BRANCH   2  14
ATOM     14  C   UNL     1      48.811   6.903  13.004  0.00  0.00    +0.000 C 
ATOM     15  C   UNL     1      48.693   7.271  14.291  0.00  0.00    +0.000 C 
BRANCH  15  16
ATOM     16  C   UNL     1      49.533   6.707  15.361  0.00  0.00    +0.000 A 
ATOM     17  C   UNL     1      50.800   7.212  15.619  0.00  0.00    +0.000 A 
ATOM     18  C   UNL     1      51.569   6.598  16.600  0.00  0.00    +0.000 A 
ATOM     19  C   UNL     1      51.050   5.511  17.302  0.00  0.00    +0.000 A 
ATOM     20  C   UNL     1      49.758   5.065  17.022  0.00  0.00    +0.000 A 
ATOM     21  N   UNL     1      49.012   5.666  16.060  0.00  0.00    +0.000 NA
BRANCH  20  22
ATOM     22  C   UNL     1      49.095   3.889  17.756  0.00  0.00    +0.000 C 
ATOM     23  C   UNL     1      49.886   2.599  17.482  0.00  0.00    +0.000 C 
ATOM     24  C   UNL     1      49.096   4.172  19.274  0.00  0.00    +0.000 C 
BRANCH  22  25
ATOM     25  C   UNL     1      47.693   3.659  17.339  0.00  0.00    +0.000 C 
ATOM     26  N   UNL     1      46.602   3.481  16.998  0.00  0.00    +0.000 NA
ENDBRANCH  22  25
ENDBRANCH  20  22
ENDBRANCH  15  16
ENDBRANCH   2  14
TORSDOF 6
ENDMDL
MODEL 5
REMARK VINA RESULT:    -6.137      3.190      4.909
REMARK INTER + INTRA:          -9.145
REMARK INTER:                  -8.171
REMARK INTRA:                  -0.975
REMARK UNBOUND:                -0.856
REMARK  Name = 
REMARK  9 active torsions:
REMARK  status: ('A' for Active; 'I' for Inactive)
REMARK    1  A    between atoms: C_1  and  C_2
REMARK    2  A    between atoms: C_2  and  C_3
REMARK    3  A    between atoms: C_2  and  C_16
REMARK    4  A    between atoms: C_4  and  C_5
REMARK    5  A    between atoms: C_9  and  C_10
REMARK    6  A    between atoms: C_10  and  C_11
REMARK    7  A    between atoms: C_10  and  C_12
REMARK    8  A    between atoms: C_10  and  C_13
REMARK    9  A    between atoms: C_20  and  C_21
REMARK                            x       y       z     vdW  Elec       q    Type
REMARK                         _______ _______ _______ _____ _____    ______ ____
ROOT
ATOM      1  C   UNL     1      43.004   5.077  12.830  0.00  0.00    +0.000 C 
ATOM      2  C   UNL     1      43.373   5.536  11.411  0.00  0.00    +0.000 C 
ENDROOT
BRANCH   2   3
ATOM      3  C   UNL     1      44.000   4.356  10.679  0.00  0.00    +0.000 A 
ATOM      4  C   UNL     1      43.595   3.032  10.938  0.00  0.00    +0.000 A 
ATOM      5  C   UNL     1      44.061   1.977  10.155  0.00  0.00    +0.000 A 
ATOM      6  C   UNL     1      44.918   2.231   9.088  0.00  0.00    +0.000 A 
ATOM      7  C   UNL     1      45.324   3.542   8.804  0.00  0.00    +0.000 A 
ATOM      8  C   UNL     1      44.897   4.595   9.623  0.00  0.00    +0.000 A 
BRANCH   7   9
ATOM      9  C   UNL     1      46.149   3.762   7.585  0.00  0.00    +0.000 C 
ATOM     10  N   UNL     1      46.133   2.797   6.618  0.00  0.00    +0.000 N 
ATOM     11  O   UNL     1      46.870   4.746   7.472  0.00  0.00    +0.000 OA
ATOM     12  H   UNL     1      45.682   1.899   6.719  0.00  0.00    +0.000 HD
ATOM     13  H   UNL     1      46.807   2.905   5.869  0.00  0.00    +0.000 HD
ENDBRANCH   7   9
ENDBRANCH   2   3
BRANCH   2  14
ATOM     14  C   UNL     1      44.253   6.761  11.444  0.00  0.00    +0.000 C 
ATOM     15  C   UNL     1      45.208   7.020  12.353  0.00  0.00    +0.000 C 
BRANCH  15  16
ATOM     16  C   UNL     1      46.041   8.234  12.310  0.00  0.00    +0.000 A 
ATOM     17  C   UNL     1      45.496   9.465  11.971  0.00  0.00    +0.000 A 
ATOM     18  C   UNL     1      46.345  10.563  11.887  0.00  0.00    +0.000 A 
ATOM     19  C   UNL     1      47.703  10.404  12.155  0.00  0.00    +0.000 A 
ATOM     20  C   UNL     1      48.190   9.150  12.520  0.00  0.00    +0.000 A 
ATOM     21  N   UNL     1      47.358   8.080  12.597  0.00  0.00    +0.000 NA
BRANCH  20  22
ATOM     22  C   UNL     1      49.667   8.883  12.853  0.00  0.00    +0.000 C 
ATOM     23  C   UNL     1      50.401   8.402  11.589  0.00  0.00    +0.000 C 
ATOM     24  C   UNL     1      50.320  10.191  13.351  0.00  0.00    +0.000 C 
BRANCH  22  25
ATOM     25  C   UNL     1      49.851   7.856  13.903  0.00  0.00    +0.000 C 
ATOM     26  N   UNL     1      50.003   7.063  14.732  0.00  0.00    +0.000 NA
ENDBRANCH  22  25
ENDBRANCH  20  22
ENDBRANCH  15  16
ENDBRANCH   2  14
TORSDOF 6
ENDMDL
MODEL 6
REMARK VINA RESULT:    -6.095      2.465      7.504
REMARK INTER + INTRA:          -9.090
REMARK INTER:                  -8.144
REMARK INTRA:                  -0.946
REMARK UNBOUND:                -0.856
REMARK  Name = 
REMARK  9 active torsions:
REMARK  status: ('A' for Active; 'I' for Inactive)
REMARK    1  A    between atoms: C_1  and  C_2
REMARK    2  A    between atoms: C_2  and  C_3
REMARK    3  A    between atoms: C_2  and  C_16
REMARK    4  A    between atoms: C_4  and  C_5
REMARK    5  A    between atoms: C_9  and  C_10
REMARK    6  A    between atoms: C_10  and  C_11
REMARK    7  A    between atoms: C_10  and  C_12
REMARK    8  A    between atoms: C_10  and  C_13
REMARK    9  A    between atoms: C_20  and  C_21
REMARK                            x       y       z     vdW  Elec       q    Type
REMARK                         _______ _______ _______ _____ _____    ______ ____
ROOT
ATOM      1  C   UNL     1      50.982   8.089  14.804  0.00  0.00    +0.000 C 
ATOM      2  C   UNL     1      49.739   7.771  15.649  0.00  0.00    +0.000 C 
ENDROOT
BRANCH   2   3
ATOM      3  C   UNL     1      49.939   6.403  16.290  0.00  0.00    +0.000 A 
ATOM      4  C   UNL     1      51.208   5.975  16.725  0.00  0.00    +0.000 A 
ATOM      5  C   UNL     1      51.353   4.792  17.449  0.00  0.00    +0.000 A 
ATOM      6  C   UNL     1      50.231   4.033  17.769  0.00  0.00    +0.000 A 
ATOM      7  C   UNL     1      48.957   4.446  17.358  0.00  0.00    +0.000 A 
ATOM      8  C   UNL     1      48.819   5.607  16.586  0.00  0.00    +0.000 A 
BRANCH   7   9
ATOM      9  C   UNL     1      47.788   3.654  17.826  0.00  0.00    +0.000 C 
ATOM     10  N   UNL     1      47.942   2.884  18.945  0.00  0.00    +0.000 N 
ATOM     11  O   UNL     1      46.735   3.638  17.199  0.00  0.00    +0.000 OA
ATOM     12  H   UNL     1      48.823   2.737  19.415  0.00  0.00    +0.000 HD
ATOM     13  H   UNL     1      47.181   2.251  19.158  0.00  0.00    +0.000 HD
ENDBRANCH   7   9
ENDBRANCH   2   3
BRANCH   2  14
ATOM     14  C   UNL     1      48.478   7.873  14.828  0.00  0.00    +0.000 C 
ATOM     15  C   UNL     1      48.324   7.439  13.565  0.00  0.00    +0.000 C 
BRANCH  15  16
ATOM     16  C   UNL     1      47.052   7.559  12.831  0.00  0.00    +0.000 A 
ATOM     17  C   UNL     1      46.359   8.760  12.789  0.00  0.00    +0.000 A 
ATOM     18  C   UNL     1      45.135   8.794  12.133  0.00  0.00    +0.000 A 
ATOM     19  C   UNL     1      44.645   7.637  11.529  0.00  0.00    +0.000 A 
ATOM     20  C   UNL     1      45.399   6.465  11.577  0.00  0.00    +0.000 A 
ATOM     21  N   UNL     1      46.593   6.436  12.222  0.00  0.00    +0.000 NA
BRANCH  20  22
ATOM     22  C   UNL     1      44.951   5.148  10.923  0.00  0.00    +0.000 C 
ATOM     23  C   UNL     1      45.454   3.960  11.762  0.00  0.00    +0.000 C 
ATOM     24  C   UNL     1      43.409   5.109  10.864  0.00  0.00    +0.000 C 
BRANCH  22  25
ATOM     25  C   UNL     1      45.463   4.978   9.545  0.00  0.00    +0.000 C 
ATOM     26  N   UNL     1      45.877   4.843   8.473  0.00  0.00    +0.000 NA
ENDBRANCH  22  25
ENDBRANCH  20  22
ENDBRANCH  15  16
ENDBRANCH   2  14
TORSDOF 6
ENDMDL
MODEL 7
REMARK VINA RESULT:    -5.943      3.244      5.296
REMARK INTER + INTRA:          -8.884
REMARK INTER:                  -8.073
REMARK INTRA:                  -0.811
REMARK UNBOUND:                -0.856
REMARK  Name = 
REMARK  9 active torsions:
REMARK  status: ('A' for Active; 'I' for Inactive)
REMARK    1  A    between atoms: C_1  and  C_2
REMARK    2  A    between atoms: C_2  and  C_3
REMARK    3  A    between atoms: C_2  and  C_16
REMARK    4  A    between atoms: C_4  and  C_5
REMARK    5  A    between atoms: C_9  and  C_10
REMARK    6  A    between atoms: C_10  and  C_11
REMARK    7  A    between atoms: C_10  and  C_12
REMARK    8  A    between atoms: C_10  and  C_13
REMARK    9  A    between atoms: C_20  and  C_21
REMARK                            x       y       z     vdW  Elec       q    Type
REMARK                         _______ _______ _______ _____ _____    ______ ____
ROOT
ATOM      1  C   UNL     1      43.208   5.060  10.941  0.00  0.00    +0.000 C 
ATOM      2  C   UNL     1      44.592   5.246  10.301  0.00  0.00    +0.000 C 
ENDROOT
BRANCH   2   3
ATOM      3  C   UNL     1      44.998   3.925   9.658  0.00  0.00    +0.000 A 
ATOM      4  C   UNL     1      44.271   2.742   9.890  0.00  0.00    +0.000 A 
ATOM      5  C   UNL     1      44.556   1.578   9.178  0.00  0.00    +0.000 A 
ATOM      6  C   UNL     1      45.554   1.586   8.206  0.00  0.00    +0.000 A 
ATOM      7  C   UNL     1      46.280   2.756   7.950  0.00  0.00    +0.000 A 
ATOM      8  C   UNL     1      46.029   3.910   8.702  0.00  0.00    +0.000 A 
BRANCH   7   9
ATOM      9  C   UNL     1      47.254   2.732   6.825  0.00  0.00    +0.000 C 
ATOM     10  N   UNL     1      47.010   3.538   5.749  0.00  0.00    +0.000 N 
ATOM     11  O   UNL     1      48.215   1.971   6.829  0.00  0.00    +0.000 OA
ATOM     12  H   UNL     1      46.162   4.070   5.620  0.00  0.00    +0.000 HD
ATOM     13  H   UNL     1      47.608   3.398   4.943  0.00  0.00    +0.000 HD
ENDBRANCH   7   9
ENDBRANCH   2   3
BRANCH   2  14
ATOM     14  C   UNL     1      45.594   5.762  11.303  0.00  0.00    +0.000 C 
ATOM     15  C   UNL     1      46.692   6.483  11.018  0.00  0.00    +0.000 C 
BRANCH  15  16
ATOM     16  C   UNL     1      47.618   6.967  12.057  0.00  0.00    +0.000 A 
ATOM     17  C   UNL     1      47.630   6.405  13.325  0.00  0.00    +0.000 A 
ATOM     18  C   UNL     1      48.483   6.946  14.280  0.00  0.00    +0.000 A 
ATOM     19  C   UNL     1      49.304   8.019  13.940  0.00  0.00    +0.000 A 
ATOM     20  C   UNL     1      49.272   8.525  12.641  0.00  0.00    +0.000 A 
ATOM     21  N   UNL     1      48.435   7.996  11.713  0.00  0.00    +0.000 NA
BRANCH  20  22
ATOM     22  C   UNL     1      50.155   9.691  12.169  0.00  0.00    +0.000 C 
ATOM     23  C   UNL     1      51.367   9.140  11.399  0.00  0.00    +0.000 C 
ATOM     24  C   UNL     1      49.333  10.604  11.232  0.00  0.00    +0.000 C 
BRANCH  22  25
ATOM     25  C   UNL     1      50.664  10.524  13.282  0.00  0.00    +0.000 C 
ATOM     26  N   UNL     1      51.058  11.187  14.143  0.00  0.00    +0.000 NA
ENDBRANCH  22  25
ENDBRANCH  20  22
ENDBRANCH  15  16
ENDBRANCH   2  14
TORSDOF 6
ENDMDL
MODEL 8
REMARK VINA RESULT:    -5.851      3.434      8.320
REMARK INTER + INTRA:          -8.759
REMARK INTER:                  -7.858
REMARK INTRA:                  -0.901
REMARK UNBOUND:                -0.856
REMARK  Name = 
REMARK  9 active torsions:
REMARK  status: ('A' for Active; 'I' for Inactive)
REMARK    1  A    between atoms: C_1  and  C_2
REMARK    2  A    between atoms: C_2  and  C_3
REMARK    3  A    between atoms: C_2  and  C_16
REMARK    4  A    between atoms: C_4  and  C_5
REMARK    5  A    between atoms: C_9  and  C_10
REMARK    6  A    between atoms: C_10  and  C_11
REMARK    7  A    between atoms: C_10  and  C_12
REMARK    8  A    between atoms: C_10  and  C_13
REMARK    9  A    between atoms: C_20  and  C_21
REMARK                            x       y       z     vdW  Elec       q    Type
REMARK                         _______ _______ _______ _____ _____    ______ ____
ROOT
ATOM      1  C   UNL     1      47.324   2.993  17.730  0.00  0.00    +0.000 C 
ATOM      2  C   UNL     1      48.438   3.913  17.208  0.00  0.00    +0.000 C 
ENDROOT
BRANCH   2   3
ATOM      3  C   UNL     1      48.767   4.925  18.299  0.00  0.00    +0.000 A 
ATOM      4  C   UNL     1      49.687   4.627  19.324  0.00  0.00    +0.000 A 
ATOM      5  C   UNL     1      50.097   5.611  20.223  0.00  0.00    +0.000 A 
ATOM      6  C   UNL     1      49.614   6.910  20.097  0.00  0.00    +0.000 A 
ATOM      7  C   UNL     1      48.708   7.232  19.077  0.00  0.00    +0.000 A 
ATOM      8  C   UNL     1      48.257   6.232  18.207  0.00  0.00    +0.000 A 
BRANCH   7   9
ATOM      9  C   UNL     1      48.316   8.660  18.926  0.00  0.00    +0.000 C 
ATOM     10  N   UNL     1      47.507   8.994  17.877  0.00  0.00    +0.000 N 
ATOM     11  O   UNL     1      48.749   9.524  19.679  0.00  0.00    +0.000 OA
ATOM     12  H   UNL     1      47.242   8.357  17.139  0.00  0.00    +0.000 HD
ATOM     13  H   UNL     1      47.372   9.985  17.716  0.00  0.00    +0.000 HD
ENDBRANCH   7   9
ENDBRANCH   2   3
BRANCH   2  14
ATOM     14  C   UNL     1      48.055   4.547  15.894  0.00  0.00    +0.000 C 
ATOM     15  C   UNL     1      46.991   4.216  15.143  0.00  0.00    +0.000 C 
BRANCH  15  16
ATOM     16  C   UNL     1      46.670   4.895  13.875  0.00  0.00    +0.000 A 
ATOM     17  C   UNL     1      47.424   5.971  13.427  0.00  0.00    +0.000 A 
ATOM     18  C   UNL     1      47.035   6.608  12.255  0.00  0.00    +0.000 A 
ATOM     19  C   UNL     1      45.918   6.147  11.559  0.00  0.00    +0.000 A 
ATOM     20  C   UNL     1      45.217   5.042  12.040  0.00  0.00    +0.000 A 
ATOM     21  N   UNL     1      45.598   4.425  13.187  0.00  0.00    +0.000 NA
BRANCH  20  22
ATOM     22  C   UNL     1      43.987   4.451  11.331  0.00  0.00    +0.000 C 
ATOM     23  C   UNL     1      43.612   3.110  11.984  0.00  0.00    +0.000 C 
ATOM     24  C   UNL     1      42.801   5.430  11.469  0.00  0.00    +0.000 C 
BRANCH  22  25
ATOM     25  C   UNL     1      44.209   4.207   9.887  0.00  0.00    +0.000 C 
ATOM     26  N   UNL     1      44.371   4.027   8.757  0.00  0.00    +0.000 NA
ENDBRANCH  22  25
ENDBRANCH  20  22
ENDBRANCH  15  16
ENDBRANCH   2  14
TORSDOF 6
ENDMDL
MODEL 9
REMARK VINA RESULT:    -5.796      2.714      7.429
REMARK INTER + INTRA:          -8.685
REMARK INTER:                  -7.759
REMARK INTRA:                  -0.926
REMARK UNBOUND:                -0.856
REMARK  Name = 
REMARK  9 active torsions:
REMARK  status: ('A' for Active; 'I' for Inactive)
REMARK    1  A    between atoms: C_1  and  C_2
REMARK    2  A    between atoms: C_2  and  C_3
REMARK    3  A    between atoms: C_2  and  C_16
REMARK    4  A    between atoms: C_4  and  C_5
REMARK    5  A    between atoms: C_9  and  C_10
REMARK    6  A    between atoms: C_10  and  C_11
REMARK    7  A    between atoms: C_10  and  C_12
REMARK    8  A    between atoms: C_10  and  C_13
REMARK    9  A    between atoms: C_20  and  C_21
REMARK                            x       y       z     vdW  Elec       q    Type
REMARK                         _______ _______ _______ _____ _____    ______ ____
ROOT
ATOM      1  C   UNL     1      51.078   7.143  15.942  0.00  0.00    +0.000 C 
ATOM      2  C   UNL     1      49.687   7.100  16.592  0.00  0.00    +0.000 C 
ENDROOT
BRANCH   2   3
ATOM      3  C   UNL     1      49.613   5.861  17.476  0.00  0.00    +0.000 A 
ATOM      4  C   UNL     1      48.920   5.874  18.702  0.00  0.00    +0.000 A 
ATOM      5  C   UNL     1      48.728   4.697  19.425  0.00  0.00    +0.000 A 
ATOM      6  C   UNL     1      49.203   3.489  18.923  0.00  0.00    +0.000 A 
ATOM      7  C   UNL     1      49.884   3.451  17.699  0.00  0.00    +0.000 A 
ATOM      8  C   UNL     1      50.122   4.641  16.999  0.00  0.00    +0.000 A 
BRANCH   7   9
ATOM      9  C   UNL     1      50.268   2.117  17.162  0.00  0.00    +0.000 C 
ATOM     10  N   UNL     1      51.278   1.442  17.788  0.00  0.00    +0.000 N 
ATOM     11  O   UNL     1      49.741   1.659  16.155  0.00  0.00    +0.000 OA
ATOM     12  H   UNL     1      51.849   1.830  18.523  0.00  0.00    +0.000 HD
ATOM     13  H   UNL     1      51.612   0.607  17.320  0.00  0.00    +0.000 HD
ENDBRANCH   7   9
ENDBRANCH   2   3
BRANCH   2  14
ATOM     14  C   UNL     1      48.595   7.165  15.553  0.00  0.00    +0.000 C 
ATOM     15  C   UNL     1      48.469   8.106  14.602  0.00  0.00    +0.000 C 
BRANCH  15  16
ATOM     16  C   UNL     1      47.381   8.093  13.608  0.00  0.00    +0.000 A 
ATOM     17  C   UNL     1      46.956   9.263  12.996  0.00  0.00    +0.000 A 
ATOM     18  C   UNL     1      45.885   9.196  12.113  0.00  0.00    +0.000 A 
ATOM     19  C   UNL     1      45.280   7.966  11.857  0.00  0.00    +0.000 A 
ATOM     20  C   UNL     1      45.770   6.817  12.478  0.00  0.00    +0.000 A 
ATOM     21  N   UNL     1      46.813   6.889  13.342  0.00  0.00    +0.000 NA
BRANCH  20  22
ATOM     22  C   UNL     1      45.182   5.416  12.242  0.00  0.00    +0.000 C 
ATOM     23  C   UNL     1      45.100   5.140  10.731  0.00  0.00    +0.000 C 
ATOM     24  C   UNL     1      46.098   4.363  12.901  0.00  0.00    +0.000 C 
BRANCH  22  25
ATOM     25  C   UNL     1      43.823   5.253  12.807  0.00  0.00    +0.000 C 
ATOM     26  N   UNL     1      42.768   5.121  13.262  0.00  0.00    +0.000 NA
ENDBRANCH  22  25
ENDBRANCH  20  22
ENDBRANCH  15  16
ENDBRANCH   2  14
TORSDOF 6
ENDMDL
