MODEL 1
REMARK VINA RESULT:    -8.430      0.000      0.000
REMARK INTER + INTRA:         -12.668
REMARK INTER:                 -11.879
REMARK INTRA:                  -0.788
REMARK UNBOUND:                -0.788
REMARK  Name = 
REMARK  8 active torsions:
REMARK  status: ('A' for Active; 'I' for Inactive)
REMARK    1  A    between atoms: C_1  and  C_2
REMARK    2  A    between atoms: C_7  and  C_8
REMARK    3  A    between atoms: N_10  and  C_11
REMARK    4  A    between atoms: C_11  and  C_12
REMARK    5  A    between atoms: C_15  and  N_16
REMARK    6  A    between atoms: N_16  and  C_17
REMARK    7  A    between atoms: C_17  and  C_18
REMARK    8  A    between atoms: C_18  and  C_19
REMARK                            x       y       z     vdW  Elec       q    Type
REMARK                         _______ _______ _______ _____ _____    ______ ____
ROOT
ATOM      1  C   UNL     1      46.919   6.100  12.941  0.00  0.00    +0.000 A 
ATOM      2  C   UNL     1      46.239   4.958  13.365  0.00  0.00    +0.000 A 
ATOM      3  C   UNL     1      45.219   4.399  12.587  0.00  0.00    +0.000 A 
ATOM      4  C   UNL     1      44.840   4.958  11.360  0.00  0.00    +0.000 A 
ATOM      5  C   UNL     1      45.543   6.091  10.929  0.00  0.00    +0.000 A 
ATOM      6  C   UNL     1      46.546   6.677  11.720  0.00  0.00    +0.000 A 
ENDROOT
BRANCH   4   7
ATOM      7  N   UNL     1      43.897   4.358  10.503  0.00  0.00    +0.000 N 
ATOM      8  H   UNL     1      43.041   4.122  11.001  0.00  0.00    +0.000 HD
BRANCH   7   9
ATOM      9  C   UNL     1      44.386   3.271   9.644  0.00  0.00    +0.000 C 
BRANCH   9  10
ATOM     10  C   UNL     1      44.780   3.775   8.250  0.00  0.00    +0.000 C 
BRANCH  10  11
ATOM     11  C   UNL     1      45.883   2.930   7.648  0.00  0.00    +0.000 A 
ATOM     12  C   UNL     1      46.637   3.365   6.555  0.00  0.00    +0.000 A 
ATOM     13  C   UNL     1      47.588   2.510   6.015  0.00  0.00    +0.000 A 
ATOM     14  N   UNL     1      47.835   1.268   6.484  0.00  0.00    +0.000 NA
ATOM     15  C   UNL     1      47.106   0.869   7.545  0.00  0.00    +0.000 A 
ATOM     16  C   UNL     1      46.140   1.650   8.157  0.00  0.00    +0.000 A 
ENDBRANCH  10  11
ENDBRANCH   9  10
ENDBRANCH   7   9
ENDBRANCH   4   7
BRANCH   1  17
ATOM     17  C   UNL     1      48.058   6.641  13.768  0.00  0.00    +0.000 C 
BRANCH  17  20
ATOM     18  C   UNL     1      49.059   6.251  15.963  0.00  0.00    +0.000 C 
ATOM     19  O   UNL     1      50.165   6.573  15.543  0.00  0.00    +0.000 OA
ATOM     20  N   UNL     1      47.940   6.250  15.157  0.00  0.00    +0.000 N 
ATOM     21  H   UNL     1      47.047   6.365  15.608  0.00  0.00    +0.000 HD
BRANCH  18  28
ATOM     22  C   UNL     1      47.542   5.724  22.142  0.00  0.00    +0.000 C 
ATOM     23  C   UNL     1      47.725   6.503  20.875  0.00  0.00    +0.000 A 
ATOM     24  N   UNL     1      47.384   7.818  20.902  0.00  0.00    +0.000 NA
ATOM     25  C   UNL     1      47.510   8.556  19.788  0.00  0.00    +0.000 A 
ATOM     26  C   UNL     1      47.971   8.073  18.576  0.00  0.00    +0.000 A 
ATOM     27  C   UNL     1      48.355   6.714  18.493  0.00  0.00    +0.000 A 
ATOM     28  C   UNL     1      48.844   5.898  17.380  0.00  0.00    +0.000 A 
ATOM     29  C   UNL     1      49.069   4.597  17.787  0.00  0.00    +0.000 A 
ATOM     30  S   UNL     1      48.711   4.320  19.417  0.00  0.00    +0.000 S 
ATOM     31  C   UNL     1      48.216   5.954  19.665  0.00  0.00    +0.000 A 
ENDBRANCH  18  28
ENDBRANCH  17  20
ENDBRANCH   1  17
TORSDOF 7
ENDMDL
MODEL 2
REMARK VINA RESULT:    -8.248      1.771      2.163
REMARK INTER + INTRA:         -12.412
REMARK INTER:                 -11.451
REMARK INTRA:                  -0.961
REMARK UNBOUND:                -0.788
REMARK  Name = 
REMARK  8 active torsions:
REMARK  status: ('A' for Active; 'I' for Inactive)
REMARK    1  A    between atoms: C_1  and  C_2
REMARK    2  A    between atoms: C_7  and  C_8
REMARK    3  A    between atoms: N_10  and  C_11
REMARK    4  A    between atoms: C_11  and  C_12
REMARK    5  A    between atoms: C_15  and  N_16
REMARK    6  A    between atoms: N_16  and  C_17
REMARK    7  A    between atoms: C_17  and  C_18
REMARK    8  A    between atoms: C_18  and  C_19
REMARK                            x       y       z     vdW  Elec       q    Type
REMARK                         _______ _______ _______ _____ _____    ______ ____
ROOT
ATOM      1  C   UNL     1      46.142   6.890  12.539  0.00  0.00    +0.000 A 
ATOM      2  C   UNL     1      46.306   5.531  12.811  0.00  0.00    +0.000 A 
ATOM      3  C   UNL     1      45.444   4.578  12.259  0.00  0.00    +0.000 A 
ATOM      4  C   UNL     1      44.386   4.945  11.416  0.00  0.00    +0.000 A 
ATOM      5  C   UNL     1      44.241   6.309  11.128  0.00  0.00    +0.000 A 
ATOM      6  C   UNL     1      45.084   7.274  11.705  0.00  0.00    +0.000 A 
ENDROOT
BRANCH   4   7
ATOM      7  N   UNL     1      43.570   4.005  10.757  0.00  0.00    +0.000 N 
ATOM      8  H   UNL     1      42.925   3.556  11.403  0.00  0.00    +0.000 HD
BRANCH   7   9
ATOM      9  C   UNL     1      44.249   3.056   9.864  0.00  0.00    +0.000 C 
BRANCH   9  10
ATOM     10  C   UNL     1      44.759   3.736   8.587  0.00  0.00    +0.000 C 
BRANCH  10  11
ATOM     11  C   UNL     1      45.835   2.909   7.913  0.00  0.00    +0.000 A 
ATOM     12  C   UNL     1      46.614   3.416   6.869  0.00  0.00    +0.000 A 
ATOM     13  C   UNL     1      47.537   2.580   6.256  0.00  0.00    +0.000 A 
ATOM     14  N   UNL     1      47.733   1.291   6.607  0.00  0.00    +0.000 NA
ATOM     15  C   UNL     1      46.982   0.823   7.623  0.00  0.00    +0.000 A 
ATOM     16  C   UNL     1      46.040   1.579   8.301  0.00  0.00    +0.000 A 
ENDBRANCH  10  11
ENDBRANCH   9  10
ENDBRANCH   7   9
ENDBRANCH   4   7
BRANCH   1  17
ATOM     17  C   UNL     1      47.127   7.887  13.095  0.00  0.00    +0.000 C 
BRANCH  17  20
ATOM     18  C   UNL     1      48.786   7.061  14.688  0.00  0.00    +0.000 C 
ATOM     19  O   UNL     1      49.603   6.895  13.790  0.00  0.00    +0.000 OA
ATOM     20  N   UNL     1      47.519   7.551  14.448  0.00  0.00    +0.000 N 
ATOM     21  H   UNL     1      47.055   8.022  15.207  0.00  0.00    +0.000 HD
BRANCH  18  28
ATOM     22  C   UNL     1      49.893   4.855  20.576  0.00  0.00    +0.000 C 
ATOM     23  C   UNL     1      49.246   4.788  19.226  0.00  0.00    +0.000 A 
ATOM     24  N   UNL     1      48.480   3.697  18.961  0.00  0.00    +0.000 NA
ATOM     25  C   UNL     1      47.895   3.579  17.759  0.00  0.00    +0.000 A 
ATOM     26  C   UNL     1      48.011   4.503  16.736  0.00  0.00    +0.000 A 
ATOM     27  C   UNL     1      48.784   5.667  16.962  0.00  0.00    +0.000 A 
ATOM     28  C   UNL     1      49.127   6.800  16.101  0.00  0.00    +0.000 A 
ATOM     29  C   UNL     1      49.939   7.696  16.770  0.00  0.00    +0.000 A 
ATOM     30  S   UNL     1      50.307   7.233  18.354  0.00  0.00    +0.000 S 
ATOM     31  C   UNL     1      49.392   5.776  18.223  0.00  0.00    +0.000 A 
ENDBRANCH  18  28
ENDBRANCH  17  20
ENDBRANCH   1  17
TORSDOF 7
ENDMDL
MODEL 3
REMARK VINA RESULT:    -7.337      1.777      2.440
REMARK INTER + INTRA:         -11.128
REMARK INTER:                 -10.148
REMARK INTRA:                  -0.980
REMARK UNBOUND:                -0.788
REMARK  Name = 
REMARK  8 active torsions:
REMARK  status: ('A' for Active; 'I' for Inactive)
REMARK    1  A    between atoms: C_1  and  C_2
REMARK    2  A    between atoms: C_7  and  C_8
REMARK    3  A    between atoms: N_10  and  C_11
REMARK    4  A    between atoms: C_11  and  C_12
REMARK    5  A    between atoms: C_15  and  N_16
REMARK    6  A    between atoms: N_16  and  C_17
REMARK    7  A    between atoms: C_17  and  C_18
REMARK    8  A    between atoms: C_18  and  C_19
REMARK                            x       y       z     vdW  Elec       q    Type
REMARK                         _______ _______ _______ _____ _____    ______ ____
ROOT
ATOM      1  C   UNL     1      46.933   6.120  12.922  0.00  0.00    +0.000 A 
ATOM      2  C   UNL     1      46.219   5.138  13.612  0.00  0.00    +0.000 A 
ATOM      3  C   UNL     1      45.110   4.515  13.031  0.00  0.00    +0.000 A 
ATOM      4  C   UNL     1      44.672   4.848  11.742  0.00  0.00    +0.000 A 
ATOM      5  C   UNL     1      45.407   5.816  11.046  0.00  0.00    +0.000 A 
ATOM      6  C   UNL     1      46.503   6.470  11.636  0.00  0.00    +0.000 A 
ENDROOT
BRANCH   4   7
ATOM      7  N   UNL     1      43.630   4.163  11.087  0.00  0.00    +0.000 N 
ATOM      8  H   UNL     1      43.256   3.414  11.666  0.00  0.00    +0.000 HD
BRANCH   7   9
ATOM      9  C   UNL     1      43.883   3.751   9.699  0.00  0.00    +0.000 C 
BRANCH   9  10
ATOM     10  C   UNL     1      44.663   2.432   9.627  0.00  0.00    +0.000 C 
BRANCH  10  11
ATOM     11  C   UNL     1      45.639   2.430   8.469  0.00  0.00    +0.000 A 
ATOM     12  C   UNL     1      46.355   1.286   8.105  0.00  0.00    +0.000 A 
ATOM     13  C   UNL     1      47.280   1.375   7.075  0.00  0.00    +0.000 A 
ATOM     14  N   UNL     1      47.538   2.511   6.392  0.00  0.00    +0.000 NA
ATOM     15  C   UNL     1      46.832   3.601   6.749  0.00  0.00    +0.000 A 
ATOM     16  C   UNL     1      45.883   3.612   7.758  0.00  0.00    +0.000 A 
ENDBRANCH  10  11
ENDBRANCH   9  10
ENDBRANCH   7   9
ENDBRANCH   4   7
BRANCH   1  17
ATOM     17  C   UNL     1      48.164   6.726  13.549  0.00  0.00    +0.000 C 
BRANCH  17  20
ATOM     18  C   UNL     1      49.346   6.841  15.684  0.00  0.00    +0.000 C 
ATOM     19  O   UNL     1      50.186   7.597  15.207  0.00  0.00    +0.000 OA
ATOM     20  N   UNL     1      48.295   6.347  14.939  0.00  0.00    +0.000 N 
ATOM     21  H   UNL     1      47.464   6.077  15.439  0.00  0.00    +0.000 HD
BRANCH  18  28
ATOM     22  C   UNL     1      50.599   4.970  21.659  0.00  0.00    +0.000 C 
ATOM     23  C   UNL     1      50.913   5.063  20.196  0.00  0.00    +0.000 A 
ATOM     24  N   UNL     1      52.096   4.537  19.783  0.00  0.00    +0.000 NA
ATOM     25  C   UNL     1      52.434   4.612  18.486  0.00  0.00    +0.000 A 
ATOM     26  C   UNL     1      51.654   5.200  17.505  0.00  0.00    +0.000 A 
ATOM     27  C   UNL     1      50.404   5.751  17.876  0.00  0.00    +0.000 A 
ATOM     28  C   UNL     1      49.375   6.455  17.109  0.00  0.00    +0.000 A 
ATOM     29  C   UNL     1      48.323   6.826  17.924  0.00  0.00    +0.000 A 
ATOM     30  S   UNL     1      48.526   6.382  19.544  0.00  0.00    +0.000 S 
ATOM     31  C   UNL     1      50.065   5.667  19.236  0.00  0.00    +0.000 A 
ENDBRANCH  18  28
ENDBRANCH  17  20
ENDBRANCH   1  17
TORSDOF 7
ENDMDL
MODEL 4
REMARK VINA RESULT:    -7.266      1.684      2.450
REMARK INTER + INTRA:         -11.028
REMARK INTER:                 -10.133
REMARK INTRA:                  -0.895
REMARK UNBOUND:                -0.788
REMARK  Name = 
REMARK  8 active torsions:
REMARK  status: ('A' for Active; 'I' for Inactive)
REMARK    1  A    between atoms: C_1  and  C_2
REMARK    2  A    between atoms: C_7  and  C_8
REMARK    3  A    between atoms: N_10  and  C_11
REMARK    4  A    between atoms: C_11  and  C_12
REMARK    5  A    between atoms: C_15  and  N_16
REMARK    6  A    between atoms: N_16  and  C_17
REMARK    7  A    between atoms: C_17  and  C_18
REMARK    8  A    between atoms: C_18  and  C_19
REMARK                            x       y       z     vdW  Elec       q    Type
REMARK                         _______ _______ _______ _____ _____    ______ ____
ROOT
ATOM      1  C   UNL     1      46.853   4.637  14.227  0.00  0.00    +0.000 A 
ATOM      2  C   UNL     1      45.758   3.947  13.704  0.00  0.00    +0.000 A 
ATOM      3  C   UNL     1      45.190   4.321  12.482  0.00  0.00    +0.000 A 
ATOM      4  C   UNL     1      45.693   5.396  11.737  0.00  0.00    +0.000 A 
ATOM      5  C   UNL     1      46.807   6.069  12.255  0.00  0.00    +0.000 A 
ATOM      6  C   UNL     1      47.362   5.719  13.498  0.00  0.00    +0.000 A 
ENDROOT
BRANCH   4   7
ATOM      7  N   UNL     1      45.217   5.728  10.453  0.00  0.00    +0.000 N 
ATOM      8  H   UNL     1      44.470   6.418  10.501  0.00  0.00    +0.000 HD
BRANCH   7   9
ATOM      9  C   UNL     1      44.910   4.606   9.555  0.00  0.00    +0.000 C 
BRANCH   9  10
ATOM     10  C   UNL     1      45.692   4.696   8.238  0.00  0.00    +0.000 C 
BRANCH  10  11
ATOM     11  C   UNL     1      46.235   3.344   7.825  0.00  0.00    +0.000 A 
ATOM     12  C   UNL     1      45.781   2.155   8.402  0.00  0.00    +0.000 A 
ATOM     13  C   UNL     1      46.370   0.957   8.020  0.00  0.00    +0.000 A 
ATOM     14  N   UNL     1      47.368   0.866   7.114  0.00  0.00    +0.000 NA
ATOM     15  C   UNL     1      47.785   2.020   6.560  0.00  0.00    +0.000 A 
ATOM     16  C   UNL     1      47.257   3.263   6.870  0.00  0.00    +0.000 A 
ENDBRANCH  10  11
ENDBRANCH   9  10
ENDBRANCH   7   9
ENDBRANCH   4   7
BRANCH   1  17
ATOM     17  C   UNL     1      47.484   4.169  15.514  0.00  0.00    +0.000 C 
BRANCH  17  20
ATOM     18  C   UNL     1      48.477   5.711  17.129  0.00  0.00    +0.000 C 
ATOM     19  O   UNL     1      49.607   5.396  16.773  0.00  0.00    +0.000 OA
ATOM     20  N   UNL     1      47.347   5.156  16.564  0.00  0.00    +0.000 N 
ATOM     21  H   UNL     1      46.501   5.700  16.596  0.00  0.00    +0.000 HD
BRANCH  18  28
ATOM     22  C   UNL     1      47.339  10.923  20.637  0.00  0.00    +0.000 C 
ATOM     23  C   UNL     1      47.704  10.227  19.361  0.00  0.00    +0.000 A 
ATOM     24  N   UNL     1      47.883  11.005  18.261  0.00  0.00    +0.000 NA
ATOM     25  C   UNL     1      48.192  10.430  17.089  0.00  0.00    +0.000 A 
ATOM     26  C   UNL     1      48.347   9.067  16.900  0.00  0.00    +0.000 A 
ATOM     27  C   UNL     1      48.188   8.209  18.015  0.00  0.00    +0.000 A 
ATOM     28  C   UNL     1      48.252   6.754  18.150  0.00  0.00    +0.000 A 
ATOM     29  C   UNL     1      48.003   6.370  19.454  0.00  0.00    +0.000 A 
ATOM     30  S   UNL     1      47.690   7.664  20.498  0.00  0.00    +0.000 S 
ATOM     31  C   UNL     1      47.862   8.826  19.234  0.00  0.00    +0.000 A 
ENDBRANCH  18  28
ENDBRANCH  17  20
ENDBRANCH   1  17
TORSDOF 7
ENDMDL
MODEL 5
REMARK VINA RESULT:    -7.083      4.316      6.762
REMARK INTER + INTRA:         -10.769
REMARK INTER:                  -9.875
REMARK INTRA:                  -0.894
REMARK UNBOUND:                -0.788
REMARK  Name = 
REMARK  8 active torsions:
REMARK  status: ('A' for Active; 'I' for Inactive)
REMARK    1  A    between atoms: C_1  and  C_2
REMARK    2  A    between atoms: C_7  and  C_8
REMARK    3  A    between atoms: N_10  and  C_11
REMARK    4  A    between atoms: C_11  and  C_12
REMARK    5  A    between atoms: C_15  and  N_16
REMARK    6  A    between atoms: N_16  and  C_17
REMARK    7  A    between atoms: C_17  and  C_18
REMARK    8  A    between atoms: C_18  and  C_19
REMARK                            x       y       z     vdW  Elec       q    Type
REMARK                         _______ _______ _______ _____ _____    ______ ____
ROOT
ATOM      1  C   UNL     1      47.288   6.240  13.000  0.00  0.00    +0.000 A 
ATOM      2  C   UNL     1      46.656   5.135  13.574  0.00  0.00    +0.000 A 
ATOM      3  C   UNL     1      45.617   4.476  12.909  0.00  0.00    +0.000 A 
ATOM      4  C   UNL     1      45.170   4.894  11.648  0.00  0.00    +0.000 A 
ATOM      5  C   UNL     1      45.824   5.988  11.067  0.00  0.00    +0.000 A 
ATOM      6  C   UNL     1      46.847   6.675  11.744  0.00  0.00    +0.000 A 
ENDROOT
BRANCH   4   7
ATOM      7  N   UNL     1      44.204   4.188  10.905  0.00  0.00    +0.000 N 
ATOM      8  H   UNL     1      43.978   3.297  11.343  0.00  0.00    +0.000 HD
BRANCH   7   9
ATOM      9  C   UNL     1      44.437   4.079   9.458  0.00  0.00    +0.000 C 
BRANCH   9  10
ATOM     10  C   UNL     1      44.459   2.618   8.990  0.00  0.00    +0.000 C 
BRANCH  10  11
ATOM     11  C   UNL     1      45.693   2.321   8.164  0.00  0.00    +0.000 A 
ATOM     12  C   UNL     1      46.223   1.032   8.060  0.00  0.00    +0.000 A 
ATOM     13  C   UNL     1      47.394   0.846   7.337  0.00  0.00    +0.000 A 
ATOM     14  N   UNL     1      48.063   1.843   6.721  0.00  0.00    +0.000 NA
ATOM     15  C   UNL     1      47.532   3.077   6.822  0.00  0.00    +0.000 A 
ATOM     16  C   UNL     1      46.367   3.363   7.514  0.00  0.00    +0.000 A 
ENDBRANCH  10  11
ENDBRANCH   9  10
ENDBRANCH   7   9
ENDBRANCH   4   7
BRANCH   1  17
ATOM     17  C   UNL     1      48.449   6.888  13.711  0.00  0.00    +0.000 C 
BRANCH  17  20
ATOM     18  C   UNL     1      50.479   8.156  13.216  0.00  0.00    +0.000 C 
ATOM     19  O   UNL     1      50.930   7.916  14.331  0.00  0.00    +0.000 OA
ATOM     20  N   UNL     1      49.247   7.689  12.807  0.00  0.00    +0.000 N 
ATOM     21  H   UNL     1      49.104   7.572  11.818  0.00  0.00    +0.000 HD
BRANCH  18  28
ATOM     22  C   UNL     1      53.646  10.517   8.201  0.00  0.00    +0.000 C 
ATOM     23  C   UNL     1      53.028   9.397   8.982  0.00  0.00    +0.000 A 
ATOM     24  N   UNL     1      53.048   8.163   8.414  0.00  0.00    +0.000 NA
ATOM     25  C   UNL     1      52.490   7.129   9.063  0.00  0.00    +0.000 A 
ATOM     26  C   UNL     1      51.876   7.219  10.300  0.00  0.00    +0.000 A 
ATOM     27  C   UNL     1      51.840   8.478  10.946  0.00  0.00    +0.000 A 
ATOM     28  C   UNL     1      51.256   8.913  12.215  0.00  0.00    +0.000 A 
ATOM     29  C   UNL     1      51.462  10.266  12.412  0.00  0.00    +0.000 A 
ATOM     30  S   UNL     1      52.301  11.018  11.152  0.00  0.00    +0.000 S 
ATOM     31  C   UNL     1      52.426   9.550  10.254  0.00  0.00    +0.000 A 
ENDBRANCH  18  28
ENDBRANCH  17  20
ENDBRANCH   1  17
TORSDOF 7
ENDMDL
MODEL 6
REMARK VINA RESULT:    -6.970      3.622      8.664
REMARK INTER + INTRA:         -10.611
REMARK INTER:                  -9.018
REMARK INTRA:                  -1.593
REMARK UNBOUND:                -0.788
REMARK  Name = 
REMARK  8 active torsions:
REMARK  status: ('A' for Active; 'I' for Inactive)
REMARK    1  A    between atoms: C_1  and  C_2
REMARK    2  A    between atoms: C_7  and  C_8
REMARK    3  A    between atoms: N_10  and  C_11
REMARK    4  A    between atoms: C_11  and  C_12
REMARK    5  A    between atoms: C_15  and  N_16
REMARK    6  A    between atoms: N_16  and  C_17
REMARK    7  A    between atoms: C_17  and  C_18
REMARK    8  A    between atoms: C_18  and  C_19
REMARK                            x       y       z     vdW  Elec       q    Type
REMARK                         _______ _______ _______ _____ _____    ______ ____
ROOT
ATOM      1  C   UNL     1      48.720   8.607  16.793  0.00  0.00    +0.000 A 
ATOM      2  C   UNL     1      48.043   8.711  18.009  0.00  0.00    +0.000 A 
ATOM      3  C   UNL     1      48.476   8.004  19.135  0.00  0.00    +0.000 A 
ATOM      4  C   UNL     1      49.600   7.168  19.090  0.00  0.00    +0.000 A 
ATOM      5  C   UNL     1      50.289   7.087  17.873  0.00  0.00    +0.000 A 
ATOM      6  C   UNL     1      49.841   7.769  16.730  0.00  0.00    +0.000 A 
ENDROOT
BRANCH   4   7
ATOM      7  N   UNL     1      50.126   6.530  20.231  0.00  0.00    +0.000 N 
ATOM      8  H   UNL     1      51.010   6.948  20.514  0.00  0.00    +0.000 HD
BRANCH   7   9
ATOM      9  C   UNL     1      50.162   5.062  20.206  0.00  0.00    +0.000 C 
BRANCH   9  10
ATOM     10  C   UNL     1      48.835   4.465  19.720  0.00  0.00    +0.000 C 
BRANCH  10  11
ATOM     11  C   UNL     1      49.026   3.646  18.460  0.00  0.00    +0.000 A 
ATOM     12  C   UNL     1      47.957   3.309  17.625  0.00  0.00    +0.000 A 
ATOM     13  C   UNL     1      48.198   2.501  16.523  0.00  0.00    +0.000 A 
ATOM     14  N   UNL     1      49.414   2.012  16.200  0.00  0.00    +0.000 NA
ATOM     15  C   UNL     1      50.435   2.355  17.010  0.00  0.00    +0.000 A 
ATOM     16  C   UNL     1      50.298   3.160  18.128  0.00  0.00    +0.000 A 
ENDBRANCH  10  11
ENDBRANCH   9  10
ENDBRANCH   7   9
ENDBRANCH   4   7
BRANCH   1  17
ATOM     17  C   UNL     1      48.269   9.433  15.615  0.00  0.00    +0.000 C 
BRANCH  17  20
ATOM     18  C   UNL     1      47.691   8.020  13.706  0.00  0.00    +0.000 C 
ATOM     19  O   UNL     1      48.866   7.961  13.362  0.00  0.00    +0.000 OA
ATOM     20  N   UNL     1      47.286   8.730  14.818  0.00  0.00    +0.000 N 
ATOM     21  H   UNL     1      46.433   8.438  15.265  0.00  0.00    +0.000 HD
BRANCH  18  28
ATOM     22  C   UNL     1      43.427   3.944  11.264  0.00  0.00    +0.000 C 
ATOM     23  C   UNL     1      44.668   4.272  12.037  0.00  0.00    +0.000 A 
ATOM     24  N   UNL     1      45.323   3.236  12.624  0.00  0.00    +0.000 NA
ATOM     25  C   UNL     1      46.429   3.478  13.344  0.00  0.00    +0.000 A 
ATOM     26  C   UNL     1      46.974   4.735  13.546  0.00  0.00    +0.000 A 
ATOM     27  C   UNL     1      46.342   5.849  12.945  0.00  0.00    +0.000 A 
ATOM     28  C   UNL     1      46.636   7.282  12.983  0.00  0.00    +0.000 A 
ATOM     29  C   UNL     1      45.709   7.993  12.244  0.00  0.00    +0.000 A 
ATOM     30  S   UNL     1      44.518   7.026  11.531  0.00  0.00    +0.000 S 
ATOM     31  C   UNL     1      45.185   5.580  12.196  0.00  0.00    +0.000 A 
ENDBRANCH  18  28
ENDBRANCH  17  20
ENDBRANCH   1  17
TORSDOF 7
ENDMDL
MODEL 7
REMARK VINA RESULT:    -6.801      2.185      2.864
REMARK INTER + INTRA:         -10.372
REMARK INTER:                  -9.691
REMARK INTRA:                  -0.682
REMARK UNBOUND:                -0.788
REMARK  Name = 
REMARK  8 active torsions:
REMARK  status: ('A' for Active; 'I' for Inactive)
REMARK    1  A    between atoms: C_1  and  C_2
REMARK    2  A    between atoms: C_7  and  C_8
REMARK    3  A    between atoms: N_10  and  C_11
REMARK    4  A    between atoms: C_11  and  C_12
REMARK    5  A    between atoms: C_15  and  N_16
REMARK    6  A    between atoms: N_16  and  C_17
REMARK    7  A    between atoms: C_17  and  C_18
REMARK    8  A    between atoms: C_18  and  C_19
REMARK                            x       y       z     vdW  Elec       q    Type
REMARK                         _______ _______ _______ _____ _____    ______ ____
ROOT
ATOM      1  C   UNL     1      46.203   8.126  12.703  0.00  0.00    +0.000 A 
ATOM      2  C   UNL     1      45.145   8.512  11.878  0.00  0.00    +0.000 A 
ATOM      3  C   UNL     1      44.486   7.579  11.071  0.00  0.00    +0.000 A 
ATOM      4  C   UNL     1      44.856   6.228  11.058  0.00  0.00    +0.000 A 
ATOM      5  C   UNL     1      45.902   5.842  11.906  0.00  0.00    +0.000 A 
ATOM      6  C   UNL     1      46.590   6.780  12.695  0.00  0.00    +0.000 A 
ENDROOT
BRANCH   4   7
ATOM      7  N   UNL     1      44.143   5.245  10.343  0.00  0.00    +0.000 N 
ATOM      8  H   UNL     1      43.216   5.099  10.737  0.00  0.00    +0.000 HD
BRANCH   7   9
ATOM      9  C   UNL     1      44.856   3.992  10.058  0.00  0.00    +0.000 C 
BRANCH   9  10
ATOM     10  C   UNL     1      44.558   3.473   8.645  0.00  0.00    +0.000 C 
BRANCH  10  11
ATOM     11  C   UNL     1      45.763   2.777   8.048  0.00  0.00    +0.000 A 
ATOM     12  C   UNL     1      46.700   3.457   7.265  0.00  0.00    +0.000 A 
ATOM     13  C   UNL     1      47.744   2.741   6.697  0.00  0.00    +0.000 A 
ATOM     14  N   UNL     1      47.915   1.411   6.852  0.00  0.00    +0.000 NA
ATOM     15  C   UNL     1      47.009   0.773   7.618  0.00  0.00    +0.000 A 
ATOM     16  C   UNL     1      45.938   1.399   8.233  0.00  0.00    +0.000 A 
ENDBRANCH  10  11
ENDBRANCH   9  10
ENDBRANCH   7   9
ENDBRANCH   4   7
BRANCH   1  17
ATOM     17  C   UNL     1      46.850   9.141  13.611  0.00  0.00    +0.000 C 
BRANCH  17  20
ATOM     18  C   UNL     1      48.414   9.085  15.488  0.00  0.00    +0.000 C 
ATOM     19  O   UNL     1      48.990  10.083  15.071  0.00  0.00    +0.000 OA
ATOM     20  N   UNL     1      47.334   8.532  14.832  0.00  0.00    +0.000 N 
ATOM     21  H   UNL     1      46.684   7.996  15.384  0.00  0.00    +0.000 HD
BRANCH  18  28
ATOM     22  C   UNL     1      51.090   6.029  20.414  0.00  0.00    +0.000 C 
ATOM     23  C   UNL     1      50.967   6.361  18.958  0.00  0.00    +0.000 A 
ATOM     24  N   UNL     1      51.883   5.811  18.118  0.00  0.00    +0.000 NA
ATOM     25  C   UNL     1      51.829   6.093  16.807  0.00  0.00    +0.000 A 
ATOM     26  C   UNL     1      50.889   6.924  16.221  0.00  0.00    +0.000 A 
ATOM     27  C   UNL     1      49.901   7.512  17.046  0.00  0.00    +0.000 A 
ATOM     28  C   UNL     1      48.807   8.440  16.757  0.00  0.00    +0.000 A 
ATOM     29  C   UNL     1      48.111   8.752  17.909  0.00  0.00    +0.000 A 
ATOM     30  S   UNL     1      48.716   7.999  19.297  0.00  0.00    +0.000 S 
ATOM     31  C   UNL     1      49.972   7.210  18.416  0.00  0.00    +0.000 A 
ENDBRANCH  18  28
ENDBRANCH  17  20
ENDBRANCH   1  17
TORSDOF 7
ENDMDL
MODEL 8
REMARK VINA RESULT:    -6.449      2.908      9.280
REMARK INTER + INTRA:          -9.876
REMARK INTER:                  -8.731
REMARK INTRA:                  -1.145
REMARK UNBOUND:                -0.788
REMARK  Name = 
REMARK  8 active torsions:
REMARK  status: ('A' for Active; 'I' for Inactive)
REMARK    1  A    between atoms: C_1  and  C_2
REMARK    2  A    between atoms: C_7  and  C_8
REMARK    3  A    between atoms: N_10  and  C_11
REMARK    4  A    between atoms: C_11  and  C_12
REMARK    5  A    between atoms: C_15  and  N_16
REMARK    6  A    between atoms: N_16  and  C_17
REMARK    7  A    between atoms: C_17  and  C_18
REMARK    8  A    between atoms: C_18  and  C_19
REMARK                            x       y       z     vdW  Elec       q    Type
REMARK                         _______ _______ _______ _____ _____    ______ ____
ROOT
ATOM      1  C   UNL     1      48.197   7.966  14.086  0.00  0.00    +0.000 A 
ATOM      2  C   UNL     1      48.490   6.691  14.573  0.00  0.00    +0.000 A 
ATOM      3  C   UNL     1      48.978   6.513  15.872  0.00  0.00    +0.000 A 
ATOM      4  C   UNL     1      49.190   7.599  16.732  0.00  0.00    +0.000 A 
ATOM      5  C   UNL     1      48.870   8.873  16.246  0.00  0.00    +0.000 A 
ATOM      6  C   UNL     1      48.411   9.062  14.931  0.00  0.00    +0.000 A 
ENDROOT
BRANCH   4   7
ATOM      7  N   UNL     1      49.574   7.445  18.079  0.00  0.00    +0.000 N 
ATOM      8  H   UNL     1      50.586   7.407  18.174  0.00  0.00    +0.000 HD
BRANCH   7   9
ATOM      9  C   UNL     1      48.881   6.400  18.845  0.00  0.00    +0.000 C 
BRANCH   9  10
ATOM     10  C   UNL     1      49.839   5.290  19.296  0.00  0.00    +0.000 C 
BRANCH  10  11
ATOM     11  C   UNL     1      49.767   4.090  18.374  0.00  0.00    +0.000 A 
ATOM     12  C   UNL     1      50.914   3.436  17.917  0.00  0.00    +0.000 A 
ATOM     13  C   UNL     1      50.774   2.383  17.024  0.00  0.00    +0.000 A 
ATOM     14  N   UNL     1      49.584   1.945  16.559  0.00  0.00    +0.000 NA
ATOM     15  C   UNL     1      48.488   2.579  17.019  0.00  0.00    +0.000 A 
ATOM     16  C   UNL     1      48.524   3.634  17.916  0.00  0.00    +0.000 A 
ENDBRANCH  10  11
ENDBRANCH   9  10
ENDBRANCH   7   9
ENDBRANCH   4   7
BRANCH   1  17
ATOM     17  C   UNL     1      47.610   8.121  12.706  0.00  0.00    +0.000 C 
BRANCH  17  20
ATOM     18  C   UNL     1      45.658   6.736  12.210  0.00  0.00    +0.000 C 
ATOM     19  O   UNL     1      44.901   7.625  12.584  0.00  0.00    +0.000 OA
ATOM     20  N   UNL     1      47.030   6.882  12.232  0.00  0.00    +0.000 N 
ATOM     21  H   UNL     1      47.562   6.326  11.583  0.00  0.00    +0.000 HD
BRANCH  18  28
ATOM     22  C   UNL     1      44.207   1.432   8.967  0.00  0.00    +0.000 C 
ATOM     23  C   UNL     1      44.805   2.800   9.087  0.00  0.00    +0.000 A 
ATOM     24  N   UNL     1      45.460   3.287   8.000  0.00  0.00    +0.000 NA
ATOM     25  C   UNL     1      46.031   4.500   8.062  0.00  0.00    +0.000 A 
ATOM     26  C   UNL     1      46.009   5.321   9.176  0.00  0.00    +0.000 A 
ATOM     27  C   UNL     1      45.327   4.872  10.332  0.00  0.00    +0.000 A 
ATOM     28  C   UNL     1      45.145   5.467  11.657  0.00  0.00    +0.000 A 
ATOM     29  C   UNL     1      44.410   4.629  12.474  0.00  0.00    +0.000 A 
ATOM     30  S   UNL     1      43.952   3.180  11.731  0.00  0.00    +0.000 S 
ATOM     31  C   UNL     1      44.737   3.600  10.253  0.00  0.00    +0.000 A 
ENDBRANCH  18  28
ENDBRANCH  17  20
ENDBRANCH   1  17
TORSDOF 7
ENDMDL
MODEL 9
REMARK VINA RESULT:    -6.256      2.896      4.368
REMARK INTER + INTRA:          -9.605
REMARK INTER:                  -9.103
REMARK INTRA:                  -0.502
REMARK UNBOUND:                -0.788
REMARK  Name = 
REMARK  8 active torsions:
REMARK  status: ('A' for Active; 'I' for Inactive)
REMARK    1  A    between atoms: C_1  and  C_2
REMARK    2  A    between atoms: C_7  and  C_8
REMARK    3  A    between atoms: N_10  and  C_11
REMARK    4  A    between atoms: C_11  and  C_12
REMARK    5  A    between atoms: C_15  and  N_16
REMARK    6  A    between atoms: N_16  and  C_17
REMARK    7  A    between atoms: C_17  and  C_18
REMARK    8  A    between atoms: C_18  and  C_19
REMARK                            x       y       z     vdW  Elec       q    Type
REMARK                         _______ _______ _______ _____ _____    ______ ____
ROOT
ATOM      1  C   UNL     1      48.047   6.585  14.723  0.00  0.00    +0.000 A 
ATOM      2  C   UNL     1      47.995   7.300  13.525  0.00  0.00    +0.000 A 
ATOM      3  C   UNL     1      47.320   6.788  12.412  0.00  0.00    +0.000 A 
ATOM      4  C   UNL     1      46.673   5.546  12.452  0.00  0.00    +0.000 A 
ATOM      5  C   UNL     1      46.708   4.845  13.665  0.00  0.00    +0.000 A 
ATOM      6  C   UNL     1      47.412   5.338  14.777  0.00  0.00    +0.000 A 
ENDROOT
BRANCH   4   7
ATOM      7  N   UNL     1      45.893   5.053  11.387  0.00  0.00    +0.000 N 
ATOM      8  H   UNL     1      46.357   5.194  10.492  0.00  0.00    +0.000 HD
BRANCH   7   9
ATOM      9  C   UNL     1      44.477   5.444  11.373  0.00  0.00    +0.000 C 
BRANCH   9  10
ATOM     10  C   UNL     1      43.672   4.643  10.342  0.00  0.00    +0.000 C 
BRANCH  10  11
ATOM     11  C   UNL     1      44.579   3.820   9.452  0.00  0.00    +0.000 A 
ATOM     12  C   UNL     1      45.325   4.395   8.419  0.00  0.00    +0.000 A 
ATOM     13  C   UNL     1      46.086   3.570   7.603  0.00  0.00    +0.000 A 
ATOM     14  N   UNL     1      46.152   2.228   7.742  0.00  0.00    +0.000 NA
ATOM     15  C   UNL     1      45.435   1.692   8.749  0.00  0.00    +0.000 A 
ATOM     16  C   UNL     1      44.652   2.431   9.620  0.00  0.00    +0.000 A 
ENDBRANCH  10  11
ENDBRANCH   9  10
ENDBRANCH   7   9
ENDBRANCH   4   7
BRANCH   1  17
ATOM     17  C   UNL     1      48.725   7.192  15.925  0.00  0.00    +0.000 C 
BRANCH  17  20
ATOM     18  C   UNL     1      49.976   5.890  17.572  0.00  0.00    +0.000 C 
ATOM     19  O   UNL     1      49.074   6.014  18.393  0.00  0.00    +0.000 OA
ATOM     20  N   UNL     1      49.901   6.441  16.309  0.00  0.00    +0.000 N 
ATOM     21  H   UNL     1      50.442   6.002  15.582  0.00  0.00    +0.000 HD
BRANCH  18  28
ATOM     22  C   UNL     1      54.632   1.578  18.267  0.00  0.00    +0.000 C 
ATOM     23  C   UNL     1      53.217   1.978  17.980  0.00  0.00    +0.000 A 
ATOM     24  N   UNL     1      52.354   0.991  17.624  0.00  0.00    +0.000 NA
ATOM     25  C   UNL     1      51.080   1.299  17.337  0.00  0.00    +0.000 A 
ATOM     26  C   UNL     1      50.556   2.579  17.375  0.00  0.00    +0.000 A 
ATOM     27  C   UNL     1      51.405   3.646  17.755  0.00  0.00    +0.000 A 
ATOM     28  C   UNL     1      51.181   5.088  17.864  0.00  0.00    +0.000 A 
ATOM     29  C   UNL     1      52.336   5.736  18.259  0.00  0.00    +0.000 A 
ATOM     30  S   UNL     1      53.654   4.702  18.487  0.00  0.00    +0.000 S 
ATOM     31  C   UNL     1      52.736   3.308  18.050  0.00  0.00    +0.000 A 
ENDBRANCH  18  28
ENDBRANCH  17  20
ENDBRANCH   1  17
TORSDOF 7
ENDMDL
