MODEL 1
REMARK VINA RESULT:    -7.601      0.000      0.000
REMARK INTER + INTRA:         -11.070
REMARK INTER:                  -9.822
REMARK INTRA:                  -1.248
REMARK UNBOUND:                -1.248
REMARK  Name = 
REMARK  7 active torsions:
REMARK  status: ('A' for Active; 'I' for Inactive)
REMARK    1  A    between atoms: C_1  and  C_2
REMARK    2  A    between atoms: C_2  and  N_3
REMARK    3  A    between atoms: C_2  and  C_16
REMARK    4  A    between atoms: C_4  and  C_6
REMARK    5  A    between atoms: N_20  and  C_21
REMARK    6  A    between atoms: C_21  and  C_22
REMARK    7  A    between atoms: C_21  and  C_23
REMARK                            x       y       z     vdW  Elec       q    Type
REMARK                         _______ _______ _______ _____ _____    ______ ____
ROOT
ATOM      1  C   UNL     1      48.389   6.946  18.344  0.00  0.00    +0.000 C 
ATOM      2  C   UNL     1      49.312   6.477  17.215  0.00  0.00    +0.000 C 
ENDROOT
BRANCH   2   3
ATOM      3  C   UNL     1      48.500   5.869  16.088  0.00  0.00    +0.000 A 
ATOM      4  C   UNL     1      47.768   4.697  16.259  0.00  0.00    +0.000 A 
ATOM      5  C   UNL     1      46.976   4.218  15.212  0.00  0.00    +0.000 A 
ATOM      6  C   UNL     1      46.894   4.929  14.017  0.00  0.00    +0.000 A 
ATOM      7  N   UNL     1      45.977   4.504  13.065  0.00  0.00    +0.000 N 
ATOM      8  N   UNL     1      47.613   6.050  13.826  0.00  0.00    +0.000 NA
ATOM      9  C   UNL     1      48.402   6.481  14.841  0.00  0.00    +0.000 A 
ATOM     10  H   UNL     1      46.056   3.532  12.795  0.00  0.00    +0.000 HD
BRANCH   7  11
ATOM     11  C   UNL     1      45.491   5.427  12.045  0.00  0.00    +0.000 C 
ATOM     12  C   UNL     1      44.210   6.044  12.630  0.00  0.00    +0.000 C 
BRANCH  11  13
ATOM     13  C   UNL     1      45.310   4.731  10.708  0.00  0.00    +0.000 A 
ATOM     14  C   UNL     1      44.765   3.440  10.652  0.00  0.00    +0.000 A 
ATOM     15  C   UNL     1      44.647   2.774   9.434  0.00  0.00    +0.000 A 
ATOM     16  C   UNL     1      45.085   3.417   8.290  0.00  0.00    +0.000 A 
ATOM     17  N   UNL     1      45.624   4.652   8.291  0.00  0.00    +0.000 NA
ATOM     18  C   UNL     1      45.728   5.273   9.493  0.00  0.00    +0.000 A 
ENDBRANCH  11  13
ENDBRANCH   7  11
ENDBRANCH   2   3
BRANCH   2  19
ATOM     19  N   UNL     1      50.303   5.511  17.664  0.00  0.00    +0.000 N 
ATOM     20  C   UNL     1      51.589   5.460  17.188  0.00  0.00    +0.000 C 
ATOM     21  O   UNL     1      52.031   6.266  16.374  0.00  0.00    +0.000 OA
ATOM     22  H   UNL     1      49.927   4.646  18.044  0.00  0.00    +0.000 HD
BRANCH  20  23
ATOM     23  C   UNL     1      52.447   4.426  17.777  0.00  0.00    +0.000 A 
ATOM     24  C   UNL     1      53.616   4.785  18.433  0.00  0.00    +0.000 A 
ATOM     25  S   UNL     1      54.460   3.458  19.096  0.00  0.00    +0.000 S 
ATOM     26  C   UNL     1      53.317   2.353  18.487  0.00  0.00    +0.000 A 
ATOM     27  N   UNL     1      53.460   1.017  18.679  0.00  0.00    +0.000 NA
ATOM     28  C   UNL     1      52.530   0.296  18.137  0.00  0.00    +0.000 A 
ATOM     29  N   UNL     1      51.472   0.794  17.426  0.00  0.00    +0.000 N 
ATOM     30  C   UNL     1      51.271   2.140  17.235  0.00  0.00    +0.000 A 
ATOM     31  O   UNL     1      50.285   2.565  16.640  0.00  0.00    +0.000 OA
ATOM     32  C   UNL     1      52.294   2.991  17.808  0.00  0.00    +0.000 A 
ATOM     33  H   UNL     1      50.773   0.178  17.039  0.00  0.00    +0.000 HD
ENDBRANCH  20  23
ENDBRANCH   2  19
TORSDOF 5
ENDMDL
MODEL 2
REMARK VINA RESULT:    -7.453      3.756      8.568
REMARK INTER + INTRA:         -10.879
REMARK INTER:                 -10.090
REMARK INTRA:                  -0.789
REMARK UNBOUND:                -1.248
REMARK  Name = 
REMARK  7 active torsions:
REMARK  status: ('A' for Active; 'I' for Inactive)
REMARK    1  A    between atoms: C_1  and  C_2
REMARK    2  A    between atoms: C_2  and  N_3
REMARK    3  A    between atoms: C_2  and  C_16
REMARK    4  A    between atoms: C_4  and  C_6
REMARK    5  A    between atoms: N_20  and  C_21
REMARK    6  A    between atoms: C_21  and  C_22
REMARK    7  A    between atoms: C_21  and  C_23
REMARK                            x       y       z     vdW  Elec       q    Type
REMARK                         _______ _______ _______ _____ _____    ______ ____
ROOT
ATOM      1  C   UNL     1      49.489   8.315  11.545  0.00  0.00    +0.000 C 
ATOM      2  C   UNL     1      48.194   7.973  12.288  0.00  0.00    +0.000 C 
ENDROOT
BRANCH   2   3
ATOM      3  C   UNL     1      48.493   7.600  13.727  0.00  0.00    +0.000 A 
ATOM      4  C   UNL     1      48.756   8.564  14.697  0.00  0.00    +0.000 A 
ATOM      5  C   UNL     1      48.950   8.173  16.025  0.00  0.00    +0.000 A 
ATOM      6  C   UNL     1      48.847   6.830  16.380  0.00  0.00    +0.000 A 
ATOM      7  N   UNL     1      48.890   6.506  17.729  0.00  0.00    +0.000 N 
ATOM      8  N   UNL     1      48.617   5.883  15.452  0.00  0.00    +0.000 NA
ATOM      9  C   UNL     1      48.464   6.278  14.164  0.00  0.00    +0.000 A 
ATOM     10  H   UNL     1      49.697   6.855  18.229  0.00  0.00    +0.000 HD
BRANCH   7  11
ATOM     11  C   UNL     1      48.321   5.249  18.204  0.00  0.00    +0.000 C 
ATOM     12  C   UNL     1      48.105   5.443  19.713  0.00  0.00    +0.000 C 
BRANCH  11  13
ATOM     13  C   UNL     1      49.199   4.068  17.833  0.00  0.00    +0.000 A 
ATOM     14  C   UNL     1      50.557   4.060  18.181  0.00  0.00    +0.000 A 
ATOM     15  C   UNL     1      51.381   3.004  17.797  0.00  0.00    +0.000 A 
ATOM     16  C   UNL     1      50.825   1.973  17.061  0.00  0.00    +0.000 A 
ATOM     17  N   UNL     1      49.529   1.937  16.693  0.00  0.00    +0.000 NA
ATOM     18  C   UNL     1      48.754   2.981  17.080  0.00  0.00    +0.000 A 
ENDBRANCH  11  13
ENDBRANCH   7  11
ENDBRANCH   2   3
BRANCH   2  19
ATOM     19  N   UNL     1      47.455   6.888  11.659  0.00  0.00    +0.000 N 
ATOM     20  C   UNL     1      46.091   6.884  11.503  0.00  0.00    +0.000 C 
ATOM     21  O   UNL     1      45.379   7.826  11.837  0.00  0.00    +0.000 OA
ATOM     22  H   UNL     1      47.911   5.979  11.683  0.00  0.00    +0.000 HD
BRANCH  20  23
ATOM     23  C   UNL     1      45.531   5.708  10.826  0.00  0.00    +0.000 A 
ATOM     24  C   UNL     1      45.713   5.542   9.461  0.00  0.00    +0.000 A 
ATOM     25  S   UNL     1      45.036   4.097   8.855  0.00  0.00    +0.000 S 
ATOM     26  C   UNL     1      44.433   3.670  10.387  0.00  0.00    +0.000 A 
ATOM     27  N   UNL     1      43.714   2.532  10.568  0.00  0.00    +0.000 NA
ATOM     28  C   UNL     1      43.298   2.348  11.781  0.00  0.00    +0.000 A 
ATOM     29  N   UNL     1      43.539   3.199  12.825  0.00  0.00    +0.000 N 
ATOM     30  C   UNL     1      44.288   4.344  12.695  0.00  0.00    +0.000 A 
ATOM     31  O   UNL     1      44.537   5.062  13.659  0.00  0.00    +0.000 OA
ATOM     32  C   UNL     1      44.765   4.604  11.352  0.00  0.00    +0.000 A 
ATOM     33  H   UNL     1      43.195   2.991  13.751  0.00  0.00    +0.000 HD
ENDBRANCH  20  23
ENDBRANCH   2  19
TORSDOF 5
ENDMDL
MODEL 3
REMARK VINA RESULT:    -7.375      3.732      4.796
REMARK INTER + INTRA:         -10.779
REMARK INTER:                 -10.894
REMARK INTRA:                   0.116
REMARK UNBOUND:                -1.248
REMARK  Name = 
REMARK  7 active torsions:
REMARK  status: ('A' for Active; 'I' for Inactive)
REMARK    1  A    between atoms: C_1  and  C_2
REMARK    2  A    between atoms: C_2  and  N_3
REMARK    3  A    between atoms: C_2  and  C_16
REMARK    4  A    between atoms: C_4  and  C_6
REMARK    5  A    between atoms: N_20  and  C_21
REMARK    6  A    between atoms: C_21  and  C_22
REMARK    7  A    between atoms: C_21  and  C_23
REMARK                            x       y       z     vdW  Elec       q    Type
REMARK                         _______ _______ _______ _____ _____    ______ ____
ROOT
ATOM      1  C   UNL     1      49.290   7.706  12.779  0.00  0.00    +0.000 C 
ATOM      2  C   UNL     1      48.483   6.675  13.576  0.00  0.00    +0.000 C 
ENDROOT
BRANCH   2   3
ATOM      3  C   UNL     1      47.179   6.363  12.868  0.00  0.00    +0.000 A 
ATOM      4  C   UNL     1      46.527   7.307  12.077  0.00  0.00    +0.000 A 
ATOM      5  C   UNL     1      45.368   6.947  11.385  0.00  0.00    +0.000 A 
ATOM      6  C   UNL     1      44.888   5.641  11.459  0.00  0.00    +0.000 A 
ATOM      7  N   UNL     1      43.830   5.287  10.633  0.00  0.00    +0.000 N 
ATOM      8  N   UNL     1      45.492   4.723  12.235  0.00  0.00    +0.000 NA
ATOM      9  C   UNL     1      46.596   5.101  12.926  0.00  0.00    +0.000 A 
ATOM     10  H   UNL     1      43.012   5.878  10.705  0.00  0.00    +0.000 HD
BRANCH   7  11
ATOM     11  C   UNL     1      43.596   3.887  10.295  0.00  0.00    +0.000 C 
ATOM     12  C   UNL     1      43.479   3.155  11.641  0.00  0.00    +0.000 C 
BRANCH  11  13
ATOM     13  C   UNL     1      44.675   3.353   9.370  0.00  0.00    +0.000 A 
ATOM     14  C   UNL     1      45.302   4.204   8.450  0.00  0.00    +0.000 A 
ATOM     15  C   UNL     1      46.254   3.709   7.562  0.00  0.00    +0.000 A 
ATOM     16  C   UNL     1      46.557   2.360   7.610  0.00  0.00    +0.000 A 
ATOM     17  N   UNL     1      45.976   1.498   8.469  0.00  0.00    +0.000 NA
ATOM     18  C   UNL     1      45.052   2.011   9.318  0.00  0.00    +0.000 A 
ENDBRANCH  11  13
ENDBRANCH   7  11
ENDBRANCH   2   3
BRANCH   2  19
ATOM     19  N   UNL     1      48.195   7.114  14.933  0.00  0.00    +0.000 N 
ATOM     20  C   UNL     1      48.999   6.838  16.011  0.00  0.00    +0.000 C 
ATOM     21  O   UNL     1      50.065   6.237  15.911  0.00  0.00    +0.000 OA
ATOM     22  H   UNL     1      47.214   7.293  15.134  0.00  0.00    +0.000 HD
BRANCH  20  23
ATOM     23  C   UNL     1      48.550   7.383  17.297  0.00  0.00    +0.000 A 
ATOM     24  C   UNL     1      48.438   8.755  17.467  0.00  0.00    +0.000 A 
ATOM     25  S   UNL     1      47.856   9.205  19.008  0.00  0.00    +0.000 S 
ATOM     26  C   UNL     1      47.783   7.583  19.517  0.00  0.00    +0.000 A 
ATOM     27  N   UNL     1      47.383   7.258  20.773  0.00  0.00    +0.000 NA
ATOM     28  C   UNL     1      47.401   5.988  21.029  0.00  0.00    +0.000 A 
ATOM     29  N   UNL     1      47.781   5.019  20.139  0.00  0.00    +0.000 N 
ATOM     30  C   UNL     1      48.161   5.300  18.849  0.00  0.00    +0.000 A 
ATOM     31  O   UNL     1      48.444   4.409  18.053  0.00  0.00    +0.000 OA
ATOM     32  C   UNL     1      48.173   6.710  18.516  0.00  0.00    +0.000 A 
ATOM     33  H   UNL     1      47.761   4.044  20.398  0.00  0.00    +0.000 HD
ENDBRANCH  20  23
ENDBRANCH   2  19
TORSDOF 5
ENDMDL
MODEL 4
REMARK VINA RESULT:    -7.276      3.822      5.461
REMARK INTER + INTRA:         -10.651
REMARK INTER:                 -10.551
REMARK INTRA:                  -0.100
REMARK UNBOUND:                -1.248
REMARK  Name = 
REMARK  7 active torsions:
REMARK  status: ('A' for Active; 'I' for Inactive)
REMARK    1  A    between atoms: C_1  and  C_2
REMARK    2  A    between atoms: C_2  and  N_3
REMARK    3  A    between atoms: C_2  and  C_16
REMARK    4  A    between atoms: C_4  and  C_6
REMARK    5  A    between atoms: N_20  and  C_21
REMARK    6  A    between atoms: C_21  and  C_22
REMARK    7  A    between atoms: C_21  and  C_23
REMARK                            x       y       z     vdW  Elec       q    Type
REMARK                         _______ _______ _______ _____ _____    ______ ____
ROOT
ATOM      1  C   UNL     1      49.266   7.685  13.171  0.00  0.00    +0.000 C 
ATOM      2  C   UNL     1      48.471   6.531  13.790  0.00  0.00    +0.000 C 
ENDROOT
BRANCH   2   3
ATOM      3  C   UNL     1      47.201   6.280  13.000  0.00  0.00    +0.000 A 
ATOM      4  C   UNL     1      46.648   7.251  12.169  0.00  0.00    +0.000 A 
ATOM      5  C   UNL     1      45.519   6.945  11.404  0.00  0.00    +0.000 A 
ATOM      6  C   UNL     1      44.972   5.665  11.448  0.00  0.00    +0.000 A 
ATOM      7  N   UNL     1      43.953   5.359  10.557  0.00  0.00    +0.000 N 
ATOM      8  N   UNL     1      45.479   4.722  12.263  0.00  0.00    +0.000 NA
ATOM      9  C   UNL     1      46.554   5.048  13.023  0.00  0.00    +0.000 A 
ATOM     10  H   UNL     1      43.162   5.990  10.575  0.00  0.00    +0.000 HD
BRANCH   7  11
ATOM     11  C   UNL     1      43.672   3.971  10.206  0.00  0.00    +0.000 C 
ATOM     12  C   UNL     1      43.491   3.239  11.545  0.00  0.00    +0.000 C 
BRANCH  11  13
ATOM     13  C   UNL     1      44.753   3.397   9.308  0.00  0.00    +0.000 A 
ATOM     14  C   UNL     1      45.415   4.220   8.385  0.00  0.00    +0.000 A 
ATOM     15  C   UNL     1      46.369   3.689   7.520  0.00  0.00    +0.000 A 
ATOM     16  C   UNL     1      46.639   2.334   7.594  0.00  0.00    +0.000 A 
ATOM     17  N   UNL     1      46.025   1.499   8.456  0.00  0.00    +0.000 NA
ATOM     18  C   UNL     1      45.099   2.047   9.282  0.00  0.00    +0.000 A 
ENDBRANCH  11  13
ENDBRANCH   7  11
ENDBRANCH   2   3
BRANCH   2  19
ATOM     19  N   UNL     1      48.125   6.771  15.184  0.00  0.00    +0.000 N 
ATOM     20  C   UNL     1      48.913   6.390  16.241  0.00  0.00    +0.000 C 
ATOM     21  O   UNL     1      50.009   5.856  16.098  0.00  0.00    +0.000 OA
ATOM     22  H   UNL     1      47.132   6.877  15.374  0.00  0.00    +0.000 HD
BRANCH  20  23
ATOM     23  C   UNL     1      48.404   6.738  17.573  0.00  0.00    +0.000 A 
ATOM     24  C   UNL     1      48.175   5.741  18.510  0.00  0.00    +0.000 A 
ATOM     25  S   UNL     1      47.631   6.333  20.015  0.00  0.00    +0.000 S 
ATOM     26  C   UNL     1      47.635   7.938  19.450  0.00  0.00    +0.000 A 
ATOM     27  N   UNL     1      47.242   8.965  20.246  0.00  0.00    +0.000 NA
ATOM     28  C   UNL     1      47.272  10.127  19.676  0.00  0.00    +0.000 A 
ATOM     29  N   UNL     1      47.662  10.350  18.383  0.00  0.00    +0.000 N 
ATOM     30  C   UNL     1      48.098   9.347  17.552  0.00  0.00    +0.000 A 
ATOM     31  O   UNL     1      48.495   9.580  16.414  0.00  0.00    +0.000 OA
ATOM     32  C   UNL     1      48.068   8.022  18.139  0.00  0.00    +0.000 A 
ATOM     33  H   UNL     1      47.674  11.285  18.001  0.00  0.00    +0.000 HD
ENDBRANCH  20  23
ENDBRANCH   2  19
TORSDOF 5
ENDMDL
MODEL 5
REMARK VINA RESULT:    -7.239      3.718      9.145
REMARK INTER + INTRA:         -10.603
REMARK INTER:                  -9.820
REMARK INTRA:                  -0.783
REMARK UNBOUND:                -1.248
REMARK  Name = 
REMARK  7 active torsions:
REMARK  status: ('A' for Active; 'I' for Inactive)
REMARK    1  A    between atoms: C_1  and  C_2
REMARK    2  A    between atoms: C_2  and  N_3
REMARK    3  A    between atoms: C_2  and  C_16
REMARK    4  A    between atoms: C_4  and  C_6
REMARK    5  A    between atoms: N_20  and  C_21
REMARK    6  A    between atoms: C_21  and  C_22
REMARK    7  A    between atoms: C_21  and  C_23
REMARK                            x       y       z     vdW  Elec       q    Type
REMARK                         _______ _______ _______ _____ _____    ______ ____
ROOT
ATOM      1  C   UNL     1      47.957   8.262  11.907  0.00  0.00    +0.000 C 
ATOM      2  C   UNL     1      47.193   7.567  13.038  0.00  0.00    +0.000 C 
ENDROOT
BRANCH   2   3
ATOM      3  C   UNL     1      48.140   7.183  14.159  0.00  0.00    +0.000 A 
ATOM      4  C   UNL     1      49.057   8.088  14.688  0.00  0.00    +0.000 A 
ATOM      5  C   UNL     1      49.855   7.709  15.771  0.00  0.00    +0.000 A 
ATOM      6  C   UNL     1      49.708   6.445  16.338  0.00  0.00    +0.000 A 
ATOM      7  N   UNL     1      50.406   6.168  17.506  0.00  0.00    +0.000 N 
ATOM      8  N   UNL     1      48.844   5.550  15.825  0.00  0.00    +0.000 NA
ATOM      9  C   UNL     1      48.103   5.924  14.753  0.00  0.00    +0.000 A 
ATOM     10  H   UNL     1      51.403   6.327  17.459  0.00  0.00    +0.000 HD
BRANCH   7  11
ATOM     11  C   UNL     1      49.956   5.106  18.399  0.00  0.00    +0.000 C 
ATOM     12  C   UNL     1      50.203   5.635  19.821  0.00  0.00    +0.000 C 
BRANCH  11  13
ATOM     13  C   UNL     1      50.640   3.788  18.082  0.00  0.00    +0.000 A 
ATOM     14  C   UNL     1      51.994   3.601  18.395  0.00  0.00    +0.000 A 
ATOM     15  C   UNL     1      52.641   2.415  18.058  0.00  0.00    +0.000 A 
ATOM     16  C   UNL     1      51.917   1.435  17.403  0.00  0.00    +0.000 A 
ATOM     17  N   UNL     1      50.617   1.569  17.070  0.00  0.00    +0.000 NA
ATOM     18  C   UNL     1      50.016   2.736  17.411  0.00  0.00    +0.000 A 
ENDBRANCH  11  13
ENDBRANCH   7  11
ENDBRANCH   2   3
BRANCH   2  19
ATOM     19  N   UNL     1      46.481   6.379  12.589  0.00  0.00    +0.000 N 
ATOM     20  C   UNL     1      45.325   6.417  11.850  0.00  0.00    +0.000 C 
ATOM     21  O   UNL     1      44.818   7.463  11.459  0.00  0.00    +0.000 OA
ATOM     22  H   UNL     1      46.636   5.542  13.145  0.00  0.00    +0.000 HD
BRANCH  20  23
ATOM     23  C   UNL     1      44.766   5.113  11.475  0.00  0.00    +0.000 A 
ATOM     24  C   UNL     1      43.980   4.410  12.377  0.00  0.00    +0.000 A 
ATOM     25  S   UNL     1      43.377   2.940  11.753  0.00  0.00    +0.000 S 
ATOM     26  C   UNL     1      44.187   3.169  10.275  0.00  0.00    +0.000 A 
ATOM     27  N   UNL     1      44.114   2.245   9.282  0.00  0.00    +0.000 NA
ATOM     28  C   UNL     1      44.801   2.539   8.224  0.00  0.00    +0.000 A 
ATOM     29  N   UNL     1      45.550   3.674   8.073  0.00  0.00    +0.000 N 
ATOM     30  C   UNL     1      45.627   4.651   9.037  0.00  0.00    +0.000 A 
ATOM     31  O   UNL     1      46.261   5.686   8.855  0.00  0.00    +0.000 OA
ATOM     32  C   UNL     1      44.887   4.362  10.249  0.00  0.00    +0.000 A 
ATOM     33  H   UNL     1      46.054   3.850   7.216  0.00  0.00    +0.000 HD
ENDBRANCH  20  23
ENDBRANCH   2  19
TORSDOF 5
ENDMDL
MODEL 6
REMARK VINA RESULT:    -6.941      3.614      4.270
REMARK INTER + INTRA:         -10.217
REMARK INTER:                  -9.140
REMARK INTRA:                  -1.077
REMARK UNBOUND:                -1.248
REMARK  Name = 
REMARK  7 active torsions:
REMARK  status: ('A' for Active; 'I' for Inactive)
REMARK    1  A    between atoms: C_1  and  C_2
REMARK    2  A    between atoms: C_2  and  N_3
REMARK    3  A    between atoms: C_2  and  C_16
REMARK    4  A    between atoms: C_4  and  C_6
REMARK    5  A    between atoms: N_20  and  C_21
REMARK    6  A    between atoms: C_21  and  C_22
REMARK    7  A    between atoms: C_21  and  C_23
REMARK                            x       y       z     vdW  Elec       q    Type
REMARK                         _______ _______ _______ _____ _____    ______ ____
ROOT
ATOM      1  C   UNL     1      48.804   8.954  14.375  0.00  0.00    +0.000 C 
ATOM      2  C   UNL     1      48.863   7.599  15.087  0.00  0.00    +0.000 C 
ENDROOT
BRANCH   2   3
ATOM      3  C   UNL     1      48.013   6.579  14.354  0.00  0.00    +0.000 A 
ATOM      4  C   UNL     1      47.588   5.402  14.965  0.00  0.00    +0.000 A 
ATOM      5  C   UNL     1      46.744   4.530  14.272  0.00  0.00    +0.000 A 
ATOM      6  C   UNL     1      46.304   4.855  12.991  0.00  0.00    +0.000 A 
ATOM      7  N   UNL     1      45.345   4.042  12.403  0.00  0.00    +0.000 N 
ATOM      8  N   UNL     1      46.723   5.977  12.377  0.00  0.00    +0.000 NA
ATOM      9  C   UNL     1      47.569   6.794  13.052  0.00  0.00    +0.000 A 
ATOM     10  H   UNL     1      45.579   3.059  12.366  0.00  0.00    +0.000 HD
BRANCH   7  11
ATOM     11  C   UNL     1      44.502   4.554  11.328  0.00  0.00    +0.000 C 
ATOM     12  C   UNL     1      43.068   4.145  11.702  0.00  0.00    +0.000 C 
BRANCH  11  13
ATOM     13  C   UNL     1      44.972   4.058   9.972  0.00  0.00    +0.000 A 
ATOM     14  C   UNL     1      44.865   2.700   9.641  0.00  0.00    +0.000 A 
ATOM     15  C   UNL     1      45.344   2.229   8.420  0.00  0.00    +0.000 A 
ATOM     16  C   UNL     1      45.930   3.134   7.553  0.00  0.00    +0.000 A 
ATOM     17  N   UNL     1      46.065   4.446   7.827  0.00  0.00    +0.000 NA
ATOM     18  C   UNL     1      45.591   4.872   9.025  0.00  0.00    +0.000 A 
ENDBRANCH  11  13
ENDBRANCH   7  11
ENDBRANCH   2   3
BRANCH   2  19
ATOM     19  N   UNL     1      48.427   7.674  16.474  0.00  0.00    +0.000 N 
ATOM     20  C   UNL     1      49.283   7.625  17.546  0.00  0.00    +0.000 C 
ATOM     21  O   UNL     1      50.503   7.567  17.423  0.00  0.00    +0.000 OA
ATOM     22  H   UNL     1      47.469   7.380  16.646  0.00  0.00    +0.000 HD
BRANCH  20  23
ATOM     23  C   UNL     1      48.655   7.735  18.868  0.00  0.00    +0.000 A 
ATOM     24  C   UNL     1      48.241   8.972  19.338  0.00  0.00    +0.000 A 
ATOM     25  S   UNL     1      47.490   8.903  20.869  0.00  0.00    +0.000 S 
ATOM     26  C   UNL     1      47.738   7.223  20.978  0.00  0.00    +0.000 A 
ATOM     27  N   UNL     1      47.347   6.523  22.074  0.00  0.00    +0.000 NA
ATOM     28  C   UNL     1      47.622   5.258  22.029  0.00  0.00    +0.000 A 
ATOM     29  N   UNL     1      48.251   4.635  20.985  0.00  0.00    +0.000 N 
ATOM     30  C   UNL     1      48.635   5.296  19.843  0.00  0.00    +0.000 A 
ATOM     31  O   UNL     1      49.147   4.704  18.898  0.00  0.00    +0.000 OA
ATOM     32  C   UNL     1      48.363   6.720  19.850  0.00  0.00    +0.000 A 
ATOM     33  H   UNL     1      48.426   3.641  21.007  0.00  0.00    +0.000 HD
ENDBRANCH  20  23
ENDBRANCH   2  19
TORSDOF 5
ENDMDL
MODEL 7
REMARK VINA RESULT:    -6.765      4.030      5.506
REMARK INTER + INTRA:          -9.990
REMARK INTER:                  -8.758
REMARK INTRA:                  -1.232
REMARK UNBOUND:                -1.248
REMARK  Name = 
REMARK  7 active torsions:
REMARK  status: ('A' for Active; 'I' for Inactive)
REMARK    1  A    between atoms: C_1  and  C_2
REMARK    2  A    between atoms: C_2  and  N_3
REMARK    3  A    between atoms: C_2  and  C_16
REMARK    4  A    between atoms: C_4  and  C_6
REMARK    5  A    between atoms: N_20  and  C_21
REMARK    6  A    between atoms: C_21  and  C_22
REMARK    7  A    between atoms: C_21  and  C_23
REMARK                            x       y       z     vdW  Elec       q    Type
REMARK                         _______ _______ _______ _____ _____    ______ ____
ROOT
ATOM      1  C   UNL     1      48.795   8.995  14.397  0.00  0.00    +0.000 C 
ATOM      2  C   UNL     1      48.846   7.648  15.126  0.00  0.00    +0.000 C 
ENDROOT
BRANCH   2   3
ATOM      3  C   UNL     1      48.016   6.616  14.388  0.00  0.00    +0.000 A 
ATOM      4  C   UNL     1      47.617   5.426  14.991  0.00  0.00    +0.000 A 
ATOM      5  C   UNL     1      46.789   4.542  14.294  0.00  0.00    +0.000 A 
ATOM      6  C   UNL     1      46.339   4.867  13.016  0.00  0.00    +0.000 A 
ATOM      7  N   UNL     1      45.395   4.038  12.426  0.00  0.00    +0.000 N 
ATOM      8  N   UNL     1      46.733   6.001  12.410  0.00  0.00    +0.000 NA
ATOM      9  C   UNL     1      47.564   6.831  13.089  0.00  0.00    +0.000 A 
ATOM     10  H   UNL     1      45.650   3.060  12.380  0.00  0.00    +0.000 HD
BRANCH   7  11
ATOM     11  C   UNL     1      44.538   4.540  11.356  0.00  0.00    +0.000 C 
ATOM     12  C   UNL     1      43.117   4.082  11.721  0.00  0.00    +0.000 C 
BRANCH  11  13
ATOM     13  C   UNL     1      45.026   4.080   9.994  0.00  0.00    +0.000 A 
ATOM     14  C   UNL     1      44.958   2.725   9.640  0.00  0.00    +0.000 A 
ATOM     15  C   UNL     1      45.453   2.288   8.413  0.00  0.00    +0.000 A 
ATOM     16  C   UNL     1      46.016   3.222   7.563  0.00  0.00    +0.000 A 
ATOM     17  N   UNL     1      46.114   4.534   7.859  0.00  0.00    +0.000 NA
ATOM     18  C   UNL     1      45.625   4.927   9.062  0.00  0.00    +0.000 A 
ENDBRANCH  11  13
ENDBRANCH   7  11
ENDBRANCH   2   3
BRANCH   2  19
ATOM     19  N   UNL     1      48.382   7.737  16.503  0.00  0.00    +0.000 N 
ATOM     20  C   UNL     1      49.217   7.720  17.591  0.00  0.00    +0.000 C 
ATOM     21  O   UNL     1      50.440   7.682  17.493  0.00  0.00    +0.000 OA
ATOM     22  H   UNL     1      47.426   7.428  16.661  0.00  0.00    +0.000 HD
BRANCH  20  23
ATOM     23  C   UNL     1      48.562   7.839  18.899  0.00  0.00    +0.000 A 
ATOM     24  C   UNL     1      48.637   6.796  19.810  0.00  0.00    +0.000 A 
ATOM     25  S   UNL     1      47.860   7.128  21.293  0.00  0.00    +0.000 S 
ATOM     26  C   UNL     1      47.353   8.659  20.749  0.00  0.00    +0.000 A 
ATOM     27  N   UNL     1      46.605   9.473  21.537  0.00  0.00    +0.000 NA
ATOM     28  C   UNL     1      46.271  10.596  20.984  0.00  0.00    +0.000 A 
ATOM     29  N   UNL     1      46.622  10.974  19.716  0.00  0.00    +0.000 N 
ATOM     30  C   UNL     1      47.405  10.198  18.896  0.00  0.00    +0.000 A 
ATOM     31  O   UNL     1      47.752  10.584  17.784  0.00  0.00    +0.000 OA
ATOM     32  C   UNL     1      47.793   8.922  19.463  0.00  0.00    +0.000 A 
ATOM     33  H   UNL     1      46.339  11.870  19.347  0.00  0.00    +0.000 HD
ENDBRANCH  20  23
ENDBRANCH   2  19
TORSDOF 5
ENDMDL
MODEL 8
REMARK VINA RESULT:    -6.580      4.260      5.414
REMARK INTER + INTRA:          -9.752
REMARK INTER:                  -8.491
REMARK INTRA:                  -1.261
REMARK UNBOUND:                -1.248
REMARK  Name = 
REMARK  7 active torsions:
REMARK  status: ('A' for Active; 'I' for Inactive)
REMARK    1  A    between atoms: C_1  and  C_2
REMARK    2  A    between atoms: C_2  and  N_3
REMARK    3  A    between atoms: C_2  and  C_16
REMARK    4  A    between atoms: C_4  and  C_6
REMARK    5  A    between atoms: N_20  and  C_21
REMARK    6  A    between atoms: C_21  and  C_22
REMARK    7  A    between atoms: C_21  and  C_23
REMARK                            x       y       z     vdW  Elec       q    Type
REMARK                         _______ _______ _______ _____ _____    ______ ____
ROOT
ATOM      1  C   UNL     1      49.201   7.086  16.355  0.00  0.00    +0.000 C 
ATOM      2  C   UNL     1      48.994   7.498  14.894  0.00  0.00    +0.000 C 
ENDROOT
BRANCH   2   3
ATOM      3  C   UNL     1      48.085   6.509  14.190  0.00  0.00    +0.000 A 
ATOM      4  C   UNL     1      47.529   5.419  14.855  0.00  0.00    +0.000 A 
ATOM      5  C   UNL     1      46.638   4.580  14.182  0.00  0.00    +0.000 A 
ATOM      6  C   UNL     1      46.282   4.853  12.863  0.00  0.00    +0.000 A 
ATOM      7  N   UNL     1      45.277   4.089  12.285  0.00  0.00    +0.000 N 
ATOM      8  N   UNL     1      46.827   5.887  12.198  0.00  0.00    +0.000 NA
ATOM      9  C   UNL     1      47.716   6.671  12.857  0.00  0.00    +0.000 A 
ATOM     10  H   UNL     1      45.422   3.088  12.323  0.00  0.00    +0.000 HD
BRANCH   7  11
ATOM     11  C   UNL     1      44.530   4.597  11.140  0.00  0.00    +0.000 C 
ATOM     12  C   UNL     1      43.055   4.292  11.446  0.00  0.00    +0.000 C 
BRANCH  11  13
ATOM     13  C   UNL     1      45.045   4.011   9.838  0.00  0.00    +0.000 A 
ATOM     14  C   UNL     1      45.023   2.625   9.630  0.00  0.00    +0.000 A 
ATOM     15  C   UNL     1      45.544   2.076   8.460  0.00  0.00    +0.000 A 
ATOM     16  C   UNL     1      46.085   2.933   7.518  0.00  0.00    +0.000 A 
ATOM     17  N   UNL     1      46.138   4.271   7.674  0.00  0.00    +0.000 NA
ATOM     18  C   UNL     1      45.625   4.773   8.825  0.00  0.00    +0.000 A 
ENDBRANCH  11  13
ENDBRANCH   7  11
ENDBRANCH   2   3
BRANCH   2  19
ATOM     19  N   UNL     1      50.244   7.604  14.157  0.00  0.00    +0.000 N 
ATOM     20  C   UNL     1      50.857   8.796  13.862  0.00  0.00    +0.000 C 
ATOM     21  O   UNL     1      50.425   9.880  14.244  0.00  0.00    +0.000 OA
ATOM     22  H   UNL     1      50.454   6.823  13.540  0.00  0.00    +0.000 HD
BRANCH  20  23
ATOM     23  C   UNL     1      52.122   8.697  13.126  0.00  0.00    +0.000 A 
ATOM     24  C   UNL     1      53.298   9.154  13.704  0.00  0.00    +0.000 A 
ATOM     25  S   UNL     1      54.676   8.915  12.726  0.00  0.00    +0.000 S 
ATOM     26  C   UNL     1      53.741   8.239  11.475  0.00  0.00    +0.000 A 
ATOM     27  N   UNL     1      54.311   7.835  10.311  0.00  0.00    +0.000 NA
ATOM     28  C   UNL     1      53.475   7.364   9.440  0.00  0.00    +0.000 A 
ATOM     29  N   UNL     1      52.124   7.260   9.634  0.00  0.00    +0.000 N 
ATOM     30  C   UNL     1      51.509   7.625  10.808  0.00  0.00    +0.000 A 
ATOM     31  O   UNL     1      50.303   7.470  10.978  0.00  0.00    +0.000 OA
ATOM     32  C   UNL     1      52.400   8.174  11.810  0.00  0.00    +0.000 A 
ATOM     33  H   UNL     1      51.527   6.872   8.918  0.00  0.00    +0.000 HD
ENDBRANCH  20  23
ENDBRANCH   2  19
TORSDOF 5
ENDMDL
MODEL 9
REMARK VINA RESULT:    -6.449      3.989      5.917
REMARK INTER + INTRA:          -9.583
REMARK INTER:                  -9.979
REMARK INTRA:                   0.396
REMARK UNBOUND:                -1.248
REMARK  Name = 
REMARK  7 active torsions:
REMARK  status: ('A' for Active; 'I' for Inactive)
REMARK    1  A    between atoms: C_1  and  C_2
REMARK    2  A    between atoms: C_2  and  N_3
REMARK    3  A    between atoms: C_2  and  C_16
REMARK    4  A    between atoms: C_4  and  C_6
REMARK    5  A    between atoms: N_20  and  C_21
REMARK    6  A    between atoms: C_21  and  C_22
REMARK    7  A    between atoms: C_21  and  C_23
REMARK                            x       y       z     vdW  Elec       q    Type
REMARK                         _______ _______ _______ _____ _____    ______ ____
ROOT
ATOM      1  C   UNL     1      47.342   4.412  15.105  0.00  0.00    +0.000 C 
ATOM      2  C   UNL     1      47.196   5.745  14.364  0.00  0.00    +0.000 C 
ENDROOT
BRANCH   2   3
ATOM      3  C   UNL     1      46.435   5.548  13.067  0.00  0.00    +0.000 A 
ATOM      4  C   UNL     1      46.476   6.488  12.041  0.00  0.00    +0.000 A 
ATOM      5  C   UNL     1      45.818   6.224  10.836  0.00  0.00    +0.000 A 
ATOM      6  C   UNL     1      45.156   5.013  10.653  0.00  0.00    +0.000 A 
ATOM      7  N   UNL     1      44.653   4.728   9.391  0.00  0.00    +0.000 N 
ATOM      8  N   UNL     1      45.086   4.104  11.642  0.00  0.00    +0.000 NA
ATOM      9  C   UNL     1      45.702   4.391  12.816  0.00  0.00    +0.000 A 
ATOM     10  H   UNL     1      44.038   5.432   9.004  0.00  0.00    +0.000 HD
BRANCH   7  11
ATOM     11  C   UNL     1      44.396   3.348   8.994  0.00  0.00    +0.000 C 
ATOM     12  C   UNL     1      43.976   2.623  10.282  0.00  0.00    +0.000 C 
BRANCH  11  13
ATOM     13  C   UNL     1      45.595   2.743   8.285  0.00  0.00    +0.000 A 
ATOM     14  C   UNL     1      46.351   3.516   7.392  0.00  0.00    +0.000 A 
ATOM     15  C   UNL     1      47.419   2.952   6.697  0.00  0.00    +0.000 A 
ATOM     16  C   UNL     1      47.706   1.616   6.908  0.00  0.00    +0.000 A 
ATOM     17  N   UNL     1      47.005   0.828   7.747  0.00  0.00    +0.000 NA
ATOM     18  C   UNL     1      45.970   1.406   8.406  0.00  0.00    +0.000 A 
ENDBRANCH  11  13
ENDBRANCH   7  11
ENDBRANCH   2   3
BRANCH   2  19
ATOM     19  N   UNL     1      48.479   6.369  14.073  0.00  0.00    +0.000 N 
ATOM     20  C   UNL     1      49.050   7.339  14.859  0.00  0.00    +0.000 C 
ATOM     21  O   UNL     1      48.549   7.727  15.910  0.00  0.00    +0.000 OA
ATOM     22  H   UNL     1      48.758   6.356  13.095  0.00  0.00    +0.000 HD
BRANCH  20  23
ATOM     23  C   UNL     1      50.357   7.833  14.411  0.00  0.00    +0.000 A 
ATOM     24  C   UNL     1      51.480   7.642  15.203  0.00  0.00    +0.000 A 
ATOM     25  S   UNL     1      52.917   8.238  14.502  0.00  0.00    +0.000 S 
ATOM     26  C   UNL     1      52.080   8.818  13.139  0.00  0.00    +0.000 A 
ATOM     27  N   UNL     1      52.728   9.473  12.142  0.00  0.00    +0.000 NA
ATOM     28  C   UNL     1      51.961   9.879  11.180  0.00  0.00    +0.000 A 
ATOM     29  N   UNL     1      50.607   9.686  11.130  0.00  0.00    +0.000 N 
ATOM     30  C   UNL     1      49.915   9.001  12.099  0.00  0.00    +0.000 A 
ATOM     31  O   UNL     1      48.709   8.792  12.003  0.00  0.00    +0.000 OA
ATOM     32  C   UNL     1      50.727   8.538  13.207  0.00  0.00    +0.000 A 
ATOM     33  H   UNL     1      50.066  10.018  10.344  0.00  0.00    +0.000 HD
ENDBRANCH  20  23
ENDBRANCH   2  19
TORSDOF 5
ENDMDL
