MODEL 1
REMARK VINA RESULT:    -7.283      0.000      0.000
REMARK INTER + INTRA:          -8.561
REMARK INTER:                  -8.560
REMARK INTRA:                  -0.001
REMARK UNBOUND:                -0.001
REMARK  Name = 
REMARK  5 active torsions:
REMARK  status: ('A' for Active; 'I' for Inactive)
REMARK    1  A    between atoms: C_1  and  C_2
REMARK    2  A    between atoms: C_2  and  C_3
REMARK    3  A    between atoms: C_2  and  N_9
REMARK    4  A    between atoms: N_9  and  C_10
REMARK    5  A    between atoms: C_11  and  C_13
REMARK                            x       y       z     vdW  Elec       q    Type
REMARK                         _______ _______ _______ _____ _____    ______ ____
ROOT
ATOM      1  N   UNL     1      45.279   5.133  12.955  0.00  0.00    +0.000 N 
ATOM      2  C   UNL     1      45.046   6.574  12.913  0.00  0.00    +0.000 C 
ATOM      3  C   UNL     1      46.432   4.525  13.485  0.00  0.00    +0.000 C 
ATOM      4  O   UNL     1      46.587   3.307  13.434  0.00  0.00    +0.000 OA
ENDROOT
BRANCH   3   5
ATOM      5  C   UNL     1      47.464   5.349  14.136  0.00  0.00    +0.000 A 
ATOM      6  C   UNL     1      48.143   6.386  13.514  0.00  0.00    +0.000 A 
ATOM      7  S   UNL     1      49.240   7.199  14.537  0.00  0.00    +0.000 S 
ATOM      8  C   UNL     1      48.714   6.318  15.891  0.00  0.00    +0.000 A 
ATOM      9  N   UNL     1      49.179   6.605  17.136  0.00  0.00    +0.000 NA
ATOM     10  C   UNL     1      48.627   5.916  18.076  0.00  0.00    +0.000 A 
ATOM     11  N   UNL     1      47.683   4.942  17.885  0.00  0.00    +0.000 N 
ATOM     12  C   UNL     1      47.279   4.522  16.628  0.00  0.00    +0.000 A 
ATOM     13  O   UNL     1      46.609   3.507  16.488  0.00  0.00    +0.000 OA
ATOM     14  C   UNL     1      47.788   5.348  15.545  0.00  0.00    +0.000 A 
ATOM     15  H   UNL     1      47.331   4.403  18.660  0.00  0.00    +0.000 HD
ENDBRANCH   3   5
BRANCH   1  17
ATOM     16  C   UNL     1      42.852   4.794  12.507  0.00  0.00    +0.000 C 
ATOM     17  C   UNL     1      44.273   4.249  12.309  0.00  0.00    +0.000 C 
BRANCH  17  18
ATOM     18  C   UNL     1      44.578   3.957  10.838  0.00  0.00    +0.000 A 
ATOM     19  C   UNL     1      44.306   2.692  10.319  0.00  0.00    +0.000 A 
ATOM     20  C   UNL     1      44.638   2.421   8.994  0.00  0.00    +0.000 A 
ATOM     21  C   UNL     1      45.243   3.407   8.224  0.00  0.00    +0.000 A 
ATOM     22  C   UNL     1      45.496   4.631   8.814  0.00  0.00    +0.000 A 
ATOM     23  N   UNL     1      45.181   4.925  10.095  0.00  0.00    +0.000 NA
ENDBRANCH  17  18
ENDBRANCH   1  17
TORSDOF 3
ENDMDL
MODEL 2
REMARK VINA RESULT:    -7.150      1.800      2.769
REMARK INTER + INTRA:          -8.405
REMARK INTER:                  -8.321
REMARK INTRA:                  -0.084
REMARK UNBOUND:                -0.001
REMARK  Name = 
REMARK  5 active torsions:
REMARK  status: ('A' for Active; 'I' for Inactive)
REMARK    1  A    between atoms: C_1  and  C_2
REMARK    2  A    between atoms: C_2  and  C_3
REMARK    3  A    between atoms: C_2  and  N_9
REMARK    4  A    between atoms: N_9  and  C_10
REMARK    5  A    between atoms: C_11  and  C_13
REMARK                            x       y       z     vdW  Elec       q    Type
REMARK                         _______ _______ _______ _____ _____    ______ ____
ROOT
ATOM      1  N   UNL     1      44.747   4.911  12.708  0.00  0.00    +0.000 N 
ATOM      2  C   UNL     1      44.476   6.320  12.982  0.00  0.00    +0.000 C 
ATOM      3  C   UNL     1      45.852   4.198  13.208  0.00  0.00    +0.000 C 
ATOM      4  O   UNL     1      46.050   3.028  12.889  0.00  0.00    +0.000 OA
ENDROOT
BRANCH   3   5
ATOM      5  C   UNL     1      46.778   4.847  14.152  0.00  0.00    +0.000 A 
ATOM      6  C   UNL     1      46.971   4.439  15.462  0.00  0.00    +0.000 A 
ATOM      7  S   UNL     1      48.151   5.345  16.298  0.00  0.00    +0.000 S 
ATOM      8  C   UNL     1      48.577   6.191  14.888  0.00  0.00    +0.000 A 
ATOM      9  N   UNL     1      49.622   7.060  14.883  0.00  0.00    +0.000 NA
ATOM     10  C   UNL     1      49.885   7.561  13.723  0.00  0.00    +0.000 A 
ATOM     11  N   UNL     1      49.177   7.304  12.579  0.00  0.00    +0.000 N 
ATOM     12  C   UNL     1      48.026   6.534  12.562  0.00  0.00    +0.000 A 
ATOM     13  O   UNL     1      47.299   6.508  11.577  0.00  0.00    +0.000 OA
ATOM     14  C   UNL     1      47.759   5.857  13.821  0.00  0.00    +0.000 A 
ATOM     15  H   UNL     1      49.403   7.772  11.715  0.00  0.00    +0.000 HD
ENDBRANCH   3   5
BRANCH   1  17
ATOM     16  C   UNL     1      42.559   5.003  11.521  0.00  0.00    +0.000 C 
ATOM     17  C   UNL     1      43.848   4.204  11.758  0.00  0.00    +0.000 C 
BRANCH  17  18
ATOM     18  C   UNL     1      44.536   3.817  10.446  0.00  0.00    +0.000 A 
ATOM     19  C   UNL     1      45.118   4.809   9.659  0.00  0.00    +0.000 A 
ATOM     20  C   UNL     1      45.692   4.454   8.441  0.00  0.00    +0.000 A 
ATOM     21  C   UNL     1      45.662   3.126   8.032  0.00  0.00    +0.000 A 
ATOM     22  C   UNL     1      45.053   2.202   8.860  0.00  0.00    +0.000 A 
ATOM     23  N   UNL     1      44.491   2.516  10.048  0.00  0.00    +0.000 NA
ENDBRANCH  17  18
ENDBRANCH   1  17
TORSDOF 3
ENDMDL
MODEL 3
REMARK VINA RESULT:    -6.501      3.452      7.031
REMARK INTER + INTRA:          -7.642
REMARK INTER:                  -7.214
REMARK INTRA:                  -0.428
REMARK UNBOUND:                -0.001
REMARK  Name = 
REMARK  5 active torsions:
REMARK  status: ('A' for Active; 'I' for Inactive)
REMARK    1  A    between atoms: C_1  and  C_2
REMARK    2  A    between atoms: C_2  and  C_3
REMARK    3  A    between atoms: C_2  and  N_9
REMARK    4  A    between atoms: N_9  and  C_10
REMARK    5  A    between atoms: C_11  and  C_13
REMARK                            x       y       z     vdW  Elec       q    Type
REMARK                         _______ _______ _______ _____ _____    ______ ____
ROOT
ATOM      1  N   UNL     1      46.582   6.810  12.371  0.00  0.00    +0.000 N 
ATOM      2  C   UNL     1      47.402   5.795  13.029  0.00  0.00    +0.000 C 
ATOM      3  C   UNL     1      45.420   6.539  11.627  0.00  0.00    +0.000 C 
ATOM      4  O   UNL     1      44.811   7.438  11.050  0.00  0.00    +0.000 OA
ENDROOT
BRANCH   3   5
ATOM      5  C   UNL     1      44.899   5.163  11.553  0.00  0.00    +0.000 A 
ATOM      6  C   UNL     1      44.136   4.563  12.542  0.00  0.00    +0.000 A 
ATOM      7  S   UNL     1      43.625   2.982  12.152  0.00  0.00    +0.000 S 
ATOM      8  C   UNL     1      44.248   3.113  10.577  0.00  0.00    +0.000 A 
ATOM      9  N   UNL     1      44.047   2.128   9.662  0.00  0.00    +0.000 NA
ATOM     10  C   UNL     1      44.499   2.402   8.484  0.00  0.00    +0.000 A 
ATOM     11  N   UNL     1      45.166   3.550   8.148  0.00  0.00    +0.000 N 
ATOM     12  C   UNL     1      45.512   4.518   9.075  0.00  0.00    +0.000 A 
ATOM     13  O   UNL     1      46.295   5.415   8.788  0.00  0.00    +0.000 OA
ATOM     14  C   UNL     1      44.925   4.307  10.388  0.00  0.00    +0.000 A 
ATOM     15  H   UNL     1      45.541   3.678   7.222  0.00  0.00    +0.000 HD
ENDBRANCH   3   5
BRANCH   1  17
ATOM     16  C   UNL     1      46.410   8.990  13.562  0.00  0.00    +0.000 C 
ATOM     17  C   UNL     1      47.061   8.217  12.407  0.00  0.00    +0.000 C 
BRANCH  17  18
ATOM     18  C   UNL     1      48.586   8.339  12.419  0.00  0.00    +0.000 A 
ATOM     19  C   UNL     1      49.312   7.980  11.285  0.00  0.00    +0.000 A 
ATOM     20  C   UNL     1      50.703   8.043  11.325  0.00  0.00    +0.000 A 
ATOM     21  C   UNL     1      51.335   8.449  12.494  0.00  0.00    +0.000 A 
ATOM     22  C   UNL     1      50.548   8.774  13.583  0.00  0.00    +0.000 A 
ATOM     23  N   UNL     1      49.198   8.726  13.572  0.00  0.00    +0.000 NA
ENDBRANCH  17  18
ENDBRANCH   1  17
TORSDOF 3
ENDMDL
MODEL 4
REMARK VINA RESULT:    -6.452      3.741      6.568
REMARK INTER + INTRA:          -7.584
REMARK INTER:                  -7.106
REMARK INTRA:                  -0.478
REMARK UNBOUND:                -0.001
REMARK  Name = 
REMARK  5 active torsions:
REMARK  status: ('A' for Active; 'I' for Inactive)
REMARK    1  A    between atoms: C_1  and  C_2
REMARK    2  A    between atoms: C_2  and  C_3
REMARK    3  A    between atoms: C_2  and  N_9
REMARK    4  A    between atoms: N_9  and  C_10
REMARK    5  A    between atoms: C_11  and  C_13
REMARK                            x       y       z     vdW  Elec       q    Type
REMARK                         _______ _______ _______ _____ _____    ______ ____
ROOT
ATOM      1  N   UNL     1      46.575   7.294  12.368  0.00  0.00    +0.000 N 
ATOM      2  C   UNL     1      47.578   6.242  12.510  0.00  0.00    +0.000 C 
ATOM      3  C   UNL     1      45.443   7.211  11.537  0.00  0.00    +0.000 C 
ATOM      4  O   UNL     1      44.670   8.159  11.421  0.00  0.00    +0.000 OA
ENDROOT
BRANCH   3   5
ATOM      5  C   UNL     1      45.156   5.963  10.809  0.00  0.00    +0.000 A 
ATOM      6  C   UNL     1      45.698   5.634   9.577  0.00  0.00    +0.000 A 
ATOM      7  S   UNL     1      45.227   4.096   9.007  0.00  0.00    +0.000 S 
ATOM      8  C   UNL     1      44.433   3.740  10.465  0.00  0.00    +0.000 A 
ATOM      9  N   UNL     1      43.895   2.511  10.686  0.00  0.00    +0.000 NA
ATOM     10  C   UNL     1      43.403   2.356  11.869  0.00  0.00    +0.000 A 
ATOM     11  N   UNL     1      43.363   3.326  12.835  0.00  0.00    +0.000 N 
ATOM     12  C   UNL     1      43.774   4.630  12.611  0.00  0.00    +0.000 A 
ATOM     13  O   UNL     1      43.519   5.518  13.414  0.00  0.00    +0.000 OA
ATOM     14  C   UNL     1      44.441   4.820  11.333  0.00  0.00    +0.000 A 
ATOM     15  H   UNL     1      42.915   3.155  13.721  0.00  0.00    +0.000 HD
ENDBRANCH   3   5
BRANCH   1  17
ATOM     16  C   UNL     1      47.683   8.369  14.322  0.00  0.00    +0.000 C 
ATOM     17  C   UNL     1      46.813   8.580  13.075  0.00  0.00    +0.000 C 
BRANCH  17  18
ATOM     18  C   UNL     1      47.367   9.679  12.165  0.00  0.00    +0.000 A 
ATOM     19  C   UNL     1      48.689   9.607  11.729  0.00  0.00    +0.000 A 
ATOM     20  C   UNL     1      49.199  10.640  10.947  0.00  0.00    +0.000 A 
ATOM     21  C   UNL     1      48.387  11.722  10.629  0.00  0.00    +0.000 A 
ATOM     22  C   UNL     1      47.092  11.729  11.111  0.00  0.00    +0.000 A 
ATOM     23  N   UNL     1      46.569  10.740  11.868  0.00  0.00    +0.000 NA
ENDBRANCH  17  18
ENDBRANCH   1  17
TORSDOF 3
ENDMDL
MODEL 5
REMARK VINA RESULT:    -6.108      2.611      6.886
REMARK INTER + INTRA:          -7.180
REMARK INTER:                  -6.571
REMARK INTRA:                  -0.609
REMARK UNBOUND:                -0.001
REMARK  Name = 
REMARK  5 active torsions:
REMARK  status: ('A' for Active; 'I' for Inactive)
REMARK    1  A    between atoms: C_1  and  C_2
REMARK    2  A    between atoms: C_2  and  C_3
REMARK    3  A    between atoms: C_2  and  N_9
REMARK    4  A    between atoms: N_9  and  C_10
REMARK    5  A    between atoms: C_11  and  C_13
REMARK                            x       y       z     vdW  Elec       q    Type
REMARK                         _______ _______ _______ _____ _____    ______ ____
ROOT
ATOM      1  N   UNL     1      48.505   7.549  14.412  0.00  0.00    +0.000 N 
ATOM      2  C   UNL     1      47.741   8.614  15.057  0.00  0.00    +0.000 C 
ATOM      3  C   UNL     1      48.010   6.713  13.396  0.00  0.00    +0.000 C 
ATOM      4  O   UNL     1      48.690   5.798  12.939  0.00  0.00    +0.000 OA
ENDROOT
BRANCH   3   5
ATOM      5  C   UNL     1      46.664   6.945  12.844  0.00  0.00    +0.000 A 
ATOM      6  C   UNL     1      46.331   8.007  12.017  0.00  0.00    +0.000 A 
ATOM      7  S   UNL     1      44.709   7.983  11.486  0.00  0.00    +0.000 S 
ATOM      8  C   UNL     1      44.447   6.459  12.189  0.00  0.00    +0.000 A 
ATOM      9  N   UNL     1      43.272   5.799  12.008  0.00  0.00    +0.000 NA
ATOM     10  C   UNL     1      43.247   4.617  12.524  0.00  0.00    +0.000 A 
ATOM     11  N   UNL     1      44.270   4.050  13.236  0.00  0.00    +0.000 N 
ATOM     12  C   UNL     1      45.430   4.733  13.562  0.00  0.00    +0.000 A 
ATOM     13  O   UNL     1      46.220   4.281  14.381  0.00  0.00    +0.000 OA
ATOM     14  C   UNL     1      45.550   6.025  12.905  0.00  0.00    +0.000 A 
ATOM     15  H   UNL     1      44.164   3.142  13.660  0.00  0.00    +0.000 HD
ENDBRANCH   3   5
BRANCH   1  17
ATOM     16  C   UNL     1      50.728   8.536  14.950  0.00  0.00    +0.000 C 
ATOM     17  C   UNL     1      49.869   7.264  14.930  0.00  0.00    +0.000 C 
BRANCH  17  18
ATOM     18  C   UNL     1      49.867   6.550  16.284  0.00  0.00    +0.000 A 
ATOM     19  C   UNL     1      50.537   7.124  17.363  0.00  0.00    +0.000 A 
ATOM     20  C   UNL     1      50.575   6.440  18.576  0.00  0.00    +0.000 A 
ATOM     21  C   UNL     1      49.958   5.199  18.680  0.00  0.00    +0.000 A 
ATOM     22  C   UNL     1      49.328   4.688  17.562  0.00  0.00    +0.000 A 
ATOM     23  N   UNL     1      49.271   5.330  16.375  0.00  0.00    +0.000 NA
ENDBRANCH  17  18
ENDBRANCH   1  17
TORSDOF 3
ENDMDL
MODEL 6
REMARK VINA RESULT:    -5.898      4.317      6.924
REMARK INTER + INTRA:          -6.934
REMARK INTER:                  -6.163
REMARK INTRA:                  -0.771
REMARK UNBOUND:                -0.001
REMARK  Name = 
REMARK  5 active torsions:
REMARK  status: ('A' for Active; 'I' for Inactive)
REMARK    1  A    between atoms: C_1  and  C_2
REMARK    2  A    between atoms: C_2  and  C_3
REMARK    3  A    between atoms: C_2  and  N_9
REMARK    4  A    between atoms: N_9  and  C_10
REMARK    5  A    between atoms: C_11  and  C_13
REMARK                            x       y       z     vdW  Elec       q    Type
REMARK                         _______ _______ _______ _____ _____    ______ ____
ROOT
ATOM      1  N   UNL     1      48.234   8.429  12.378  0.00  0.00    +0.000 N 
ATOM      2  C   UNL     1      48.895   7.577  11.393  0.00  0.00    +0.000 C 
ATOM      3  C   UNL     1      47.085   8.068  13.104  0.00  0.00    +0.000 C 
ATOM      4  O   UNL     1      46.546   8.858  13.876  0.00  0.00    +0.000 OA
ENDROOT
BRANCH   3   5
ATOM      5  C   UNL     1      46.523   6.713  12.964  0.00  0.00    +0.000 A 
ATOM      6  C   UNL     1      47.010   5.594  13.620  0.00  0.00    +0.000 A 
ATOM      7  S   UNL     1      46.120   4.172  13.308  0.00  0.00    +0.000 S 
ATOM      8  C   UNL     1      44.947   5.035  12.433  0.00  0.00    +0.000 A 
ATOM      9  N   UNL     1      43.826   4.420  11.972  0.00  0.00    +0.000 NA
ATOM     10  C   UNL     1      42.983   5.216  11.405  0.00  0.00    +0.000 A 
ATOM     11  N   UNL     1      43.175   6.560  11.221  0.00  0.00    +0.000 N 
ATOM     12  C   UNL     1      44.356   7.203  11.551  0.00  0.00    +0.000 A 
ATOM     13  O   UNL     1      44.578   8.347  11.173  0.00  0.00    +0.000 OA
ATOM     14  C   UNL     1      45.286   6.371  12.297  0.00  0.00    +0.000 A 
ATOM     15  H   UNL     1      42.500   7.115  10.721  0.00  0.00    +0.000 HD
ENDBRANCH   3   5
BRANCH   1  17
ATOM     16  C   UNL     1      50.258   9.798  12.861  0.00  0.00    +0.000 C 
ATOM     17  C   UNL     1      48.753   9.810  12.560  0.00  0.00    +0.000 C 
BRANCH  17  18
ATOM     18  C   UNL     1      48.405  10.747  11.400  0.00  0.00    +0.000 A 
ATOM     19  C   UNL     1      49.422  11.219  10.572  0.00  0.00    +0.000 A 
ATOM     20  C   UNL     1      49.102  12.113   9.553  0.00  0.00    +0.000 A 
ATOM     21  C   UNL     1      47.784  12.524   9.394  0.00  0.00    +0.000 A 
ATOM     22  C   UNL     1      46.834  12.025  10.265  0.00  0.00    +0.000 A 
ATOM     23  N   UNL     1      47.114  11.154  11.258  0.00  0.00    +0.000 NA
ENDBRANCH  17  18
ENDBRANCH   1  17
TORSDOF 3
ENDMDL
MODEL 7
REMARK VINA RESULT:    -5.752      4.025      6.376
REMARK INTER + INTRA:          -6.762
REMARK INTER:                  -6.019
REMARK INTRA:                  -0.743
REMARK UNBOUND:                -0.001
REMARK  Name = 
REMARK  5 active torsions:
REMARK  status: ('A' for Active; 'I' for Inactive)
REMARK    1  A    between atoms: C_1  and  C_2
REMARK    2  A    between atoms: C_2  and  C_3
REMARK    3  A    between atoms: C_2  and  N_9
REMARK    4  A    between atoms: N_9  and  C_10
REMARK    5  A    between atoms: C_11  and  C_13
REMARK                            x       y       z     vdW  Elec       q    Type
REMARK                         _______ _______ _______ _____ _____    ______ ____
ROOT
ATOM      1  N   UNL     1      50.129   5.838  17.252  0.00  0.00    +0.000 N 
ATOM      2  C   UNL     1      51.270   6.309  16.471  0.00  0.00    +0.000 C 
ATOM      3  C   UNL     1      50.179   4.791  18.189  0.00  0.00    +0.000 C 
ATOM      4  O   UNL     1      49.165   4.408  18.769  0.00  0.00    +0.000 OA
ENDROOT
BRANCH   3   5
ATOM      5  C   UNL     1      51.467   4.152  18.509  0.00  0.00    +0.000 A 
ATOM      6  C   UNL     1      52.387   4.658  19.414  0.00  0.00    +0.000 A 
ATOM      7  S   UNL     1      53.763   3.669  19.621  0.00  0.00    +0.000 S 
ATOM      8  C   UNL     1      53.095   2.445  18.651  0.00  0.00    +0.000 A 
ATOM      9  N   UNL     1      53.725   1.249  18.503  0.00  0.00    +0.000 NA
ATOM     10  C   UNL     1      53.060   0.386  17.812  0.00  0.00    +0.000 A 
ATOM     11  N   UNL     1      51.845   0.620  17.224  0.00  0.00    +0.000 N 
ATOM     12  C   UNL     1      51.230   1.861  17.233  0.00  0.00    +0.000 A 
ATOM     13  O   UNL     1      50.265   2.092  16.516  0.00  0.00    +0.000 OA
ATOM     14  C   UNL     1      51.886   2.831  18.096  0.00  0.00    +0.000 A 
ATOM     15  H   UNL     1      51.404  -0.082  16.651  0.00  0.00    +0.000 HD
ENDBRANCH   3   5
BRANCH   1  17
ATOM     16  C   UNL     1      48.873   7.975  17.005  0.00  0.00    +0.000 C 
ATOM     17  C   UNL     1      48.800   6.443  16.970  0.00  0.00    +0.000 C 
BRANCH  17  18
ATOM     18  C   UNL     1      48.160   5.926  15.679  0.00  0.00    +0.000 A 
ATOM     19  C   UNL     1      47.498   4.699  15.686  0.00  0.00    +0.000 A 
ATOM     20  C   UNL     1      46.966   4.212  14.494  0.00  0.00    +0.000 A 
ATOM     21  C   UNL     1      47.119   4.950  13.326  0.00  0.00    +0.000 A 
ATOM     22  C   UNL     1      47.802   6.150  13.396  0.00  0.00    +0.000 A 
ATOM     23  N   UNL     1      48.323   6.649  14.538  0.00  0.00    +0.000 NA
ENDBRANCH  17  18
ENDBRANCH   1  17
TORSDOF 3
ENDMDL
MODEL 8
REMARK VINA RESULT:    -5.577      3.735      6.799
REMARK INTER + INTRA:          -6.556
REMARK INTER:                  -5.753
REMARK INTRA:                  -0.803
REMARK UNBOUND:                -0.001
REMARK  Name = 
REMARK  5 active torsions:
REMARK  status: ('A' for Active; 'I' for Inactive)
REMARK    1  A    between atoms: C_1  and  C_2
REMARK    2  A    between atoms: C_2  and  C_3
REMARK    3  A    between atoms: C_2  and  N_9
REMARK    4  A    between atoms: N_9  and  C_10
REMARK    5  A    between atoms: C_11  and  C_13
REMARK                            x       y       z     vdW  Elec       q    Type
REMARK                         _______ _______ _______ _____ _____    ______ ____
ROOT
ATOM      1  N   UNL     1      48.740   8.001  14.969  0.00  0.00    +0.000 N 
ATOM      2  C   UNL     1      48.123   8.938  15.905  0.00  0.00    +0.000 C 
ATOM      3  C   UNL     1      48.550   8.023  13.576  0.00  0.00    +0.000 C 
ATOM      4  O   UNL     1      49.055   7.167  12.852  0.00  0.00    +0.000 OA
ENDROOT
BRANCH   3   5
ATOM      5  C   UNL     1      47.757   9.100  12.959  0.00  0.00    +0.000 A 
ATOM      6  C   UNL     1      48.258  10.350  12.632  0.00  0.00    +0.000 A 
ATOM      7  S   UNL     1      47.118  11.371  11.875  0.00  0.00    +0.000 S 
ATOM      8  C   UNL     1      45.974  10.119  11.790  0.00  0.00    +0.000 A 
ATOM      9  N   UNL     1      44.791  10.295  11.144  0.00  0.00    +0.000 NA
ATOM     10  C   UNL     1      44.061   9.234  11.083  0.00  0.00    +0.000 A 
ATOM     11  N   UNL     1      44.384   8.025  11.641  0.00  0.00    +0.000 N 
ATOM     12  C   UNL     1      45.511   7.835  12.423  0.00  0.00    +0.000 A 
ATOM     13  O   UNL     1      45.653   6.815  13.086  0.00  0.00    +0.000 OA
ATOM     14  C   UNL     1      46.420   8.970  12.423  0.00  0.00    +0.000 A 
ATOM     15  H   UNL     1      43.742   7.250  11.603  0.00  0.00    +0.000 HD
ENDBRANCH   3   5
BRANCH   1  17
ATOM     16  C   UNL     1      50.654   7.423  16.454  0.00  0.00    +0.000 C 
ATOM     17  C   UNL     1      49.549   6.889  15.533  0.00  0.00    +0.000 C 
BRANCH  17  18
ATOM     18  C   UNL     1      48.704   5.809  16.214  0.00  0.00    +0.000 A 
ATOM     19  C   UNL     1      48.769   5.659  17.598  0.00  0.00    +0.000 A 
ATOM     20  C   UNL     1      48.039   4.639  18.202  0.00  0.00    +0.000 A 
ATOM     21  C   UNL     1      47.274   3.787  17.414  0.00  0.00    +0.000 A 
ATOM     22  C   UNL     1      47.272   3.989  16.047  0.00  0.00    +0.000 A 
ATOM     23  N   UNL     1      47.967   4.973  15.434  0.00  0.00    +0.000 NA
ENDBRANCH  17  18
ENDBRANCH   1  17
TORSDOF 3
ENDMDL
MODEL 9
REMARK VINA RESULT:    -5.372      2.478      7.601
REMARK INTER + INTRA:          -6.315
REMARK INTER:                  -5.626
REMARK INTRA:                  -0.689
REMARK UNBOUND:                -0.001
REMARK  Name = 
REMARK  5 active torsions:
REMARK  status: ('A' for Active; 'I' for Inactive)
REMARK    1  A    between atoms: C_1  and  C_2
REMARK    2  A    between atoms: C_2  and  C_3
REMARK    3  A    between atoms: C_2  and  N_9
REMARK    4  A    between atoms: N_9  and  C_10
REMARK    5  A    between atoms: C_11  and  C_13
REMARK                            x       y       z     vdW  Elec       q    Type
REMARK                         _______ _______ _______ _____ _____    ______ ____
ROOT
ATOM      1  N   UNL     1      49.096   7.848  16.695  0.00  0.00    +0.000 N 
ATOM      2  C   UNL     1      48.122   8.928  16.570  0.00  0.00    +0.000 C 
ATOM      3  C   UNL     1      49.276   6.821  15.751  0.00  0.00    +0.000 C 
ATOM      4  O   UNL     1      50.076   5.909  15.949  0.00  0.00    +0.000 OA
ENDROOT
BRANCH   3   5
ATOM      5  C   UNL     1      48.519   6.844  14.488  0.00  0.00    +0.000 A 
ATOM      6  C   UNL     1      48.801   7.684  13.422  0.00  0.00    +0.000 A 
ATOM      7  S   UNL     1      47.789   7.442  12.069  0.00  0.00    +0.000 S 
ATOM      8  C   UNL     1      47.061   6.086  12.789  0.00  0.00    +0.000 A 
ATOM      9  N   UNL     1      46.165   5.327  12.104  0.00  0.00    +0.000 NA
ATOM     10  C   UNL     1      45.763   4.281  12.743  0.00  0.00    +0.000 A 
ATOM     11  N   UNL     1      46.143   3.945  14.016  0.00  0.00    +0.000 N 
ATOM     12  C   UNL     1      46.945   4.756  14.801  0.00  0.00    +0.000 A 
ATOM     13  O   UNL     1      47.081   4.539  15.999  0.00  0.00    +0.000 OA
ATOM     14  C   UNL     1      47.514   5.886  14.083  0.00  0.00    +0.000 A 
ATOM     15  H   UNL     1      45.748   3.141  14.478  0.00  0.00    +0.000 HD
ENDBRANCH   3   5
BRANCH   1  17
ATOM     16  C   UNL     1      50.726   9.040  18.154  0.00  0.00    +0.000 C 
ATOM     17  C   UNL     1      49.888   7.770  17.952  0.00  0.00    +0.000 C 
BRANCH  17  18
ATOM     18  C   UNL     1      49.041   7.437  19.183  0.00  0.00    +0.000 A 
ATOM     19  C   UNL     1      48.488   6.163  19.310  0.00  0.00    +0.000 A 
ATOM     20  C   UNL     1      47.675   5.887  20.406  0.00  0.00    +0.000 A 
ATOM     21  C   UNL     1      47.422   6.886  21.339  0.00  0.00    +0.000 A 
ATOM     22  C   UNL     1      47.993   8.128  21.136  0.00  0.00    +0.000 A 
ATOM     23  N   UNL     1      48.789   8.424  20.085  0.00  0.00    +0.000 NA
ENDBRANCH  17  18
ENDBRANCH   1  17
TORSDOF 3
ENDMDL
