MODEL 1
REMARK VINA RESULT:    -7.648      0.000      0.000
REMARK INTER + INTRA:         -11.981
REMARK INTER:                 -10.777
REMARK INTRA:                  -1.204
REMARK UNBOUND:                -1.204
REMARK  Name = 
REMARK  8 active torsions:
REMARK  status: ('A' for Active; 'I' for Inactive)
REMARK    1  A    between atoms: C_1  and  C_2
REMARK    2  A    between atoms: C_2  and  C_3
REMARK    3  A    between atoms: C_3  and  C_4
REMARK    4  A    between atoms: C_6  and  C_7
REMARK    5  A    between atoms: C_7  and  C_8
REMARK    6  A    between atoms: C_16  and  C_17
REMARK    7  A    between atoms: C_17  and  N_18
REMARK    8  A    between atoms: C_19  and  C_21
REMARK                            x       y       z     vdW  Elec       q    Type
REMARK                         _______ _______ _______ _____ _____    ______ ____
ROOT
ATOM      1  C   UNL     1      45.398   7.915  11.908  0.00  0.00    +0.000 A 
ATOM      2  N   UNL     1      44.658   7.091  11.110  0.00  0.00    +0.000 NA
ATOM      3  C   UNL     1      44.938   5.762  11.096  0.00  0.00    +0.000 A 
ATOM      4  C   UNL     1      45.970   5.225  11.855  0.00  0.00    +0.000 A 
ATOM      5  C   UNL     1      46.718   6.072  12.670  0.00  0.00    +0.000 A 
ATOM      6  C   UNL     1      46.448   7.447  12.707  0.00  0.00    +0.000 A 
ENDROOT
BRANCH   1   7
ATOM      7  C   UNL     1      45.013   9.375  11.850  0.00  0.00    +0.000 C 
BRANCH   7   9
ATOM      8  C   UNL     1      43.978  10.684   9.966  0.00  0.00    +0.000 C 
ATOM      9  C   UNL     1      43.752   9.603  11.012  0.00  0.00    +0.000 C 
ENDBRANCH   7   9
ENDBRANCH   1   7
BRANCH   3  10
ATOM     10  C   UNL     1      44.045   4.863  10.262  0.00  0.00    +0.000 C 
BRANCH  10  11
ATOM     11  C   UNL     1      44.809   3.928   9.345  0.00  0.00    +0.000 A 
ATOM     12  C   UNL     1      44.731   2.539   9.530  0.00  0.00    +0.000 A 
ATOM     13  C   UNL     1      45.475   1.670   8.730  0.00  0.00    +0.000 A 
ATOM     14  C   UNL     1      46.289   2.176   7.719  0.00  0.00    +0.000 A 
ATOM     15  C   UNL     1      46.343   3.551   7.496  0.00  0.00    +0.000 A 
ATOM     16  C   UNL     1      45.608   4.424   8.303  0.00  0.00    +0.000 A 
ENDBRANCH  10  11
ENDBRANCH   3  10
BRANCH   6  17
ATOM     17  C   UNL     1      47.265   8.337  13.610  0.00  0.00    +0.000 C 
BRANCH  17  18
ATOM     18  N   UNL     1      47.680   7.657  14.811  0.00  0.00    +0.000 N 
ATOM     19  C   UNL     1      48.965   7.192  14.964  0.00  0.00    +0.000 C 
ATOM     20  O   UNL     1      49.822   7.363  14.100  0.00  0.00    +0.000 OA
ATOM     21  H   UNL     1      46.950   7.283  15.412  0.00  0.00    +0.000 HD
BRANCH  19  22
ATOM     22  C   UNL     1      49.281   6.533  16.239  0.00  0.00    +0.000 A 
ATOM     23  C   UNL     1      50.244   7.082  17.078  0.00  0.00    +0.000 A 
ATOM     24  S   UNL     1      50.454   6.218  18.534  0.00  0.00    +0.000 S 
ATOM     25  C   UNL     1      49.304   5.052  18.070  0.00  0.00    +0.000 A 
ATOM     26  N   UNL     1      49.022   3.990  18.874  0.00  0.00    +0.000 NA
ATOM     27  C   UNL     1      48.152   3.169  18.386  0.00  0.00    +0.000 A 
ATOM     28  N   UNL     1      47.537   3.310  17.172  0.00  0.00    +0.000 N 
ATOM     29  C   UNL     1      47.771   4.386  16.339  0.00  0.00    +0.000 A 
ATOM     30  O   UNL     1      47.163   4.516  15.282  0.00  0.00    +0.000 OA
ATOM     31  C   UNL     1      48.752   5.329  16.834  0.00  0.00    +0.000 A 
ATOM     32  H   UNL     1      46.848   2.644  16.854  0.00  0.00    +0.000 HD
ENDBRANCH  19  22
ENDBRANCH  17  18
ENDBRANCH   6  17
TORSDOF 7
ENDMDL
MODEL 2
REMARK VINA RESULT:    -7.633      3.422      5.641
REMARK INTER + INTRA:         -11.961
REMARK INTER:                 -10.649
REMARK INTRA:                  -1.312
REMARK UNBOUND:                -1.204
REMARK  Name = 
REMARK  8 active torsions:
REMARK  status: ('A' for Active; 'I' for Inactive)
REMARK    1  A    between atoms: C_1  and  C_2
REMARK    2  A    between atoms: C_2  and  C_3
REMARK    3  A    between atoms: C_3  and  C_4
REMARK    4  A    between atoms: C_6  and  C_7
REMARK    5  A    between atoms: C_7  and  C_8
REMARK    6  A    between atoms: C_16  and  C_17
REMARK    7  A    between atoms: C_17  and  N_18
REMARK    8  A    between atoms: C_19  and  C_21
REMARK                            x       y       z     vdW  Elec       q    Type
REMARK                         _______ _______ _______ _____ _____    ______ ____
ROOT
ATOM      1  C   UNL     1      45.728   5.020  12.027  0.00  0.00    +0.000 A 
ATOM      2  N   UNL     1      45.576   3.875  11.301  0.00  0.00    +0.000 NA
ATOM      3  C   UNL     1      44.509   3.759  10.469  0.00  0.00    +0.000 A 
ATOM      4  C   UNL     1      43.560   4.766  10.353  0.00  0.00    +0.000 A 
ATOM      5  C   UNL     1      43.725   5.935  11.094  0.00  0.00    +0.000 A 
ATOM      6  C   UNL     1      44.819   6.083  11.959  0.00  0.00    +0.000 A 
ENDROOT
BRANCH   1   7
ATOM      7  C   UNL     1      46.942   5.050  12.926  0.00  0.00    +0.000 C 
BRANCH   7   9
ATOM      8  C   UNL     1      47.141   4.329  15.329  0.00  0.00    +0.000 C 
ATOM      9  C   UNL     1      46.970   3.862  13.891  0.00  0.00    +0.000 C 
ENDBRANCH   7   9
ENDBRANCH   1   7
BRANCH   3  10
ATOM     10  C   UNL     1      44.413   2.508   9.616  0.00  0.00    +0.000 C 
BRANCH  10  11
ATOM     11  C   UNL     1      45.452   2.441   8.514  0.00  0.00    +0.000 A 
ATOM     12  C   UNL     1      45.705   3.567   7.714  0.00  0.00    +0.000 A 
ATOM     13  C   UNL     1      46.616   3.502   6.659  0.00  0.00    +0.000 A 
ATOM     14  C   UNL     1      47.305   2.317   6.404  0.00  0.00    +0.000 A 
ATOM     15  C   UNL     1      47.095   1.204   7.216  0.00  0.00    +0.000 A 
ATOM     16  C   UNL     1      46.174   1.264   8.266  0.00  0.00    +0.000 A 
ENDBRANCH  10  11
ENDBRANCH   3  10
BRANCH   6  17
ATOM     17  C   UNL     1      44.980   7.365  12.736  0.00  0.00    +0.000 C 
BRANCH  17  18
ATOM     18  N   UNL     1      45.942   8.251  12.128  0.00  0.00    +0.000 N 
ATOM     19  C   UNL     1      46.935   8.847  12.869  0.00  0.00    +0.000 C 
ATOM     20  O   UNL     1      47.065   8.629  14.071  0.00  0.00    +0.000 OA
ATOM     21  H   UNL     1      45.707   8.642  11.219  0.00  0.00    +0.000 HD
BRANCH  19  22
ATOM     22  C   UNL     1      47.872   9.713  12.140  0.00  0.00    +0.000 A 
ATOM     23  C   UNL     1      47.497  11.012  11.814  0.00  0.00    +0.000 A 
ATOM     24  S   UNL     1      48.717  11.893  11.009  0.00  0.00    +0.000 S 
ATOM     25  C   UNL     1      49.767  10.554  11.022  0.00  0.00    +0.000 A 
ATOM     26  N   UNL     1      51.001  10.627  10.450  0.00  0.00    +0.000 NA
ATOM     27  C   UNL     1      51.680   9.530  10.507  0.00  0.00    +0.000 A 
ATOM     28  N   UNL     1      51.243   8.368  11.083  0.00  0.00    +0.000 N 
ATOM     29  C   UNL     1      50.014   8.258  11.701  0.00  0.00    +0.000 A 
ATOM     30  O   UNL     1      49.673   7.220  12.258  0.00  0.00    +0.000 OA
ATOM     31  C   UNL     1      49.205   9.459  11.650  0.00  0.00    +0.000 A 
ATOM     32  H   UNL     1      51.831   7.547  11.115  0.00  0.00    +0.000 HD
ENDBRANCH  19  22
ENDBRANCH  17  18
ENDBRANCH   6  17
TORSDOF 7
ENDMDL
MODEL 3
REMARK VINA RESULT:    -7.438      2.256      3.099
REMARK INTER + INTRA:         -11.685
REMARK INTER:                 -11.327
REMARK INTRA:                  -0.358
REMARK UNBOUND:                -1.204
REMARK  Name = 
REMARK  8 active torsions:
REMARK  status: ('A' for Active; 'I' for Inactive)
REMARK    1  A    between atoms: C_1  and  C_2
REMARK    2  A    between atoms: C_2  and  C_3
REMARK    3  A    between atoms: C_3  and  C_4
REMARK    4  A    between atoms: C_6  and  C_7
REMARK    5  A    between atoms: C_7  and  C_8
REMARK    6  A    between atoms: C_16  and  C_17
REMARK    7  A    between atoms: C_17  and  N_18
REMARK    8  A    between atoms: C_19  and  C_21
REMARK                            x       y       z     vdW  Elec       q    Type
REMARK                         _______ _______ _______ _____ _____    ______ ____
ROOT
ATOM      1  C   UNL     1      45.731   5.534  12.251  0.00  0.00    +0.000 A 
ATOM      2  N   UNL     1      45.643   5.526  10.889  0.00  0.00    +0.000 NA
ATOM      3  C   UNL     1      45.305   4.372  10.258  0.00  0.00    +0.000 A 
ATOM      4  C   UNL     1      45.066   3.198  10.960  0.00  0.00    +0.000 A 
ATOM      5  C   UNL     1      45.154   3.215  12.350  0.00  0.00    +0.000 A 
ATOM      6  C   UNL     1      45.498   4.393  13.029  0.00  0.00    +0.000 A 
ENDROOT
BRANCH   1   7
ATOM      7  C   UNL     1      46.120   6.862  12.858  0.00  0.00    +0.000 C 
BRANCH   7   9
ATOM      8  C   UNL     1      48.625   6.692  12.691  0.00  0.00    +0.000 C 
ATOM      9  C   UNL     1      47.386   7.437  12.218  0.00  0.00    +0.000 C 
ENDBRANCH   7   9
ENDBRANCH   1   7
BRANCH   3  10
ATOM     10  C   UNL     1      45.135   4.417   8.751  0.00  0.00    +0.000 C 
BRANCH  10  11
ATOM     11  C   UNL     1      45.898   3.330   8.020  0.00  0.00    +0.000 A 
ATOM     12  C   UNL     1      45.808   1.995   8.447  0.00  0.00    +0.000 A 
ATOM     13  C   UNL     1      46.550   0.994   7.820  0.00  0.00    +0.000 A 
ATOM     14  C   UNL     1      47.376   1.308   6.742  0.00  0.00    +0.000 A 
ATOM     15  C   UNL     1      47.443   2.622   6.280  0.00  0.00    +0.000 A 
ATOM     16  C   UNL     1      46.709   3.628   6.914  0.00  0.00    +0.000 A 
ENDBRANCH  10  11
ENDBRANCH   3  10
BRANCH   6  17
ATOM     17  C   UNL     1      45.570   4.386  14.535  0.00  0.00    +0.000 C 
BRANCH  17  18
ATOM     18  N   UNL     1      46.894   4.693  15.016  0.00  0.00    +0.000 N 
ATOM     19  C   UNL     1      47.284   4.373  16.296  0.00  0.00    +0.000 C 
ATOM     20  O   UNL     1      46.534   3.786  17.072  0.00  0.00    +0.000 OA
ATOM     21  H   UNL     1      47.428   5.388  14.501  0.00  0.00    +0.000 HD
BRANCH  19  22
ATOM     22  C   UNL     1      48.663   4.715  16.670  0.00  0.00    +0.000 A 
ATOM     23  C   UNL     1      49.064   6.047  16.681  0.00  0.00    +0.000 A 
ATOM     24  S   UNL     1      50.680   6.269  17.180  0.00  0.00    +0.000 S 
ATOM     25  C   UNL     1      50.916   4.591  17.348  0.00  0.00    +0.000 A 
ATOM     26  N   UNL     1      52.123   4.089  17.727  0.00  0.00    +0.000 NA
ATOM     27  C   UNL     1      52.169   2.800  17.786  0.00  0.00    +0.000 A 
ATOM     28  N   UNL     1      51.121   1.966  17.503  0.00  0.00    +0.000 N 
ATOM     29  C   UNL     1      49.872   2.432  17.145  0.00  0.00    +0.000 A 
ATOM     30  O   UNL     1      48.937   1.663  16.953  0.00  0.00    +0.000 OA
ATOM     31  C   UNL     1      49.773   3.874  17.049  0.00  0.00    +0.000 A 
ATOM     32  H   UNL     1      51.214   0.963  17.588  0.00  0.00    +0.000 HD
ENDBRANCH  19  22
ENDBRANCH  17  18
ENDBRANCH   6  17
TORSDOF 7
ENDMDL
MODEL 4
REMARK VINA RESULT:    -7.420      3.307      5.777
REMARK INTER + INTRA:         -11.660
REMARK INTER:                 -10.655
REMARK INTRA:                  -1.006
REMARK UNBOUND:                -1.204
REMARK  Name = 
REMARK  8 active torsions:
REMARK  status: ('A' for Active; 'I' for Inactive)
REMARK    1  A    between atoms: C_1  and  C_2
REMARK    2  A    between atoms: C_2  and  C_3
REMARK    3  A    between atoms: C_3  and  C_4
REMARK    4  A    between atoms: C_6  and  C_7
REMARK    5  A    between atoms: C_7  and  C_8
REMARK    6  A    between atoms: C_16  and  C_17
REMARK    7  A    between atoms: C_17  and  N_18
REMARK    8  A    between atoms: C_19  and  C_21
REMARK                            x       y       z     vdW  Elec       q    Type
REMARK                         _______ _______ _______ _____ _____    ______ ____
ROOT
ATOM      1  C   UNL     1      45.546   4.639  12.399  0.00  0.00    +0.000 A 
ATOM      2  N   UNL     1      45.116   3.636  11.580  0.00  0.00    +0.000 NA
ATOM      3  C   UNL     1      44.997   3.878  10.249  0.00  0.00    +0.000 A 
ATOM      4  C   UNL     1      45.282   5.124   9.704  0.00  0.00    +0.000 A 
ATOM      5  C   UNL     1      45.725   6.141  10.546  0.00  0.00    +0.000 A 
ATOM      6  C   UNL     1      45.860   5.919  11.925  0.00  0.00    +0.000 A 
ENDROOT
BRANCH   1   7
ATOM      7  C   UNL     1      45.640   4.273  13.862  0.00  0.00    +0.000 C 
BRANCH   7   9
ATOM      8  C   UNL     1      47.406   4.207  15.653  0.00  0.00    +0.000 C 
ATOM      9  C   UNL     1      47.038   3.777  14.241  0.00  0.00    +0.000 C 
ENDBRANCH   7   9
ENDBRANCH   1   7
BRANCH   3  10
ATOM     10  C   UNL     1      44.595   2.720   9.355  0.00  0.00    +0.000 C 
BRANCH  10  11
ATOM     11  C   UNL     1      45.584   2.441   8.240  0.00  0.00    +0.000 A 
ATOM     12  C   UNL     1      46.277   1.221   8.199  0.00  0.00    +0.000 A 
ATOM     13  C   UNL     1      47.233   0.975   7.212  0.00  0.00    +0.000 A 
ATOM     14  C   UNL     1      47.491   1.936   6.237  0.00  0.00    +0.000 A 
ATOM     15  C   UNL     1      46.780   3.135   6.239  0.00  0.00    +0.000 A 
ATOM     16  C   UNL     1      45.831   3.388   7.234  0.00  0.00    +0.000 A 
ENDBRANCH  10  11
ENDBRANCH   3  10
BRANCH   6  17
ATOM     17  C   UNL     1      46.357   7.034  12.810  0.00  0.00    +0.000 C 
BRANCH  17  18
ATOM     18  N   UNL     1      47.458   7.749  12.215  0.00  0.00    +0.000 N 
ATOM     19  C   UNL     1      48.763   7.398  12.470  0.00  0.00    +0.000 C 
ATOM     20  O   UNL     1      49.047   6.444  13.189  0.00  0.00    +0.000 OA
ATOM     21  H   UNL     1      47.264   8.674  11.838  0.00  0.00    +0.000 HD
BRANCH  19  22
ATOM     22  C   UNL     1      49.802   8.185  11.792  0.00  0.00    +0.000 A 
ATOM     23  C   UNL     1      50.892   7.538  11.219  0.00  0.00    +0.000 A 
ATOM     24  S   UNL     1      51.978   8.595  10.435  0.00  0.00    +0.000 S 
ATOM     25  C   UNL     1      51.058   9.956  10.878  0.00  0.00    +0.000 A 
ATOM     26  N   UNL     1      51.459  11.212  10.539  0.00  0.00    +0.000 NA
ATOM     27  C   UNL     1      50.683  12.153  10.964  0.00  0.00    +0.000 A 
ATOM     28  N   UNL     1      49.543  11.956  11.695  0.00  0.00    +0.000 N 
ATOM     29  C   UNL     1      49.083  10.700  12.034  0.00  0.00    +0.000 A 
ATOM     30  O   UNL     1      48.027  10.552  12.641  0.00  0.00    +0.000 OA
ATOM     31  C   UNL     1      49.928   9.609  11.594  0.00  0.00    +0.000 A 
ATOM     32  H   UNL     1      48.965  12.734  11.981  0.00  0.00    +0.000 HD
ENDBRANCH  19  22
ENDBRANCH  17  18
ENDBRANCH   6  17
TORSDOF 7
ENDMDL
MODEL 5
REMARK VINA RESULT:    -7.290      4.522      8.059
REMARK INTER + INTRA:         -11.477
REMARK INTER:                 -10.561
REMARK INTRA:                  -0.916
REMARK UNBOUND:                -1.204
REMARK  Name = 
REMARK  8 active torsions:
REMARK  status: ('A' for Active; 'I' for Inactive)
REMARK    1  A    between atoms: C_1  and  C_2
REMARK    2  A    between atoms: C_2  and  C_3
REMARK    3  A    between atoms: C_3  and  C_4
REMARK    4  A    between atoms: C_6  and  C_7
REMARK    5  A    between atoms: C_7  and  C_8
REMARK    6  A    between atoms: C_16  and  C_17
REMARK    7  A    between atoms: C_17  and  N_18
REMARK    8  A    between atoms: C_19  and  C_21
REMARK                            x       y       z     vdW  Elec       q    Type
REMARK                         _______ _______ _______ _____ _____    ______ ____
ROOT
ATOM      1  C   UNL     1      45.616   5.972  11.201  0.00  0.00    +0.000 A 
ATOM      2  N   UNL     1      45.616   4.697  10.715  0.00  0.00    +0.000 NA
ATOM      3  C   UNL     1      44.428   4.088  10.462  0.00  0.00    +0.000 A 
ATOM      4  C   UNL     1      43.216   4.722  10.705  0.00  0.00    +0.000 A 
ATOM      5  C   UNL     1      43.225   6.025  11.197  0.00  0.00    +0.000 A 
ATOM      6  C   UNL     1      44.436   6.679  11.464  0.00  0.00    +0.000 A 
ENDROOT
BRANCH   1   7
ATOM      7  C   UNL     1      46.985   6.558  11.455  0.00  0.00    +0.000 C 
BRANCH   7   9
ATOM      8  C   UNL     1      48.857   6.869  13.108  0.00  0.00    +0.000 C 
ATOM      9  C   UNL     1      47.486   6.255  12.870  0.00  0.00    +0.000 C 
ENDBRANCH   7   9
ENDBRANCH   1   7
BRANCH   3  10
ATOM     10  C   UNL     1      44.463   2.703   9.846  0.00  0.00    +0.000 C 
BRANCH  10  11
ATOM     11  C   UNL     1      45.431   2.578   8.685  0.00  0.00    +0.000 A 
ATOM     12  C   UNL     1      45.691   3.683   7.860  0.00  0.00    +0.000 A 
ATOM     13  C   UNL     1      46.533   3.566   6.754  0.00  0.00    +0.000 A 
ATOM     14  C   UNL     1      47.147   2.348   6.471  0.00  0.00    +0.000 A 
ATOM     15  C   UNL     1      46.932   1.252   7.306  0.00  0.00    +0.000 A 
ATOM     16  C   UNL     1      46.079   1.365   8.407  0.00  0.00    +0.000 A 
ENDBRANCH  10  11
ENDBRANCH   3  10
BRANCH   6  17
ATOM     17  C   UNL     1      44.415   8.095  11.982  0.00  0.00    +0.000 C 
BRANCH  17  18
ATOM     18  N   UNL     1      43.815   9.008  11.041  0.00  0.00    +0.000 N 
ATOM     19  C   UNL     1      44.242  10.311  10.933  0.00  0.00    +0.000 C 
ATOM     20  O   UNL     1      45.172  10.744  11.609  0.00  0.00    +0.000 OA
ATOM     21  H   UNL     1      42.902   8.760  10.668  0.00  0.00    +0.000 HD
BRANCH  19  22
ATOM     22  C   UNL     1      43.572  11.143   9.925  0.00  0.00    +0.000 A 
ATOM     23  C   UNL     1      44.303  11.656   8.859  0.00  0.00    +0.000 A 
ATOM     24  S   UNL     1      43.362  12.562   7.760  0.00  0.00    +0.000 S 
ATOM     25  C   UNL     1      41.959  12.344   8.698  0.00  0.00    +0.000 A 
ATOM     26  N   UNL     1      40.775  12.903   8.325  0.00  0.00    +0.000 NA
ATOM     27  C   UNL     1      39.800  12.682   9.143  0.00  0.00    +0.000 A 
ATOM     28  N   UNL     1      39.897  11.952  10.296  0.00  0.00    +0.000 N 
ATOM     29  C   UNL     1      41.069  11.341  10.696  0.00  0.00    +0.000 A 
ATOM     30  O   UNL     1      41.111  10.646  11.706  0.00  0.00    +0.000 OA
ATOM     31  C   UNL     1      42.198  11.574   9.820  0.00  0.00    +0.000 A 
ATOM     32  H   UNL     1      39.091  11.796  10.885  0.00  0.00    +0.000 HD
ENDBRANCH  19  22
ENDBRANCH  17  18
ENDBRANCH   6  17
TORSDOF 7
ENDMDL
MODEL 6
REMARK VINA RESULT:    -7.137      2.085      3.095
REMARK INTER + INTRA:         -11.262
REMARK INTER:                 -10.167
REMARK INTRA:                  -1.095
REMARK UNBOUND:                -1.204
REMARK  Name = 
REMARK  8 active torsions:
REMARK  status: ('A' for Active; 'I' for Inactive)
REMARK    1  A    between atoms: C_1  and  C_2
REMARK    2  A    between atoms: C_2  and  C_3
REMARK    3  A    between atoms: C_3  and  C_4
REMARK    4  A    between atoms: C_6  and  C_7
REMARK    5  A    between atoms: C_7  and  C_8
REMARK    6  A    between atoms: C_16  and  C_17
REMARK    7  A    between atoms: C_17  and  N_18
REMARK    8  A    between atoms: C_19  and  C_21
REMARK                            x       y       z     vdW  Elec       q    Type
REMARK                         _______ _______ _______ _____ _____    ______ ____
ROOT
ATOM      1  C   UNL     1      45.973   5.500  11.866  0.00  0.00    +0.000 A 
ATOM      2  N   UNL     1      45.512   4.915  10.723  0.00  0.00    +0.000 NA
ATOM      3  C   UNL     1      44.989   3.663  10.789  0.00  0.00    +0.000 A 
ATOM      4  C   UNL     1      44.931   2.958  11.984  0.00  0.00    +0.000 A 
ATOM      5  C   UNL     1      45.400   3.564  13.147  0.00  0.00    +0.000 A 
ATOM      6  C   UNL     1      45.942   4.857  13.109  0.00  0.00    +0.000 A 
ENDROOT
BRANCH   1   7
ATOM      7  C   UNL     1      46.541   6.889  11.687  0.00  0.00    +0.000 C 
BRANCH   7   9
ATOM      8  C   UNL     1      45.425   8.827  12.841  0.00  0.00    +0.000 C 
ATOM      9  C   UNL     1      45.442   7.951  11.598  0.00  0.00    +0.000 C 
ENDBRANCH   7   9
ENDBRANCH   1   7
BRANCH   3  10
ATOM     10  C   UNL     1      44.409   3.073   9.517  0.00  0.00    +0.000 C 
BRANCH  10  11
ATOM     11  C   UNL     1      45.456   2.723   8.478  0.00  0.00    +0.000 A 
ATOM     12  C   UNL     1      45.986   1.424   8.418  0.00  0.00    +0.000 A 
ATOM     13  C   UNL     1      46.991   1.105   7.505  0.00  0.00    +0.000 A 
ATOM     14  C   UNL     1      47.465   2.073   6.622  0.00  0.00    +0.000 A 
ATOM     15  C   UNL     1      46.919   3.355   6.640  0.00  0.00    +0.000 A 
ATOM     16  C   UNL     1      45.920   3.680   7.562  0.00  0.00    +0.000 A 
ENDBRANCH  10  11
ENDBRANCH   3  10
BRANCH   6  17
ATOM     17  C   UNL     1      46.428   5.494  14.386  0.00  0.00    +0.000 C 
BRANCH  17  18
ATOM     18  N   UNL     1      47.577   4.813  14.929  0.00  0.00    +0.000 N 
ATOM     19  C   UNL     1      47.580   4.324  16.214  0.00  0.00    +0.000 C 
ATOM     20  O   UNL     1      46.596   4.417  16.944  0.00  0.00    +0.000 OA
ATOM     21  H   UNL     1      48.467   4.949  14.455  0.00  0.00    +0.000 HD
BRANCH  19  22
ATOM     22  C   UNL     1      48.798   3.629  16.653  0.00  0.00    +0.000 A 
ATOM     23  C   UNL     1      48.921   2.259  16.449  0.00  0.00    +0.000 A 
ATOM     24  S   UNL     1      50.414   1.621  16.976  0.00  0.00    +0.000 S 
ATOM     25  C   UNL     1      50.925   3.143  17.541  0.00  0.00    +0.000 A 
ATOM     26  N   UNL     1      52.134   3.292  18.148  0.00  0.00    +0.000 NA
ATOM     27  C   UNL     1      52.382   4.494  18.554  0.00  0.00    +0.000 A 
ATOM     28  N   UNL     1      51.535   5.559  18.408  0.00  0.00    +0.000 N 
ATOM     29  C   UNL     1      50.314   5.459  17.772  0.00  0.00    +0.000 A 
ATOM     30  O   UNL     1      49.601   6.443  17.606  0.00  0.00    +0.000 OA
ATOM     31  C   UNL     1      49.982   4.126  17.312  0.00  0.00    +0.000 A 
ATOM     32  H   UNL     1      51.795   6.481  18.728  0.00  0.00    +0.000 HD
ENDBRANCH  19  22
ENDBRANCH  17  18
ENDBRANCH   6  17
TORSDOF 7
ENDMDL
MODEL 7
REMARK VINA RESULT:    -7.096      3.719      9.275
REMARK INTER + INTRA:         -11.204
REMARK INTER:                  -9.699
REMARK INTRA:                  -1.505
REMARK UNBOUND:                -1.204
REMARK  Name = 
REMARK  8 active torsions:
REMARK  status: ('A' for Active; 'I' for Inactive)
REMARK    1  A    between atoms: C_1  and  C_2
REMARK    2  A    between atoms: C_2  and  C_3
REMARK    3  A    between atoms: C_3  and  C_4
REMARK    4  A    between atoms: C_6  and  C_7
REMARK    5  A    between atoms: C_7  and  C_8
REMARK    6  A    between atoms: C_16  and  C_17
REMARK    7  A    between atoms: C_17  and  N_18
REMARK    8  A    between atoms: C_19  and  C_21
REMARK                            x       y       z     vdW  Elec       q    Type
REMARK                         _______ _______ _______ _____ _____    ______ ____
ROOT
ATOM      1  C   UNL     1      49.223   5.945  17.762  0.00  0.00    +0.000 A 
ATOM      2  N   UNL     1      49.237   6.733  18.876  0.00  0.00    +0.000 NA
ATOM      3  C   UNL     1      48.143   6.754  19.681  0.00  0.00    +0.000 A 
ATOM      4  C   UNL     1      47.007   6.011  19.389  0.00  0.00    +0.000 A 
ATOM      5  C   UNL     1      47.002   5.206  18.252  0.00  0.00    +0.000 A 
ATOM      6  C   UNL     1      48.119   5.163  17.404  0.00  0.00    +0.000 A 
ENDROOT
BRANCH   1   7
ATOM      7  C   UNL     1      50.483   5.995  16.929  0.00  0.00    +0.000 C 
BRANCH   7   9
ATOM      8  C   UNL     1      51.550   3.825  17.625  0.00  0.00    +0.000 C 
ATOM      9  C   UNL     1      51.669   5.342  17.643  0.00  0.00    +0.000 C 
ENDBRANCH   7   9
ENDBRANCH   1   7
BRANCH   3  10
ATOM     10  C   UNL     1      48.221   7.576  20.954  0.00  0.00    +0.000 C 
BRANCH  10  11
ATOM     11  C   UNL     1      47.350   8.816  20.932  0.00  0.00    +0.000 A 
ATOM     12  C   UNL     1      46.648   9.207  22.083  0.00  0.00    +0.000 A 
ATOM     13  C   UNL     1      45.797  10.313  22.060  0.00  0.00    +0.000 A 
ATOM     14  C   UNL     1      45.653  11.058  20.891  0.00  0.00    +0.000 A 
ATOM     15  C   UNL     1      46.376  10.707  19.752  0.00  0.00    +0.000 A 
ATOM     16  C   UNL     1      47.220   9.593  19.770  0.00  0.00    +0.000 A 
ENDBRANCH  10  11
ENDBRANCH   3  10
BRANCH   6  17
ATOM     17  C   UNL     1      48.091   4.270  16.189  0.00  0.00    +0.000 C 
BRANCH  17  18
ATOM     18  N   UNL     1      47.118   4.706  15.218  0.00  0.00    +0.000 N 
ATOM     19  C   UNL     1      47.468   5.526  14.171  0.00  0.00    +0.000 C 
ATOM     20  O   UNL     1      48.626   5.899  14.000  0.00  0.00    +0.000 OA
ATOM     21  H   UNL     1      46.137   4.630  15.474  0.00  0.00    +0.000 HD
BRANCH  19  22
ATOM     22  C   UNL     1      46.398   5.888  13.231  0.00  0.00    +0.000 A 
ATOM     23  C   UNL     1      46.139   7.228  12.966  0.00  0.00    +0.000 A 
ATOM     24  S   UNL     1      44.897   7.470  11.821  0.00  0.00    +0.000 S 
ATOM     25  C   UNL     1      44.628   5.795  11.680  0.00  0.00    +0.000 A 
ATOM     26  N   UNL     1      43.653   5.309  10.863  0.00  0.00    +0.000 NA
ATOM     27  C   UNL     1      43.540   4.022  10.875  0.00  0.00    +0.000 A 
ATOM     28  N   UNL     1      44.311   3.176  11.625  0.00  0.00    +0.000 N 
ATOM     29  C   UNL     1      45.329   3.622  12.442  0.00  0.00    +0.000 A 
ATOM     30  O   UNL     1      46.040   2.836  13.059  0.00  0.00    +0.000 OA
ATOM     31  C   UNL     1      45.487   5.062  12.477  0.00  0.00    +0.000 A 
ATOM     32  H   UNL     1      44.187   2.175  11.574  0.00  0.00    +0.000 HD
ENDBRANCH  19  22
ENDBRANCH  17  18
ENDBRANCH   6  17
TORSDOF 7
ENDMDL
MODEL 8
REMARK VINA RESULT:    -6.969      1.780      3.184
REMARK INTER + INTRA:         -11.025
REMARK INTER:                  -9.882
REMARK INTRA:                  -1.143
REMARK UNBOUND:                -1.204
REMARK  Name = 
REMARK  8 active torsions:
REMARK  status: ('A' for Active; 'I' for Inactive)
REMARK    1  A    between atoms: C_1  and  C_2
REMARK    2  A    between atoms: C_2  and  C_3
REMARK    3  A    between atoms: C_3  and  C_4
REMARK    4  A    between atoms: C_6  and  C_7
REMARK    5  A    between atoms: C_7  and  C_8
REMARK    6  A    between atoms: C_16  and  C_17
REMARK    7  A    between atoms: C_17  and  N_18
REMARK    8  A    between atoms: C_19  and  C_21
REMARK                            x       y       z     vdW  Elec       q    Type
REMARK                         _______ _______ _______ _____ _____    ______ ____
ROOT
ATOM      1  C   UNL     1      46.485   6.410  12.750  0.00  0.00    +0.000 A 
ATOM      2  N   UNL     1      45.653   5.530  12.121  0.00  0.00    +0.000 NA
ATOM      3  C   UNL     1      44.602   6.012  11.408  0.00  0.00    +0.000 A 
ATOM      4  C   UNL     1      44.343   7.374  11.319  0.00  0.00    +0.000 A 
ATOM      5  C   UNL     1      45.200   8.266  11.960  0.00  0.00    +0.000 A 
ATOM      6  C   UNL     1      46.294   7.796  12.701  0.00  0.00    +0.000 A 
ENDROOT
BRANCH   1   7
ATOM      7  C   UNL     1      47.619   5.776  13.522  0.00  0.00    +0.000 C 
BRANCH   7   9
ATOM      8  C   UNL     1      47.098   4.313  15.502  0.00  0.00    +0.000 C 
ATOM      9  C   UNL     1      47.272   4.361  13.992  0.00  0.00    +0.000 C 
ENDBRANCH   7   9
ENDBRANCH   1   7
BRANCH   3  10
ATOM     10  C   UNL     1      43.745   5.013  10.654  0.00  0.00    +0.000 C 
BRANCH  10  11
ATOM     11  C   UNL     1      44.536   4.101   9.738  0.00  0.00    +0.000 A 
ATOM     12  C   UNL     1      45.361   4.645   8.740  0.00  0.00    +0.000 A 
ATOM     13  C   UNL     1      46.049   3.816   7.853  0.00  0.00    +0.000 A 
ATOM     14  C   UNL     1      45.941   2.431   7.965  0.00  0.00    +0.000 A 
ATOM     15  C   UNL     1      45.160   1.876   8.978  0.00  0.00    +0.000 A 
ATOM     16  C   UNL     1      44.461   2.705   9.860  0.00  0.00    +0.000 A 
ENDBRANCH  10  11
ENDBRANCH   3  10
BRANCH   6  17
ATOM     17  C   UNL     1      47.214   8.786  13.371  0.00  0.00    +0.000 C 
BRANCH  17  18
ATOM     18  N   UNL     1      47.297   8.571  14.794  0.00  0.00    +0.000 N 
ATOM     19  C   UNL     1      48.495   8.660  15.464  0.00  0.00    +0.000 C 
ATOM     20  O   UNL     1      49.538   8.957  14.886  0.00  0.00    +0.000 OA
ATOM     21  H   UNL     1      46.523   8.083  15.239  0.00  0.00    +0.000 HD
BRANCH  19  22
ATOM     22  C   UNL     1      48.456   8.443  16.917  0.00  0.00    +0.000 A 
ATOM     23  C   UNL     1      47.825   9.373  17.735  0.00  0.00    +0.000 A 
ATOM     24  S   UNL     1      47.833   8.945  19.387  0.00  0.00    +0.000 S 
ATOM     25  C   UNL     1      48.725   7.530  19.071  0.00  0.00    +0.000 A 
ATOM     26  N   UNL     1      49.103   6.701  20.083  0.00  0.00    +0.000 NA
ATOM     27  C   UNL     1      49.799   5.681  19.704  0.00  0.00    +0.000 A 
ATOM     28  N   UNL     1      50.151   5.411  18.410  0.00  0.00    +0.000 N 
ATOM     29  C   UNL     1      49.764   6.207  17.351  0.00  0.00    +0.000 A 
ATOM     30  O   UNL     1      50.047   5.909  16.195  0.00  0.00    +0.000 OA
ATOM     31  C   UNL     1      48.994   7.375  17.725  0.00  0.00    +0.000 A 
ATOM     32  H   UNL     1      50.681   4.584  18.174  0.00  0.00    +0.000 HD
ENDBRANCH  19  22
ENDBRANCH  17  18
ENDBRANCH   6  17
TORSDOF 7
ENDMDL
MODEL 9
REMARK VINA RESULT:    -6.922      2.256      2.827
REMARK INTER + INTRA:         -10.959
REMARK INTER:                  -9.752
REMARK INTRA:                  -1.208
REMARK UNBOUND:                -1.204
REMARK  Name = 
REMARK  8 active torsions:
REMARK  status: ('A' for Active; 'I' for Inactive)
REMARK    1  A    between atoms: C_1  and  C_2
REMARK    2  A    between atoms: C_2  and  C_3
REMARK    3  A    between atoms: C_3  and  C_4
REMARK    4  A    between atoms: C_6  and  C_7
REMARK    5  A    between atoms: C_7  and  C_8
REMARK    6  A    between atoms: C_16  and  C_17
REMARK    7  A    between atoms: C_17  and  N_18
REMARK    8  A    between atoms: C_19  and  C_21
REMARK                            x       y       z     vdW  Elec       q    Type
REMARK                         _______ _______ _______ _____ _____    ______ ____
ROOT
ATOM      1  C   UNL     1      47.424   7.090  12.467  0.00  0.00    +0.000 A 
ATOM      2  N   UNL     1      46.422   6.642  11.655  0.00  0.00    +0.000 NA
ATOM      3  C   UNL     1      45.760   5.505  11.994  0.00  0.00    +0.000 A 
ATOM      4  C   UNL     1      46.088   4.780  13.132  0.00  0.00    +0.000 A 
ATOM      5  C   UNL     1      47.108   5.247  13.958  0.00  0.00    +0.000 A 
ATOM      6  C   UNL     1      47.807   6.419  13.634  0.00  0.00    +0.000 A 
ENDROOT
BRANCH   1   7
ATOM      7  C   UNL     1      48.103   8.357  12.001  0.00  0.00    +0.000 C 
BRANCH   7   9
ATOM      8  C   UNL     1      50.536   8.963  11.780  0.00  0.00    +0.000 C 
ATOM      9  C   UNL     1      49.416   8.069  11.269  0.00  0.00    +0.000 C 
ENDBRANCH   7   9
ENDBRANCH   1   7
BRANCH   3  10
ATOM     10  C   UNL     1      44.599   5.078  11.116  0.00  0.00    +0.000 C 
BRANCH  10  11
ATOM     11  C   UNL     1      45.009   4.196   9.953  0.00  0.00    +0.000 A 
ATOM     12  C   UNL     1      44.799   2.809  10.010  0.00  0.00    +0.000 A 
ATOM     13  C   UNL     1      45.225   1.979   8.972  0.00  0.00    +0.000 A 
ATOM     14  C   UNL     1      45.844   2.527   7.850  0.00  0.00    +0.000 A 
ATOM     15  C   UNL     1      46.020   3.907   7.760  0.00  0.00    +0.000 A 
ATOM     16  C   UNL     1      45.605   4.738   8.804  0.00  0.00    +0.000 A 
ENDBRANCH  10  11
ENDBRANCH   3  10
BRANCH   6  17
ATOM     17  C   UNL     1      48.896   6.910  14.554  0.00  0.00    +0.000 C 
BRANCH  17  18
ATOM     18  N   UNL     1      48.534   6.775  15.943  0.00  0.00    +0.000 N 
ATOM     19  C   UNL     1      48.953   7.686  16.885  0.00  0.00    +0.000 C 
ATOM     20  O   UNL     1      49.625   8.668  16.580  0.00  0.00    +0.000 OA
ATOM     21  H   UNL     1      48.211   5.863  16.255  0.00  0.00    +0.000 HD
BRANCH  19  22
ATOM     22  C   UNL     1      48.505   7.460  18.266  0.00  0.00    +0.000 A 
ATOM     23  C   UNL     1      47.820   8.465  18.941  0.00  0.00    +0.000 A 
ATOM     24  S   UNL     1      47.335   8.021  20.515  0.00  0.00    +0.000 S 
ATOM     25  C   UNL     1      48.068   6.492  20.368  0.00  0.00    +0.000 A 
ATOM     26  N   UNL     1      48.046   5.604  21.400  0.00  0.00    +0.000 NA
ATOM     27  C   UNL     1      48.665   4.495  21.162  0.00  0.00    +0.000 A 
ATOM     28  N   UNL     1      49.301   4.191  19.989  0.00  0.00    +0.000 N 
ATOM     29  C   UNL     1      49.322   5.048  18.908  0.00  0.00    +0.000 A 
ATOM     30  O   UNL     1      49.852   4.725  17.850  0.00  0.00    +0.000 OA
ATOM     31  C   UNL     1      48.654   6.314  19.130  0.00  0.00    +0.000 A 
ATOM     32  H   UNL     1      49.751   3.296  19.856  0.00  0.00    +0.000 HD
ENDBRANCH  19  22
ENDBRANCH  17  18
ENDBRANCH   6  17
TORSDOF 7
ENDMDL
