MODEL 1
REMARK VINA RESULT:    -8.969      0.000      0.000
REMARK INTER + INTRA:         -12.864
REMARK INTER:                 -12.115
REMARK INTRA:                  -0.749
REMARK UNBOUND:                -0.749
REMARK  Name = 
REMARK  6 active torsions:
REMARK  status: ('A' for Active; 'I' for Inactive)
REMARK    1  A    between atoms: C_2  and  C_20
REMARK    2  A    between atoms: N_3  and  C_4
REMARK    3  A    between atoms: C_4  and  C_5
REMARK    4  A    between atoms: C_8  and  C_9
REMARK    5  A    between atoms: C_9  and  C_10
REMARK    6  A    between atoms: C_10  and  N_11
REMARK                            x       y       z     vdW  Elec       q    Type
REMARK                         _______ _______ _______ _____ _____    ______ ____
ROOT
ATOM      1  C   UNL     1      46.090   7.172  12.294  0.00  0.00    +0.000 A 
ATOM      2  C   UNL     1      47.019   6.137  12.424  0.00  0.00    +0.000 A 
ATOM      3  C   UNL     1      48.137   6.288  13.244  0.00  0.00    +0.000 A 
ATOM      4  C   UNL     1      48.347   7.468  13.972  0.00  0.00    +0.000 A 
ATOM      5  C   UNL     1      47.394   8.492  13.864  0.00  0.00    +0.000 A 
ATOM      6  C   UNL     1      46.276   8.344  13.040  0.00  0.00    +0.000 A 
ENDROOT
BRANCH   1   7
ATOM      7  C   UNL     1      44.905   7.003  11.388  0.00  0.00    +0.000 C 
BRANCH   7  10
ATOM      8  O   UNL     1      42.867   5.280  10.696  0.00  0.00    +0.000 OA
ATOM      9  C   UNL     1      43.999   5.022  10.330  0.00  0.00    +0.000 C 
ATOM     10  N   UNL     1      45.067   5.864  10.530  0.00  0.00    +0.000 N 
ATOM     11  H   UNL     1      45.995   5.483  10.440  0.00  0.00    +0.000 HD
BRANCH   9  12
ATOM     12  C   UNL     1      44.362   3.728   9.755  0.00  0.00    +0.000 A 
ATOM     13  C   UNL     1      44.034   2.518  10.349  0.00  0.00    +0.000 A 
ATOM     14  N   UNL     1      44.506   1.520   9.541  0.00  0.00    +0.000 N 
ATOM     15  C   UNL     1      45.449   2.049   8.701  0.00  0.00    +0.000 A 
ATOM     16  C   UNL     1      46.496   1.443   8.001  0.00  0.00    +0.000 A 
ATOM     17  C   UNL     1      47.216   2.249   7.112  0.00  0.00    +0.000 A 
ATOM     18  C   UNL     1      46.813   3.555   6.848  0.00  0.00    +0.000 A 
ATOM     19  C   UNL     1      45.776   4.144   7.574  0.00  0.00    +0.000 A 
ATOM     20  C   UNL     1      45.170   3.406   8.613  0.00  0.00    +0.000 A 
ATOM     21  H   UNL     1      44.266   0.539   9.617  0.00  0.00    +0.000 HD
ENDBRANCH   9  12
ENDBRANCH   7  10
ENDBRANCH   1   7
BRANCH   4  22
ATOM     22  C   UNL     1      49.560   7.686  14.860  0.00  0.00    +0.000 C 
BRANCH  22  23
ATOM     23  C   UNL     1      49.339   7.336  16.340  0.00  0.00    +0.000 C 
BRANCH  23  24
ATOM     24  N   UNL     1      48.135   6.517  16.538  0.00  0.00    +0.000 N 
ATOM     25  C   UNL     1      48.481   5.169  16.765  0.00  0.00    +0.000 A 
ATOM     26  C   UNL     1      47.437   4.239  16.935  0.00  0.00    +0.000 A 
ATOM     27  C   UNL     1      47.760   2.913  17.178  0.00  0.00    +0.000 A 
ATOM     28  C   UNL     1      49.082   2.550  17.234  0.00  0.00    +0.000 A 
ATOM     29  N   UNL     1      50.077   3.443  17.067  0.00  0.00    +0.000 NA
ATOM     30  N   UNL     1      49.760   4.750  16.840  0.00  0.00    +0.000 NA
ATOM     31  H   UNL     1      47.501   6.568  15.750  0.00  0.00    +0.000 HD
ENDBRANCH  23  24
ENDBRANCH  22  23
ENDBRANCH   4  22
TORSDOF 6
ENDMDL
MODEL 2
REMARK VINA RESULT:    -8.677      1.982      8.380
REMARK INTER + INTRA:         -12.470
REMARK INTER:                 -11.455
REMARK INTRA:                  -1.014
REMARK UNBOUND:                -0.749
REMARK  Name = 
REMARK  6 active torsions:
REMARK  status: ('A' for Active; 'I' for Inactive)
REMARK    1  A    between atoms: C_2  and  C_20
REMARK    2  A    between atoms: N_3  and  C_4
REMARK    3  A    between atoms: C_4  and  C_5
REMARK    4  A    between atoms: C_8  and  C_9
REMARK    5  A    between atoms: C_9  and  C_10
REMARK    6  A    between atoms: C_10  and  N_11
REMARK                            x       y       z     vdW  Elec       q    Type
REMARK                         _______ _______ _______ _____ _____    ______ ____
ROOT
ATOM      1  C   UNL     1      46.168   6.796  12.655  0.00  0.00    +0.000 A 
ATOM      2  C   UNL     1      44.992   7.146  11.988  0.00  0.00    +0.000 A 
ATOM      3  C   UNL     1      44.100   6.162  11.562  0.00  0.00    +0.000 A 
ATOM      4  C   UNL     1      44.348   4.804  11.809  0.00  0.00    +0.000 A 
ATOM      5  C   UNL     1      45.514   4.459  12.509  0.00  0.00    +0.000 A 
ATOM      6  C   UNL     1      46.410   5.444  12.933  0.00  0.00    +0.000 A 
ENDROOT
BRANCH   1   7
ATOM      7  C   UNL     1      47.130   7.866  13.085  0.00  0.00    +0.000 C 
BRANCH   7  10
ATOM      8  O   UNL     1      49.612   6.909  13.810  0.00  0.00    +0.000 OA
ATOM      9  C   UNL     1      48.781   7.096  14.679  0.00  0.00    +0.000 C 
ATOM     10  N   UNL     1      47.554   7.667  14.442  0.00  0.00    +0.000 N 
ATOM     11  H   UNL     1      46.834   7.554  15.138  0.00  0.00    +0.000 HD
BRANCH   9  12
ATOM     12  C   UNL     1      48.956   6.611  16.048  0.00  0.00    +0.000 A 
ATOM     13  C   UNL     1      49.811   7.212  16.959  0.00  0.00    +0.000 A 
ATOM     14  N   UNL     1      49.715   6.518  18.135  0.00  0.00    +0.000 N 
ATOM     15  C   UNL     1      49.160   5.294  17.874  0.00  0.00    +0.000 A 
ATOM     16  C   UNL     1      49.214   4.093  18.587  0.00  0.00    +0.000 A 
ATOM     17  C   UNL     1      48.422   3.040  18.117  0.00  0.00    +0.000 A 
ATOM     18  C   UNL     1      47.527   3.234  17.069  0.00  0.00    +0.000 A 
ATOM     19  C   UNL     1      47.504   4.437  16.361  0.00  0.00    +0.000 A 
ATOM     20  C   UNL     1      48.438   5.441  16.698  0.00  0.00    +0.000 A 
ATOM     21  H   UNL     1      50.080   6.824  19.029  0.00  0.00    +0.000 HD
ENDBRANCH   9  12
ENDBRANCH   7  10
ENDBRANCH   1   7
BRANCH   4  22
ATOM     22  C   UNL     1      43.417   3.696  11.346  0.00  0.00    +0.000 C 
BRANCH  22  23
ATOM     23  C   UNL     1      44.001   2.784  10.256  0.00  0.00    +0.000 C 
BRANCH  23  24
ATOM     24  N   UNL     1      44.540   3.553   9.125  0.00  0.00    +0.000 N 
ATOM     25  C   UNL     1      45.464   2.781   8.393  0.00  0.00    +0.000 A 
ATOM     26  C   UNL     1      46.108   3.386   7.296  0.00  0.00    +0.000 A 
ATOM     27  C   UNL     1      47.005   2.635   6.553  0.00  0.00    +0.000 A 
ATOM     28  C   UNL     1      47.245   1.334   6.918  0.00  0.00    +0.000 A 
ATOM     29  N   UNL     1      46.631   0.762   7.971  0.00  0.00    +0.000 NA
ATOM     30  N   UNL     1      45.739   1.497   8.695  0.00  0.00    +0.000 NA
ATOM     31  H   UNL     1      44.988   4.413   9.422  0.00  0.00    +0.000 HD
ENDBRANCH  23  24
ENDBRANCH  22  23
ENDBRANCH   4  22
TORSDOF 6
ENDMDL
MODEL 3
REMARK VINA RESULT:    -8.434      2.776      9.193
REMARK INTER + INTRA:         -12.141
REMARK INTER:                 -11.478
REMARK INTRA:                  -0.663
REMARK UNBOUND:                -0.749
REMARK  Name = 
REMARK  6 active torsions:
REMARK  status: ('A' for Active; 'I' for Inactive)
REMARK    1  A    between atoms: C_2  and  C_20
REMARK    2  A    between atoms: N_3  and  C_4
REMARK    3  A    between atoms: C_4  and  C_5
REMARK    4  A    between atoms: C_8  and  C_9
REMARK    5  A    between atoms: C_9  and  C_10
REMARK    6  A    between atoms: C_10  and  N_11
REMARK                            x       y       z     vdW  Elec       q    Type
REMARK                         _______ _______ _______ _____ _____    ______ ____
ROOT
ATOM      1  C   UNL     1      47.152   6.289  13.214  0.00  0.00    +0.000 A 
ATOM      2  C   UNL     1      46.334   5.226  13.604  0.00  0.00    +0.000 A 
ATOM      3  C   UNL     1      45.256   4.835  12.810  0.00  0.00    +0.000 A 
ATOM      4  C   UNL     1      44.978   5.481  11.596  0.00  0.00    +0.000 A 
ATOM      5  C   UNL     1      45.824   6.526  11.193  0.00  0.00    +0.000 A 
ATOM      6  C   UNL     1      46.902   6.921  11.989  0.00  0.00    +0.000 A 
ENDROOT
BRANCH   1   7
ATOM      7  C   UNL     1      48.295   6.712  14.092  0.00  0.00    +0.000 C 
BRANCH   7  10
ATOM      8  O   UNL     1      50.308   6.293  15.928  0.00  0.00    +0.000 OA
ATOM      9  C   UNL     1      49.161   6.046  16.252  0.00  0.00    +0.000 C 
ATOM     10  N   UNL     1      48.076   6.316  15.454  0.00  0.00    +0.000 N 
ATOM     11  H   UNL     1      47.204   5.859  15.667  0.00  0.00    +0.000 HD
BRANCH   9  12
ATOM     12  C   UNL     1      48.832   5.314  17.475  0.00  0.00    +0.000 A 
ATOM     13  C   UNL     1      47.577   4.776  17.719  0.00  0.00    +0.000 A 
ATOM     14  N   UNL     1      47.626   4.150  18.935  0.00  0.00    +0.000 N 
ATOM     15  C   UNL     1      48.712   4.620  19.623  0.00  0.00    +0.000 A 
ATOM     16  C   UNL     1      48.989   4.641  20.993  0.00  0.00    +0.000 A 
ATOM     17  C   UNL     1      50.262   5.078  21.376  0.00  0.00    +0.000 A 
ATOM     18  C   UNL     1      51.240   5.348  20.423  0.00  0.00    +0.000 A 
ATOM     19  C   UNL     1      50.933   5.337  19.061  0.00  0.00    +0.000 A 
ATOM     20  C   UNL     1      49.600   5.091  18.667  0.00  0.00    +0.000 A 
ATOM     21  H   UNL     1      46.922   3.518  19.299  0.00  0.00    +0.000 HD
ENDBRANCH   9  12
ENDBRANCH   7  10
ENDBRANCH   1   7
BRANCH   4  22
ATOM     22  C   UNL     1      43.803   5.105  10.709  0.00  0.00    +0.000 C 
BRANCH  22  23
ATOM     23  C   UNL     1      44.064   3.914   9.775  0.00  0.00    +0.000 C 
BRANCH  23  24
ATOM     24  N   UNL     1      44.797   4.312   8.565  0.00  0.00    +0.000 N 
ATOM     25  C   UNL     1      45.590   3.249   8.090  0.00  0.00    +0.000 A 
ATOM     26  C   UNL     1      46.392   3.479   6.955  0.00  0.00    +0.000 A 
ATOM     27  C   UNL     1      47.164   2.438   6.463  0.00  0.00    +0.000 A 
ATOM     28  C   UNL     1      47.131   1.225   7.104  0.00  0.00    +0.000 A 
ATOM     29  N   UNL     1      46.366   1.012   8.192  0.00  0.00    +0.000 NA
ATOM     30  N   UNL     1      45.597   2.032   8.669  0.00  0.00    +0.000 NA
ATOM     31  H   UNL     1      45.386   5.122   8.721  0.00  0.00    +0.000 HD
ENDBRANCH  23  24
ENDBRANCH  22  23
ENDBRANCH   4  22
TORSDOF 6
ENDMDL
MODEL 4
REMARK VINA RESULT:    -8.389      2.777      9.251
REMARK INTER + INTRA:         -12.081
REMARK INTER:                 -11.341
REMARK INTRA:                  -0.740
REMARK UNBOUND:                -0.749
REMARK  Name = 
REMARK  6 active torsions:
REMARK  status: ('A' for Active; 'I' for Inactive)
REMARK    1  A    between atoms: C_2  and  C_20
REMARK    2  A    between atoms: N_3  and  C_4
REMARK    3  A    between atoms: C_4  and  C_5
REMARK    4  A    between atoms: C_8  and  C_9
REMARK    5  A    between atoms: C_9  and  C_10
REMARK    6  A    between atoms: C_10  and  N_11
REMARK                            x       y       z     vdW  Elec       q    Type
REMARK                         _______ _______ _______ _____ _____    ______ ____
ROOT
ATOM      1  C   UNL     1      47.170   6.080  13.187  0.00  0.00    +0.000 A 
ATOM      2  C   UNL     1      46.568   4.849  13.457  0.00  0.00    +0.000 A 
ATOM      3  C   UNL     1      45.463   4.424  12.721  0.00  0.00    +0.000 A 
ATOM      4  C   UNL     1      44.940   5.208  11.681  0.00  0.00    +0.000 A 
ATOM      5  C   UNL     1      45.569   6.429  11.391  0.00  0.00    +0.000 A 
ATOM      6  C   UNL     1      46.674   6.857  12.130  0.00  0.00    +0.000 A 
ENDROOT
BRANCH   1   7
ATOM      7  C   UNL     1      48.344   6.533  14.005  0.00  0.00    +0.000 C 
BRANCH   7  10
ATOM      8  O   UNL     1      50.281   6.217  15.942  0.00  0.00    +0.000 OA
ATOM      9  C   UNL     1      49.111   6.174  16.273  0.00  0.00    +0.000 C 
ATOM     10  N   UNL     1      48.071   6.423  15.409  0.00  0.00    +0.000 N 
ATOM     11  H   UNL     1      47.148   6.120  15.677  0.00  0.00    +0.000 HD
BRANCH   9  12
ATOM     12  C   UNL     1      48.687   5.723  17.599  0.00  0.00    +0.000 A 
ATOM     13  C   UNL     1      48.151   4.466  17.833  0.00  0.00    +0.000 A 
ATOM     14  N   UNL     1      47.887   4.374  19.173  0.00  0.00    +0.000 N 
ATOM     15  C   UNL     1      47.853   5.637  19.698  0.00  0.00    +0.000 A 
ATOM     16  C   UNL     1      47.247   6.132  20.856  0.00  0.00    +0.000 A 
ATOM     17  C   UNL     1      47.510   7.466  21.189  0.00  0.00    +0.000 A 
ATOM     18  C   UNL     1      48.438   8.212  20.468  0.00  0.00    +0.000 A 
ATOM     19  C   UNL     1      49.016   7.701  19.305  0.00  0.00    +0.000 A 
ATOM     20  C   UNL     1      48.610   6.429  18.846  0.00  0.00    +0.000 A 
ATOM     21  H   UNL     1      47.660   3.520  19.670  0.00  0.00    +0.000 HD
ENDBRANCH   9  12
ENDBRANCH   7  10
ENDBRANCH   1   7
BRANCH   4  22
ATOM     22  C   UNL     1      43.726   4.797  10.866  0.00  0.00    +0.000 C 
BRANCH  22  23
ATOM     23  C   UNL     1      43.996   3.697   9.828  0.00  0.00    +0.000 C 
BRANCH  23  24
ATOM     24  N   UNL     1      44.752   4.202   8.674  0.00  0.00    +0.000 N 
ATOM     25  C   UNL     1      45.594   3.199   8.152  0.00  0.00    +0.000 A 
ATOM     26  C   UNL     1      46.423   3.533   7.063  0.00  0.00    +0.000 A 
ATOM     27  C   UNL     1      47.242   2.553   6.526  0.00  0.00    +0.000 A 
ATOM     28  C   UNL     1      47.228   1.297   7.079  0.00  0.00    +0.000 A 
ATOM     29  N   UNL     1      46.437   0.984   8.123  0.00  0.00    +0.000 NA
ATOM     30  N   UNL     1      45.621   1.945   8.644  0.00  0.00    +0.000 NA
ATOM     31  H   UNL     1      45.311   5.016   8.905  0.00  0.00    +0.000 HD
ENDBRANCH  23  24
ENDBRANCH  22  23
ENDBRANCH   4  22
TORSDOF 6
ENDMDL
MODEL 5
REMARK VINA RESULT:    -8.084      2.872      9.359
REMARK INTER + INTRA:         -11.669
REMARK INTER:                 -10.836
REMARK INTRA:                  -0.833
REMARK UNBOUND:                -0.749
REMARK  Name = 
REMARK  6 active torsions:
REMARK  status: ('A' for Active; 'I' for Inactive)
REMARK    1  A    between atoms: C_2  and  C_20
REMARK    2  A    between atoms: N_3  and  C_4
REMARK    3  A    between atoms: C_4  and  C_5
REMARK    4  A    between atoms: C_8  and  C_9
REMARK    5  A    between atoms: C_9  and  C_10
REMARK    6  A    between atoms: C_10  and  N_11
REMARK                            x       y       z     vdW  Elec       q    Type
REMARK                         _______ _______ _______ _____ _____    ______ ____
ROOT
ATOM      1  C   UNL     1      46.696   4.328  14.059  0.00  0.00    +0.000 A 
ATOM      2  C   UNL     1      46.233   3.275  13.266  0.00  0.00    +0.000 A 
ATOM      3  C   UNL     1      45.419   3.526  12.162  0.00  0.00    +0.000 A 
ATOM      4  C   UNL     1      45.062   4.836  11.807  0.00  0.00    +0.000 A 
ATOM      5  C   UNL     1      45.558   5.892  12.587  0.00  0.00    +0.000 A 
ATOM      6  C   UNL     1      46.371   5.642  13.696  0.00  0.00    +0.000 A 
ENDROOT
BRANCH   1   7
ATOM      7  C   UNL     1      47.552   4.038  15.259  0.00  0.00    +0.000 C 
BRANCH   7  10
ATOM      8  O   UNL     1      49.587   5.621  16.235  0.00  0.00    +0.000 OA
ATOM      9  C   UNL     1      48.486   5.703  16.746  0.00  0.00    +0.000 C 
ATOM     10  N   UNL     1      47.380   5.040  16.271  0.00  0.00    +0.000 N 
ATOM     11  H   UNL     1      46.583   4.948  16.881  0.00  0.00    +0.000 HD
BRANCH   9  12
ATOM     12  C   UNL     1      48.256   6.418  18.002  0.00  0.00    +0.000 A 
ATOM     13  C   UNL     1      47.888   5.781  19.177  0.00  0.00    +0.000 A 
ATOM     14  N   UNL     1      47.778   6.739  20.148  0.00  0.00    +0.000 N 
ATOM     15  C   UNL     1      47.663   7.962  19.543  0.00  0.00    +0.000 A 
ATOM     16  C   UNL     1      47.132   9.168  20.008  0.00  0.00    +0.000 A 
ATOM     17  C   UNL     1      47.282  10.288  19.182  0.00  0.00    +0.000 A 
ATOM     18  C   UNL     1      48.043  10.219  18.018  0.00  0.00    +0.000 A 
ATOM     19  C   UNL     1      48.547   8.998  17.566  0.00  0.00    +0.000 A 
ATOM     20  C   UNL     1      48.235   7.825  18.286  0.00  0.00    +0.000 A 
ATOM     21  H   UNL     1      47.698   6.562  21.143  0.00  0.00    +0.000 HD
ENDBRANCH   9  12
ENDBRANCH   7  10
ENDBRANCH   1   7
BRANCH   4  22
ATOM     22  C   UNL     1      44.162   5.157  10.627  0.00  0.00    +0.000 C 
BRANCH  22  23
ATOM     23  C   UNL     1      44.090   4.054   9.559  0.00  0.00    +0.000 C 
BRANCH  23  24
ATOM     24  N   UNL     1      44.883   4.388   8.368  0.00  0.00    +0.000 N 
ATOM     25  C   UNL     1      45.668   3.288   7.968  0.00  0.00    +0.000 A 
ATOM     26  C   UNL     1      46.523   3.455   6.861  0.00  0.00    +0.000 A 
ATOM     27  C   UNL     1      47.288   2.378   6.442  0.00  0.00    +0.000 A 
ATOM     28  C   UNL     1      47.197   1.192   7.126  0.00  0.00    +0.000 A 
ATOM     29  N   UNL     1      46.381   1.039   8.187  0.00  0.00    +0.000 NA
ATOM     30  N   UNL     1      45.619   2.095   8.592  0.00  0.00    +0.000 NA
ATOM     31  H   UNL     1      45.486   5.189   8.519  0.00  0.00    +0.000 HD
ENDBRANCH  23  24
ENDBRANCH  22  23
ENDBRANCH   4  22
TORSDOF 6
ENDMDL
MODEL 6
REMARK VINA RESULT:    -8.025      2.214      2.807
REMARK INTER + INTRA:         -11.589
REMARK INTER:                 -10.950
REMARK INTRA:                  -0.640
REMARK UNBOUND:                -0.749
REMARK  Name = 
REMARK  6 active torsions:
REMARK  status: ('A' for Active; 'I' for Inactive)
REMARK    1  A    between atoms: C_2  and  C_20
REMARK    2  A    between atoms: N_3  and  C_4
REMARK    3  A    between atoms: C_4  and  C_5
REMARK    4  A    between atoms: C_8  and  C_9
REMARK    5  A    between atoms: C_9  and  C_10
REMARK    6  A    between atoms: C_10  and  N_11
REMARK                            x       y       z     vdW  Elec       q    Type
REMARK                         _______ _______ _______ _____ _____    ______ ____
ROOT
ATOM      1  C   UNL     1      46.349   6.079  12.679  0.00  0.00    +0.000 A 
ATOM      2  C   UNL     1      47.421   6.854  13.128  0.00  0.00    +0.000 A 
ATOM      3  C   UNL     1      48.062   6.548  14.328  0.00  0.00    +0.000 A 
ATOM      4  C   UNL     1      47.664   5.448  15.103  0.00  0.00    +0.000 A 
ATOM      5  C   UNL     1      46.609   4.652  14.630  0.00  0.00    +0.000 A 
ATOM      6  C   UNL     1      45.963   4.960  13.430  0.00  0.00    +0.000 A 
ENDROOT
BRANCH   1   7
ATOM      7  C   UNL     1      45.655   6.436  11.397  0.00  0.00    +0.000 C 
BRANCH   7  10
ATOM      8  O   UNL     1      43.476   5.061  10.415  0.00  0.00    +0.000 OA
ATOM      9  C   UNL     1      44.592   4.690  10.099  0.00  0.00    +0.000 C 
ATOM     10  N   UNL     1      45.738   5.364  10.446  0.00  0.00    +0.000 N 
ATOM     11  H   UNL     1      46.616   4.875  10.380  0.00  0.00    +0.000 HD
BRANCH   9  12
ATOM     12  C   UNL     1      44.834   3.414   9.427  0.00  0.00    +0.000 A 
ATOM     13  C   UNL     1      44.293   2.214   9.867  0.00  0.00    +0.000 A 
ATOM     14  N   UNL     1      44.704   1.236   9.003  0.00  0.00    +0.000 N 
ATOM     15  C   UNL     1      45.784   1.700   8.302  0.00  0.00    +0.000 A 
ATOM     16  C   UNL     1      46.803   1.016   7.632  0.00  0.00    +0.000 A 
ATOM     17  C   UNL     1      47.705   1.789   6.891  0.00  0.00    +0.000 A 
ATOM     18  C   UNL     1      47.505   3.157   6.728  0.00  0.00    +0.000 A 
ATOM     19  C   UNL     1      46.491   3.819   7.423  0.00  0.00    +0.000 A 
ATOM     20  C   UNL     1      45.697   3.084   8.329  0.00  0.00    +0.000 A 
ATOM     21  H   UNL     1      44.330   0.295   8.960  0.00  0.00    +0.000 HD
ENDBRANCH   9  12
ENDBRANCH   7  10
ENDBRANCH   1   7
BRANCH   4  22
ATOM     22  C   UNL     1      48.317   5.089  16.426  0.00  0.00    +0.000 C 
BRANCH  22  23
ATOM     23  C   UNL     1      47.357   4.507  17.475  0.00  0.00    +0.000 C 
BRANCH  23  24
ATOM     24  N   UNL     1      48.075   3.966  18.638  0.00  0.00    +0.000 N 
ATOM     25  C   UNL     1      48.093   4.902  19.692  0.00  0.00    +0.000 A 
ATOM     26  C   UNL     1      48.780   4.554  20.872  0.00  0.00    +0.000 A 
ATOM     27  C   UNL     1      48.791   5.455  21.926  0.00  0.00    +0.000 A 
ATOM     28  C   UNL     1      48.144   6.656  21.780  0.00  0.00    +0.000 A 
ATOM     29  N   UNL     1      47.492   6.985  20.648  0.00  0.00    +0.000 NA
ATOM     30  N   UNL     1      47.470   6.094  19.616  0.00  0.00    +0.000 NA
ATOM     31  H   UNL     1      49.028   3.701  18.414  0.00  0.00    +0.000 HD
ENDBRANCH  23  24
ENDBRANCH  22  23
ENDBRANCH   4  22
TORSDOF 6
ENDMDL
MODEL 7
REMARK VINA RESULT:    -7.754      1.489      1.957
REMARK INTER + INTRA:         -11.223
REMARK INTER:                 -10.570
REMARK INTRA:                  -0.652
REMARK UNBOUND:                -0.749
REMARK  Name = 
REMARK  6 active torsions:
REMARK  status: ('A' for Active; 'I' for Inactive)
REMARK    1  A    between atoms: C_2  and  C_20
REMARK    2  A    between atoms: N_3  and  C_4
REMARK    3  A    between atoms: C_4  and  C_5
REMARK    4  A    between atoms: C_8  and  C_9
REMARK    5  A    between atoms: C_9  and  C_10
REMARK    6  A    between atoms: C_10  and  N_11
REMARK                            x       y       z     vdW  Elec       q    Type
REMARK                         _______ _______ _______ _____ _____    ______ ____
ROOT
ATOM      1  C   UNL     1      45.805   6.973  12.409  0.00  0.00    +0.000 A 
ATOM      2  C   UNL     1      45.882   8.320  12.775  0.00  0.00    +0.000 A 
ATOM      3  C   UNL     1      46.911   8.771  13.601  0.00  0.00    +0.000 A 
ATOM      4  C   UNL     1      47.903   7.895  14.067  0.00  0.00    +0.000 A 
ATOM      5  C   UNL     1      47.841   6.551  13.669  0.00  0.00    +0.000 A 
ATOM      6  C   UNL     1      46.808   6.097  12.845  0.00  0.00    +0.000 A 
ENDROOT
BRANCH   1   7
ATOM      7  C   UNL     1      44.677   6.499  11.539  0.00  0.00    +0.000 C 
BRANCH   7  10
ATOM      8  O   UNL     1      45.924   5.885   9.158  0.00  0.00    +0.000 OA
ATOM      9  C   UNL     1      45.458   4.979   9.824  0.00  0.00    +0.000 C 
ATOM     10  N   UNL     1      44.910   5.163  11.071  0.00  0.00    +0.000 N 
ATOM     11  H   UNL     1      44.321   4.435  11.443  0.00  0.00    +0.000 HD
BRANCH   9  12
ATOM     12  C   UNL     1      45.315   3.619   9.306  0.00  0.00    +0.000 A 
ATOM     13  C   UNL     1      44.531   2.655   9.923  0.00  0.00    +0.000 A 
ATOM     14  N   UNL     1      44.609   1.516   9.169  0.00  0.00    +0.000 N 
ATOM     15  C   UNL     1      45.708   1.605   8.357  0.00  0.00    +0.000 A 
ATOM     16  C   UNL     1      46.463   0.614   7.725  0.00  0.00    +0.000 A 
ATOM     17  C   UNL     1      47.464   1.042   6.845  0.00  0.00    +0.000 A 
ATOM     18  C   UNL     1      47.599   2.389   6.521  0.00  0.00    +0.000 A 
ATOM     19  C   UNL     1      46.846   3.362   7.180  0.00  0.00    +0.000 A 
ATOM     20  C   UNL     1      45.972   2.960   8.214  0.00  0.00    +0.000 A 
ATOM     21  H   UNL     1      44.010   0.704   9.265  0.00  0.00    +0.000 HD
ENDBRANCH   9  12
ENDBRANCH   7  10
ENDBRANCH   1   7
BRANCH   4  22
ATOM     22  C   UNL     1      49.030   8.336  14.984  0.00  0.00    +0.000 C 
BRANCH  22  23
ATOM     23  C   UNL     1      48.964   7.752  16.404  0.00  0.00    +0.000 C 
BRANCH  23  24
ATOM     24  N   UNL     1      50.302   7.494  16.956  0.00  0.00    +0.000 N 
ATOM     25  C   UNL     1      50.510   6.111  17.132  0.00  0.00    +0.000 A 
ATOM     26  C   UNL     1      51.733   5.694  17.694  0.00  0.00    +0.000 A 
ATOM     27  C   UNL     1      51.962   4.337  17.857  0.00  0.00    +0.000 A 
ATOM     28  C   UNL     1      50.988   3.448  17.477  0.00  0.00    +0.000 A 
ATOM     29  N   UNL     1      49.819   3.853  16.945  0.00  0.00    +0.000 NA
ATOM     30  N   UNL     1      49.598   5.187  16.773  0.00  0.00    +0.000 NA
ATOM     31  H   UNL     1      50.452   7.967  17.840  0.00  0.00    +0.000 HD
ENDBRANCH  23  24
ENDBRANCH  22  23
ENDBRANCH   4  22
TORSDOF 6
ENDMDL
MODEL 8
REMARK VINA RESULT:    -7.361      2.460      3.508
REMARK INTER + INTRA:         -10.692
REMARK INTER:                 -10.034
REMARK INTRA:                  -0.659
REMARK UNBOUND:                -0.749
REMARK  Name = 
REMARK  6 active torsions:
REMARK  status: ('A' for Active; 'I' for Inactive)
REMARK    1  A    between atoms: C_2  and  C_20
REMARK    2  A    between atoms: N_3  and  C_4
REMARK    3  A    between atoms: C_4  and  C_5
REMARK    4  A    between atoms: C_8  and  C_9
REMARK    5  A    between atoms: C_9  and  C_10
REMARK    6  A    between atoms: C_10  and  N_11
REMARK                            x       y       z     vdW  Elec       q    Type
REMARK                         _______ _______ _______ _____ _____    ______ ____
ROOT
ATOM      1  C   UNL     1      45.758   6.774  12.515  0.00  0.00    +0.000 A 
ATOM      2  C   UNL     1      45.733   8.131  12.847  0.00  0.00    +0.000 A 
ATOM      3  C   UNL     1      46.826   8.726  13.476  0.00  0.00    +0.000 A 
ATOM      4  C   UNL     1      47.981   7.988  13.772  0.00  0.00    +0.000 A 
ATOM      5  C   UNL     1      48.015   6.634  13.406  0.00  0.00    +0.000 A 
ATOM      6  C   UNL     1      46.919   6.035  12.780  0.00  0.00    +0.000 A 
ENDROOT
BRANCH   1   7
ATOM      7  C   UNL     1      44.563   6.143  11.860  0.00  0.00    +0.000 C 
BRANCH   7  10
ATOM      8  O   UNL     1      45.453   5.847   9.267  0.00  0.00    +0.000 OA
ATOM      9  C   UNL     1      45.247   4.849   9.932  0.00  0.00    +0.000 C 
ATOM     10  N   UNL     1      44.904   4.884  11.262  0.00  0.00    +0.000 N 
ATOM     11  H   UNL     1      44.503   4.056  11.671  0.00  0.00    +0.000 HD
BRANCH   9  12
ATOM     12  C   UNL     1      45.217   3.509   9.346  0.00  0.00    +0.000 A 
ATOM     13  C   UNL     1      44.496   2.460   9.896  0.00  0.00    +0.000 A 
ATOM     14  N   UNL     1      44.675   1.369   9.089  0.00  0.00    +0.000 N 
ATOM     15  C   UNL     1      45.780   1.580   8.309  0.00  0.00    +0.000 A 
ATOM     16  C   UNL     1      46.620   0.681   7.648  0.00  0.00    +0.000 A 
ATOM     17  C   UNL     1      47.603   1.226   6.813  0.00  0.00    +0.000 A 
ATOM     18  C   UNL     1      47.643   2.594   6.559  0.00  0.00    +0.000 A 
ATOM     19  C   UNL     1      46.805   3.473   7.246  0.00  0.00    +0.000 A 
ATOM     20  C   UNL     1      45.944   2.957   8.238  0.00  0.00    +0.000 A 
ATOM     21  H   UNL     1      44.136   0.512   9.132  0.00  0.00    +0.000 HD
ENDBRANCH   9  12
ENDBRANCH   7  10
ENDBRANCH   1   7
BRANCH   4  22
ATOM     22  C   UNL     1      49.188   8.587  14.475  0.00  0.00    +0.000 C 
BRANCH  22  23
ATOM     23  C   UNL     1      48.855   9.390  15.742  0.00  0.00    +0.000 C 
BRANCH  23  24
ATOM     24  N   UNL     1      48.310   8.536  16.807  0.00  0.00    +0.000 N 
ATOM     25  C   UNL     1      47.803   9.320  17.863  0.00  0.00    +0.000 A 
ATOM     26  C   UNL     1      47.278   8.653  18.988  0.00  0.00    +0.000 A 
ATOM     27  C   UNL     1      46.758   9.409  20.027  0.00  0.00    +0.000 A 
ATOM     28  C   UNL     1      46.783  10.777  19.931  0.00  0.00    +0.000 A 
ATOM     29  N   UNL     1      47.290  11.410  18.856  0.00  0.00    +0.000 NA
ATOM     30  N   UNL     1      47.790  10.667  17.828  0.00  0.00    +0.000 NA
ATOM     31  H   UNL     1      48.999   7.891  17.175  0.00  0.00    +0.000 HD
ENDBRANCH  23  24
ENDBRANCH  22  23
ENDBRANCH   4  22
TORSDOF 6
ENDMDL
MODEL 9
REMARK VINA RESULT:    -7.318      3.557      4.923
REMARK INTER + INTRA:         -10.634
REMARK INTER:                  -9.843
REMARK INTRA:                  -0.791
REMARK UNBOUND:                -0.749
REMARK  Name = 
REMARK  6 active torsions:
REMARK  status: ('A' for Active; 'I' for Inactive)
REMARK    1  A    between atoms: C_2  and  C_20
REMARK    2  A    between atoms: N_3  and  C_4
REMARK    3  A    between atoms: C_4  and  C_5
REMARK    4  A    between atoms: C_8  and  C_9
REMARK    5  A    between atoms: C_9  and  C_10
REMARK    6  A    between atoms: C_10  and  N_11
REMARK                            x       y       z     vdW  Elec       q    Type
REMARK                         _______ _______ _______ _____ _____    ______ ____
ROOT
ATOM      1  C   UNL     1      46.252   7.547  11.918  0.00  0.00    +0.000 A 
ATOM      2  C   UNL     1      46.352   8.930  12.093  0.00  0.00    +0.000 A 
ATOM      3  C   UNL     1      47.566   9.510  12.460  0.00  0.00    +0.000 A 
ATOM      4  C   UNL     1      48.717   8.729  12.642  0.00  0.00    +0.000 A 
ATOM      5  C   UNL     1      48.619   7.345  12.432  0.00  0.00    +0.000 A 
ATOM      6  C   UNL     1      47.403   6.761  12.068  0.00  0.00    +0.000 A 
ENDROOT
BRANCH   1   7
ATOM      7  C   UNL     1      44.932   6.936  11.547  0.00  0.00    +0.000 C 
BRANCH   7  10
ATOM      8  O   UNL     1      42.885   5.302  10.685  0.00  0.00    +0.000 OA
ATOM      9  C   UNL     1      44.028   5.019  10.377  0.00  0.00    +0.000 C 
ATOM     10  N   UNL     1      45.108   5.818  10.664  0.00  0.00    +0.000 N 
ATOM     11  H   UNL     1      46.027   5.410  10.616  0.00  0.00    +0.000 HD
BRANCH   9  12
ATOM     12  C   UNL     1      44.383   3.730   9.782  0.00  0.00    +0.000 A 
ATOM     13  C   UNL     1      44.042   2.514  10.355  0.00  0.00    +0.000 A 
ATOM     14  N   UNL     1      44.510   1.526   9.534  0.00  0.00    +0.000 N 
ATOM     15  C   UNL     1      45.462   2.060   8.708  0.00  0.00    +0.000 A 
ATOM     16  C   UNL     1      46.508   1.456   8.003  0.00  0.00    +0.000 A 
ATOM     17  C   UNL     1      47.239   2.271   7.131  0.00  0.00    +0.000 A 
ATOM     18  C   UNL     1      46.848   3.584   6.885  0.00  0.00    +0.000 A 
ATOM     19  C   UNL     1      45.812   4.170   7.615  0.00  0.00    +0.000 A 
ATOM     20  C   UNL     1      45.194   3.420   8.640  0.00  0.00    +0.000 A 
ATOM     21  H   UNL     1      44.262   0.545   9.593  0.00  0.00    +0.000 HD
ENDBRANCH   9  12
ENDBRANCH   7  10
ENDBRANCH   1   7
BRANCH   4  22
ATOM     22  C   UNL     1      50.055   9.313  13.061  0.00  0.00    +0.000 C 
BRANCH  22  23
ATOM     23  C   UNL     1      51.272   8.448  12.699  0.00  0.00    +0.000 C 
BRANCH  23  24
ATOM     24  N   UNL     1      52.301   9.216  11.984  0.00  0.00    +0.000 N 
ATOM     25  C   UNL     1      52.599   8.615  10.744  0.00  0.00    +0.000 A 
ATOM     26  C   UNL     1      53.599   9.206   9.947  0.00  0.00    +0.000 A 
ATOM     27  C   UNL     1      53.892   8.638   8.717  0.00  0.00    +0.000 A 
ATOM     28  C   UNL     1      53.207   7.516   8.322  0.00  0.00    +0.000 A 
ATOM     29  N   UNL     1      52.254   6.953   9.090  0.00  0.00    +0.000 NA
ATOM     30  N   UNL     1      51.958   7.518  10.295  0.00  0.00    +0.000 NA
ATOM     31  H   UNL     1      53.155   9.309  12.521  0.00  0.00    +0.000 HD
ENDBRANCH  23  24
ENDBRANCH  22  23
ENDBRANCH   4  22
TORSDOF 6
ENDMDL
