MODEL 1
REMARK VINA RESULT:    -8.700      0.000      0.000
REMARK INTER + INTRA:         -13.500
REMARK INTER:                 -12.261
REMARK INTRA:                  -1.239
REMARK UNBOUND:                -1.239
REMARK  Name = 
REMARK  8 active torsions:
REMARK  status: ('A' for Active; 'I' for Inactive)
REMARK    1  A    between atoms: C_1  and  C_2
REMARK    2  A    between atoms: C_2  and  C_3
REMARK    3  A    between atoms: C_2  and  C_15
REMARK    4  A    between atoms: C_3  and  O_4
REMARK    5  A    between atoms: O_4  and  C_5
REMARK    6  A    between atoms: C_8  and  C_9
REMARK    7  A    between atoms: C_20  and  O_21
REMARK    8  A    between atoms: O_21  and  C_22
REMARK                            x       y       z     vdW  Elec       q    Type
REMARK                         _______ _______ _______ _____ _____    ______ ____
ROOT
ATOM      1  C   UNL     1      43.216   6.517  11.422  0.00  0.00    +0.000 C 
ATOM      2  C   UNL     1      43.889   5.363  12.174  0.00  0.00    +0.000 C 
ENDROOT
BRANCH   2   3
ATOM      3  C   UNL     1      45.350   5.691  12.476  0.00  0.00    +0.000 A 
ATOM      4  C   UNL     1      46.103   6.522  11.633  0.00  0.00    +0.000 A 
ATOM      5  C   UNL     1      47.433   6.811  11.936  0.00  0.00    +0.000 A 
ATOM      6  F   UNL     1      48.135   7.602  11.114  0.00  0.00    +0.000 F 
ATOM      7  C   UNL     1      48.035   6.301  13.077  0.00  0.00    +0.000 A 
ATOM      8  C   UNL     1      47.298   5.490  13.938  0.00  0.00    +0.000 A 
ATOM      9  C   UNL     1      45.971   5.166  13.627  0.00  0.00    +0.000 A 
BRANCH   8  10
ATOM     10  O   UNL     1      47.968   5.040  15.053  0.00  0.00    +0.000 OA
BRANCH  10  11
ATOM     11  C   UNL     1      47.278   4.151  15.964  0.00  0.00    +0.000 C 
ATOM     12  C   UNL     1      47.365   4.488  17.471  0.00  0.00    +0.000 C 
ATOM     13  C   UNL     1      47.696   3.020  17.764  0.00  0.00    +0.000 C 
ATOM     14  C   UNL     1      48.019   2.827  16.275  0.00  0.00    +0.000 C 
ENDBRANCH  10  11
ENDBRANCH   8  10
ENDBRANCH   2   3
BRANCH   2  15
ATOM     15  C   UNL     1      43.757   4.030  11.407  0.00  0.00    +0.000 C 
BRANCH  15  16
ATOM     16  O   UNL     1      43.639   4.253   9.993  0.00  0.00    +0.000 OA
BRANCH  16  17
ATOM     17  C   UNL     1      44.618   3.685   9.213  0.00  0.00    +0.000 A 
ATOM     18  C   UNL     1      45.432   4.590   8.521  0.00  0.00    +0.000 A 
ATOM     19  C   UNL     1      46.455   4.138   7.669  0.00  0.00    +0.000 A 
ATOM     20  C   UNL     1      46.674   2.764   7.499  0.00  0.00    +0.000 A 
ATOM     21  C   UNL     1      45.872   1.863   8.203  0.00  0.00    +0.000 A 
ATOM     22  C   UNL     1      44.865   2.320   9.045  0.00  0.00    +0.000 A 
ATOM     23  F   UNL     1      44.143   1.388   9.685  0.00  0.00    +0.000 F 
BRANCH  20  24
ATOM     24  C   UNL     1      47.715   2.182   6.606  0.00  0.00    +0.000 C 
ATOM     25  N   UNL     1      48.142   2.905   5.527  0.00  0.00    +0.000 N 
ATOM     26  O   UNL     1      48.184   1.066   6.814  0.00  0.00    +0.000 OA
ATOM     27  H   UNL     1      47.801   3.811   5.257  0.00  0.00    +0.000 HD
ATOM     28  H   UNL     1      48.834   2.459   4.937  0.00  0.00    +0.000 HD
ENDBRANCH  20  24
ENDBRANCH  16  17
ENDBRANCH  15  16
ENDBRANCH   2  15
TORSDOF 7
ENDMDL
MODEL 2
REMARK VINA RESULT:    -7.974      2.331      4.829
REMARK INTER + INTRA:         -12.476
REMARK INTER:                 -11.383
REMARK INTRA:                  -1.093
REMARK UNBOUND:                -1.239
REMARK  Name = 
REMARK  8 active torsions:
REMARK  status: ('A' for Active; 'I' for Inactive)
REMARK    1  A    between atoms: C_1  and  C_2
REMARK    2  A    between atoms: C_2  and  C_3
REMARK    3  A    between atoms: C_2  and  C_15
REMARK    4  A    between atoms: C_3  and  O_4
REMARK    5  A    between atoms: O_4  and  C_5
REMARK    6  A    between atoms: C_8  and  C_9
REMARK    7  A    between atoms: C_20  and  O_21
REMARK    8  A    between atoms: O_21  and  C_22
REMARK                            x       y       z     vdW  Elec       q    Type
REMARK                         _______ _______ _______ _____ _____    ______ ____
ROOT
ATOM      1  C   UNL     1      45.865   4.233  13.027  0.00  0.00    +0.000 C 
ATOM      2  C   UNL     1      45.468   4.981  11.750  0.00  0.00    +0.000 C 
ENDROOT
BRANCH   2   3
ATOM      3  C   UNL     1      45.829   6.461  11.853  0.00  0.00    +0.000 A 
ATOM      4  C   UNL     1      47.158   6.881  12.016  0.00  0.00    +0.000 A 
ATOM      5  C   UNL     1      47.462   8.238  12.101  0.00  0.00    +0.000 A 
ATOM      6  F   UNL     1      48.736   8.617  12.262  0.00  0.00    +0.000 F 
ATOM      7  C   UNL     1      46.467   9.202  12.013  0.00  0.00    +0.000 A 
ATOM      8  C   UNL     1      45.143   8.807  11.832  0.00  0.00    +0.000 A 
ATOM      9  C   UNL     1      44.822   7.444  11.778  0.00  0.00    +0.000 A 
BRANCH   8  10
ATOM     10  O   UNL     1      44.223   9.827  11.739  0.00  0.00    +0.000 OA
BRANCH  10  11
ATOM     11  C   UNL     1      43.252   9.790  10.667  0.00  0.00    +0.000 C 
ATOM     12  C   UNL     1      43.554  10.653   9.419  0.00  0.00    +0.000 C 
ATOM     13  C   UNL     1      42.113  11.176   9.452  0.00  0.00    +0.000 C 
ATOM     14  C   UNL     1      41.990  10.658  10.893  0.00  0.00    +0.000 C 
ENDBRANCH  10  11
ENDBRANCH   8  10
ENDBRANCH   2   3
BRANCH   2  15
ATOM     15  C   UNL     1      43.974   4.786  11.416  0.00  0.00    +0.000 C 
BRANCH  15  16
ATOM     16  O   UNL     1      43.763   4.725   9.997  0.00  0.00    +0.000 OA
BRANCH  16  17
ATOM     17  C   UNL     1      44.646   3.943   9.293  0.00  0.00    +0.000 A 
ATOM     18  C   UNL     1      45.515   4.638   8.441  0.00  0.00    +0.000 A 
ATOM     19  C   UNL     1      46.450   3.953   7.646  0.00  0.00    +0.000 A 
ATOM     20  C   UNL     1      46.527   2.554   7.694  0.00  0.00    +0.000 A 
ATOM     21  C   UNL     1      45.672   1.864   8.556  0.00  0.00    +0.000 A 
ATOM     22  C   UNL     1      44.752   2.549   9.341  0.00  0.00    +0.000 A 
ATOM     23  F   UNL     1      43.970   1.810  10.141  0.00  0.00    +0.000 F 
BRANCH  20  24
ATOM     24  C   UNL     1      47.466   1.734   6.878  0.00  0.00    +0.000 C 
ATOM     25  N   UNL     1      48.556   2.337   6.317  0.00  0.00    +0.000 N 
ATOM     26  O   UNL     1      47.271   0.536   6.693  0.00  0.00    +0.000 OA
ATOM     27  H   UNL     1      48.786   3.313   6.386  0.00  0.00    +0.000 HD
ATOM     28  H   UNL     1      49.153   1.745   5.753  0.00  0.00    +0.000 HD
ENDBRANCH  20  24
ENDBRANCH  16  17
ENDBRANCH  15  16
ENDBRANCH   2  15
TORSDOF 7
ENDMDL
MODEL 3
REMARK VINA RESULT:    -7.835      1.894      3.211
REMARK INTER + INTRA:         -12.281
REMARK INTER:                 -11.209
REMARK INTRA:                  -1.072
REMARK UNBOUND:                -1.239
REMARK  Name = 
REMARK  8 active torsions:
REMARK  status: ('A' for Active; 'I' for Inactive)
REMARK    1  A    between atoms: C_1  and  C_2
REMARK    2  A    between atoms: C_2  and  C_3
REMARK    3  A    between atoms: C_2  and  C_15
REMARK    4  A    between atoms: C_3  and  O_4
REMARK    5  A    between atoms: O_4  and  C_5
REMARK    6  A    between atoms: C_8  and  C_9
REMARK    7  A    between atoms: C_20  and  O_21
REMARK    8  A    between atoms: O_21  and  C_22
REMARK                            x       y       z     vdW  Elec       q    Type
REMARK                         _______ _______ _______ _____ _____    ______ ____
ROOT
ATOM      1  C   UNL     1      43.426   6.843  11.252  0.00  0.00    +0.000 C 
ATOM      2  C   UNL     1      43.636   5.568  12.077  0.00  0.00    +0.000 C 
ENDROOT
BRANCH   2   3
ATOM      3  C   UNL     1      45.009   5.573  12.745  0.00  0.00    +0.000 A 
ATOM      4  C   UNL     1      45.513   4.433  13.390  0.00  0.00    +0.000 A 
ATOM      5  C   UNL     1      46.772   4.462  13.987  0.00  0.00    +0.000 A 
ATOM      6  F   UNL     1      47.232   3.366  14.602  0.00  0.00    +0.000 F 
ATOM      7  C   UNL     1      47.559   5.605  13.944  0.00  0.00    +0.000 A 
ATOM      8  C   UNL     1      47.085   6.741  13.291  0.00  0.00    +0.000 A 
ATOM      9  C   UNL     1      45.807   6.734  12.717  0.00  0.00    +0.000 A 
BRANCH   8  10
ATOM     10  O   UNL     1      47.935   7.824  13.284  0.00  0.00    +0.000 OA
BRANCH  10  11
ATOM     11  C   UNL     1      49.318   7.616  12.912  0.00  0.00    +0.000 C 
ATOM     12  C   UNL     1      50.312   8.752  13.252  0.00  0.00    +0.000 C 
ATOM     13  C   UNL     1      50.887   8.651  11.834  0.00  0.00    +0.000 C 
ATOM     14  C   UNL     1      49.640   7.858  11.417  0.00  0.00    +0.000 C 
ENDBRANCH  10  11
ENDBRANCH   8  10
ENDBRANCH   2   3
BRANCH   2  15
ATOM     15  C   UNL     1      43.426   4.298  11.224  0.00  0.00    +0.000 C 
BRANCH  15  16
ATOM     16  O   UNL     1      43.578   4.581   9.824  0.00  0.00    +0.000 OA
BRANCH  16  17
ATOM     17  C   UNL     1      44.556   3.870   9.172  0.00  0.00    +0.000 A 
ATOM     18  C   UNL     1      45.454   4.638   8.419  0.00  0.00    +0.000 A 
ATOM     19  C   UNL     1      46.486   4.031   7.683  0.00  0.00    +0.000 A 
ATOM     20  C   UNL     1      46.631   2.637   7.692  0.00  0.00    +0.000 A 
ATOM     21  C   UNL     1      45.745   1.873   8.456  0.00  0.00    +0.000 A 
ATOM     22  C   UNL     1      44.729   2.483   9.182  0.00  0.00    +0.000 A 
ATOM     23  F   UNL     1      43.924   1.677   9.890  0.00  0.00    +0.000 F 
BRANCH  20  24
ATOM     24  C   UNL     1      47.676   1.895   6.931  0.00  0.00    +0.000 C 
ATOM     25  N   UNL     1      48.614   2.601   6.233  0.00  0.00    +0.000 N 
ATOM     26  O   UNL     1      47.699   0.667   6.912  0.00  0.00    +0.000 OA
ATOM     27  H   UNL     1      48.661   3.603   6.163  0.00  0.00    +0.000 HD
ATOM     28  H   UNL     1      49.290   2.054   5.713  0.00  0.00    +0.000 HD
ENDBRANCH  20  24
ENDBRANCH  16  17
ENDBRANCH  15  16
ENDBRANCH   2  15
TORSDOF 7
ENDMDL
MODEL 4
REMARK VINA RESULT:    -7.749      2.238      3.279
REMARK INTER + INTRA:         -12.160
REMARK INTER:                 -11.099
REMARK INTRA:                  -1.061
REMARK UNBOUND:                -1.239
REMARK  Name = 
REMARK  8 active torsions:
REMARK  status: ('A' for Active; 'I' for Inactive)
REMARK    1  A    between atoms: C_1  and  C_2
REMARK    2  A    between atoms: C_2  and  C_3
REMARK    3  A    between atoms: C_2  and  C_15
REMARK    4  A    between atoms: C_3  and  O_4
REMARK    5  A    between atoms: O_4  and  C_5
REMARK    6  A    between atoms: C_8  and  C_9
REMARK    7  A    between atoms: C_20  and  O_21
REMARK    8  A    between atoms: O_21  and  C_22
REMARK                            x       y       z     vdW  Elec       q    Type
REMARK                         _______ _______ _______ _____ _____    ______ ____
ROOT
ATOM      1  C   UNL     1      45.651   3.866  12.848  0.00  0.00    +0.000 C 
ATOM      2  C   UNL     1      45.304   4.850  11.726  0.00  0.00    +0.000 C 
ENDROOT
BRANCH   2   3
ATOM      3  C   UNL     1      45.746   6.266  12.090  0.00  0.00    +0.000 A 
ATOM      4  C   UNL     1      44.947   7.380  11.792  0.00  0.00    +0.000 A 
ATOM      5  C   UNL     1      45.370   8.662  12.140  0.00  0.00    +0.000 A 
ATOM      6  F   UNL     1      44.595   9.713  11.842  0.00  0.00    +0.000 F 
ATOM      7  C   UNL     1      46.575   8.864  12.799  0.00  0.00    +0.000 A 
ATOM      8  C   UNL     1      47.373   7.769  13.121  0.00  0.00    +0.000 A 
ATOM      9  C   UNL     1      46.974   6.480  12.746  0.00  0.00    +0.000 A 
BRANCH   8  10
ATOM     10  O   UNL     1      48.543   8.059  13.787  0.00  0.00    +0.000 OA
BRANCH  10  11
ATOM     11  C   UNL     1      49.798   7.647  13.194  0.00  0.00    +0.000 C 
ATOM     12  C   UNL     1      51.035   8.527  13.491  0.00  0.00    +0.000 C 
ATOM     13  C   UNL     1      51.392   8.499  12.000  0.00  0.00    +0.000 C 
ATOM     14  C   UNL     1      49.968   8.011  11.698  0.00  0.00    +0.000 C 
ENDBRANCH  10  11
ENDBRANCH   8  10
ENDBRANCH   2   3
BRANCH   2  15
ATOM     15  C   UNL     1      43.803   4.800  11.369  0.00  0.00    +0.000 C 
BRANCH  15  16
ATOM     16  O   UNL     1      43.611   4.690   9.950  0.00  0.00    +0.000 OA
BRANCH  16  17
ATOM     17  C   UNL     1      44.531   3.922   9.278  0.00  0.00    +0.000 A 
ATOM     18  C   UNL     1      45.398   4.627   8.433  0.00  0.00    +0.000 A 
ATOM     19  C   UNL     1      46.369   3.956   7.670  0.00  0.00    +0.000 A 
ATOM     20  C   UNL     1      46.484   2.561   7.744  0.00  0.00    +0.000 A 
ATOM     21  C   UNL     1      45.630   1.861   8.600  0.00  0.00    +0.000 A 
ATOM     22  C   UNL     1      44.675   2.533   9.352  0.00  0.00    +0.000 A 
ATOM     23  F   UNL     1      43.898   1.785  10.149  0.00  0.00    +0.000 F 
BRANCH  20  24
ATOM     24  C   UNL     1      47.463   1.755   6.963  0.00  0.00    +0.000 C 
ATOM     25  N   UNL     1      48.564   2.373   6.439  0.00  0.00    +0.000 N 
ATOM     26  O   UNL     1      47.292   0.553   6.772  0.00  0.00    +0.000 OA
ATOM     27  H   UNL     1      48.777   3.353   6.515  0.00  0.00    +0.000 HD
ATOM     28  H   UNL     1      49.189   1.789   5.898  0.00  0.00    +0.000 HD
ENDBRANCH  20  24
ENDBRANCH  16  17
ENDBRANCH  15  16
ENDBRANCH   2  15
TORSDOF 7
ENDMDL
MODEL 5
REMARK VINA RESULT:    -7.410      3.241      7.681
REMARK INTER + INTRA:         -11.681
REMARK INTER:                 -10.539
REMARK INTRA:                  -1.143
REMARK UNBOUND:                -1.239
REMARK  Name = 
REMARK  8 active torsions:
REMARK  status: ('A' for Active; 'I' for Inactive)
REMARK    1  A    between atoms: C_1  and  C_2
REMARK    2  A    between atoms: C_2  and  C_3
REMARK    3  A    between atoms: C_2  and  C_15
REMARK    4  A    between atoms: C_3  and  O_4
REMARK    5  A    between atoms: O_4  and  C_5
REMARK    6  A    between atoms: C_8  and  C_9
REMARK    7  A    between atoms: C_20  and  O_21
REMARK    8  A    between atoms: O_21  and  C_22
REMARK                            x       y       z     vdW  Elec       q    Type
REMARK                         _______ _______ _______ _____ _____    ______ ____
ROOT
ATOM      1  C   UNL     1      44.342   7.780  11.129  0.00  0.00    +0.000 C 
ATOM      2  C   UNL     1      45.505   6.787  11.236  0.00  0.00    +0.000 C 
ENDROOT
BRANCH   2   3
ATOM      3  C   UNL     1      45.066   5.389  10.805  0.00  0.00    +0.000 A 
ATOM      4  C   UNL     1      44.332   4.556  11.663  0.00  0.00    +0.000 A 
ATOM      5  C   UNL     1      43.939   3.286  11.243  0.00  0.00    +0.000 A 
ATOM      6  F   UNL     1      43.244   2.504  12.079  0.00  0.00    +0.000 F 
ATOM      7  C   UNL     1      44.247   2.825   9.970  0.00  0.00    +0.000 A 
ATOM      8  C   UNL     1      44.957   3.645   9.096  0.00  0.00    +0.000 A 
ATOM      9  C   UNL     1      45.387   4.910   9.519  0.00  0.00    +0.000 A 
BRANCH   8  10
ATOM     10  O   UNL     1      45.207   3.115   7.850  0.00  0.00    +0.000 OA
BRANCH  10  11
ATOM     11  C   UNL     1      46.569   3.106   7.361  0.00  0.00    +0.000 C 
ATOM     12  C   UNL     1      46.763   3.204   5.830  0.00  0.00    +0.000 C 
ATOM     13  C   UNL     1      47.767   2.047   5.900  0.00  0.00    +0.000 C 
ATOM     14  C   UNL     1      47.235   1.709   7.300  0.00  0.00    +0.000 C 
ENDBRANCH  10  11
ENDBRANCH   8  10
ENDBRANCH   2   3
BRANCH   2  15
ATOM     15  C   UNL     1      46.115   6.776  12.654  0.00  0.00    +0.000 C 
BRANCH  15  16
ATOM     16  O   UNL     1      47.234   5.878  12.730  0.00  0.00    +0.000 OA
BRANCH  16  17
ATOM     17  C   UNL     1      47.474   5.324  13.965  0.00  0.00    +0.000 A 
ATOM     18  C   UNL     1      48.075   6.178  14.898  0.00  0.00    +0.000 A 
ATOM     19  C   UNL     1      48.397   5.727  16.190  0.00  0.00    +0.000 A 
ATOM     20  C   UNL     1      48.119   4.405  16.564  0.00  0.00    +0.000 A 
ATOM     21  C   UNL     1      47.504   3.559  15.638  0.00  0.00    +0.000 A 
ATOM     22  C   UNL     1      47.187   4.015  14.364  0.00  0.00    +0.000 A 
ATOM     23  F   UNL     1      46.597   3.139  13.537  0.00  0.00    +0.000 F 
BRANCH  20  24
ATOM     24  C   UNL     1      48.438   3.823  17.898  0.00  0.00    +0.000 C 
ATOM     25  N   UNL     1      47.674   4.175  18.975  0.00  0.00    +0.000 N 
ATOM     26  O   UNL     1      49.379   3.047  18.047  0.00  0.00    +0.000 OA
ATOM     27  H   UNL     1      46.905   4.822  18.961  0.00  0.00    +0.000 HD
ATOM     28  H   UNL     1      47.943   3.772  19.864  0.00  0.00    +0.000 HD
ENDBRANCH  20  24
ENDBRANCH  16  17
ENDBRANCH  15  16
ENDBRANCH   2  15
TORSDOF 7
ENDMDL
MODEL 6
REMARK VINA RESULT:    -7.229      3.314      7.819
REMARK INTER + INTRA:         -11.426
REMARK INTER:                 -10.418
REMARK INTRA:                  -1.008
REMARK UNBOUND:                -1.239
REMARK  Name = 
REMARK  8 active torsions:
REMARK  status: ('A' for Active; 'I' for Inactive)
REMARK    1  A    between atoms: C_1  and  C_2
REMARK    2  A    between atoms: C_2  and  C_3
REMARK    3  A    between atoms: C_2  and  C_15
REMARK    4  A    between atoms: C_3  and  O_4
REMARK    5  A    between atoms: O_4  and  C_5
REMARK    6  A    between atoms: C_8  and  C_9
REMARK    7  A    between atoms: C_20  and  O_21
REMARK    8  A    between atoms: O_21  and  C_22
REMARK                            x       y       z     vdW  Elec       q    Type
REMARK                         _______ _______ _______ _____ _____    ______ ____
ROOT
ATOM      1  C   UNL     1      46.002   8.339  12.839  0.00  0.00    +0.000 C 
ATOM      2  C   UNL     1      46.578   7.407  11.768  0.00  0.00    +0.000 C 
ENDROOT
BRANCH   2   3
ATOM      3  C   UNL     1      45.527   6.402  11.300  0.00  0.00    +0.000 A 
ATOM      4  C   UNL     1      44.343   6.192  12.023  0.00  0.00    +0.000 A 
ATOM      5  C   UNL     1      43.397   5.273  11.572  0.00  0.00    +0.000 A 
ATOM      6  F   UNL     1      42.277   5.083  12.280  0.00  0.00    +0.000 F 
ATOM      7  C   UNL     1      43.595   4.560  10.397  0.00  0.00    +0.000 A 
ATOM      8  C   UNL     1      44.755   4.769   9.654  0.00  0.00    +0.000 A 
ATOM      9  C   UNL     1      45.727   5.665  10.116  0.00  0.00    +0.000 A 
BRANCH   8  10
ATOM     10  O   UNL     1      44.862   4.033   8.496  0.00  0.00    +0.000 OA
BRANCH  10  11
ATOM     11  C   UNL     1      46.135   3.421   8.179  0.00  0.00    +0.000 C 
ATOM     12  C   UNL     1      46.506   3.313   6.681  0.00  0.00    +0.000 C 
ATOM     13  C   UNL     1      46.916   1.852   6.906  0.00  0.00    +0.000 C 
ATOM     14  C   UNL     1      46.153   1.874   8.238  0.00  0.00    +0.000 C 
ENDBRANCH  10  11
ENDBRANCH   8  10
ENDBRANCH   2   3
BRANCH   2  15
ATOM     15  C   UNL     1      47.859   6.698  12.259  0.00  0.00    +0.000 C 
BRANCH  15  16
ATOM     16  O   UNL     1      48.267   7.196  13.543  0.00  0.00    +0.000 OA
BRANCH  16  17
ATOM     17  C   UNL     1      48.142   6.317  14.593  0.00  0.00    +0.000 A 
ATOM     18  C   UNL     1      47.328   5.204  14.348  0.00  0.00    +0.000 A 
ATOM     19  C   UNL     1      47.098   4.243  15.348  0.00  0.00    +0.000 A 
ATOM     20  C   UNL     1      47.684   4.387  16.613  0.00  0.00    +0.000 A 
ATOM     21  C   UNL     1      48.509   5.489  16.850  0.00  0.00    +0.000 A 
ATOM     22  C   UNL     1      48.733   6.433  15.855  0.00  0.00    +0.000 A 
ATOM     23  F   UNL     1      49.539   7.458  16.164  0.00  0.00    +0.000 F 
BRANCH  20  24
ATOM     24  C   UNL     1      47.486   3.438  17.745  0.00  0.00    +0.000 C 
ATOM     25  N   UNL     1      48.230   3.597  18.880  0.00  0.00    +0.000 N 
ATOM     26  O   UNL     1      46.680   2.515  17.670  0.00  0.00    +0.000 OA
ATOM     27  H   UNL     1      48.933   4.301  19.027  0.00  0.00    +0.000 HD
ATOM     28  H   UNL     1      48.077   2.915  19.613  0.00  0.00    +0.000 HD
ENDBRANCH  20  24
ENDBRANCH  16  17
ENDBRANCH  15  16
ENDBRANCH   2  15
TORSDOF 7
ENDMDL
MODEL 7
REMARK VINA RESULT:    -7.189      2.438      4.470
REMARK INTER + INTRA:         -11.370
REMARK INTER:                 -10.352
REMARK INTRA:                  -1.018
REMARK UNBOUND:                -1.239
REMARK  Name = 
REMARK  8 active torsions:
REMARK  status: ('A' for Active; 'I' for Inactive)
REMARK    1  A    between atoms: C_1  and  C_2
REMARK    2  A    between atoms: C_2  and  C_3
REMARK    3  A    between atoms: C_2  and  C_15
REMARK    4  A    between atoms: C_3  and  O_4
REMARK    5  A    between atoms: O_4  and  C_5
REMARK    6  A    between atoms: C_8  and  C_9
REMARK    7  A    between atoms: C_20  and  O_21
REMARK    8  A    between atoms: O_21  and  C_22
REMARK                            x       y       z     vdW  Elec       q    Type
REMARK                         _______ _______ _______ _____ _____    ______ ____
ROOT
ATOM      1  C   UNL     1      45.874   3.148  12.903  0.00  0.00    +0.000 C 
ATOM      2  C   UNL     1      45.583   4.340  11.985  0.00  0.00    +0.000 C 
ENDROOT
BRANCH   2   3
ATOM      3  C   UNL     1      46.269   5.603  12.500  0.00  0.00    +0.000 A 
ATOM      4  C   UNL     1      47.185   5.557  13.562  0.00  0.00    +0.000 A 
ATOM      5  C   UNL     1      47.802   6.724  14.009  0.00  0.00    +0.000 A 
ATOM      6  F   UNL     1      48.669   6.659  15.028  0.00  0.00    +0.000 F 
ATOM      7  C   UNL     1      47.540   7.948  13.410  0.00  0.00    +0.000 A 
ATOM      8  C   UNL     1      46.649   8.012  12.341  0.00  0.00    +0.000 A 
ATOM      9  C   UNL     1      45.997   6.852  11.905  0.00  0.00    +0.000 A 
BRANCH   8  10
ATOM     10  O   UNL     1      46.458   9.262  11.797  0.00  0.00    +0.000 OA
BRANCH  10  11
ATOM     11  C   UNL     1      45.195   9.931  12.022  0.00  0.00    +0.000 C 
ATOM     12  C   UNL     1      44.077   9.685  10.981  0.00  0.00    +0.000 C 
ATOM     13  C   UNL     1      43.805  11.194  10.940  0.00  0.00    +0.000 C 
ATOM     14  C   UNL     1      45.163  11.427  11.619  0.00  0.00    +0.000 C 
ENDBRANCH  10  11
ENDBRANCH   8  10
ENDBRANCH   2   3
BRANCH   2  15
ATOM     15  C   UNL     1      44.066   4.557  11.798  0.00  0.00    +0.000 C 
BRANCH  15  16
ATOM     16  O   UNL     1      43.703   4.520  10.408  0.00  0.00    +0.000 OA
BRANCH  16  17
ATOM     17  C   UNL     1      44.572   3.850   9.580  0.00  0.00    +0.000 A 
ATOM     18  C   UNL     1      44.395   2.462   9.525  0.00  0.00    +0.000 A 
ATOM     19  C   UNL     1      45.235   1.657   8.735  0.00  0.00    +0.000 A 
ATOM     20  C   UNL     1      46.268   2.238   7.987  0.00  0.00    +0.000 A 
ATOM     21  C   UNL     1      46.432   3.624   8.030  0.00  0.00    +0.000 A 
ATOM     22  C   UNL     1      45.596   4.412   8.812  0.00  0.00    +0.000 A 
ATOM     23  F   UNL     1      45.821   5.734   8.796  0.00  0.00    +0.000 F 
BRANCH  20  24
ATOM     24  C   UNL     1      47.224   1.473   7.137  0.00  0.00    +0.000 C 
ATOM     25  N   UNL     1      48.336   2.105   6.657  0.00  0.00    +0.000 N 
ATOM     26  O   UNL     1      47.023   0.295   6.853  0.00  0.00    +0.000 OA
ATOM     27  H   UNL     1      48.573   3.070   6.809  0.00  0.00    +0.000 HD
ATOM     28  H   UNL     1      48.944   1.552   6.065  0.00  0.00    +0.000 HD
ENDBRANCH  20  24
ENDBRANCH  16  17
ENDBRANCH  15  16
ENDBRANCH   2  15
TORSDOF 7
ENDMDL
MODEL 8
REMARK VINA RESULT:    -6.800      3.656      7.460
REMARK INTER + INTRA:         -10.822
REMARK INTER:                  -9.960
REMARK INTRA:                  -0.862
REMARK UNBOUND:                -1.239
REMARK  Name = 
REMARK  8 active torsions:
REMARK  status: ('A' for Active; 'I' for Inactive)
REMARK    1  A    between atoms: C_1  and  C_2
REMARK    2  A    between atoms: C_2  and  C_3
REMARK    3  A    between atoms: C_2  and  C_15
REMARK    4  A    between atoms: C_3  and  O_4
REMARK    5  A    between atoms: O_4  and  C_5
REMARK    6  A    between atoms: C_8  and  C_9
REMARK    7  A    between atoms: C_20  and  O_21
REMARK    8  A    between atoms: O_21  and  C_22
REMARK                            x       y       z     vdW  Elec       q    Type
REMARK                         _______ _______ _______ _____ _____    ______ ____
ROOT
ATOM      1  C   UNL     1      47.131   3.529  14.179  0.00  0.00    +0.000 C 
ATOM      2  C   UNL     1      46.262   4.777  13.990  0.00  0.00    +0.000 C 
ENDROOT
BRANCH   2   3
ATOM      3  C   UNL     1      45.182   4.533  12.938  0.00  0.00    +0.000 A 
ATOM      4  C   UNL     1      43.989   5.272  12.929  0.00  0.00    +0.000 A 
ATOM      5  C   UNL     1      43.022   5.034  11.955  0.00  0.00    +0.000 A 
ATOM      6  F   UNL     1      41.888   5.746  11.968  0.00  0.00    +0.000 F 
ATOM      7  C   UNL     1      43.219   4.079  10.967  0.00  0.00    +0.000 A 
ATOM      8  C   UNL     1      44.405   3.348  10.947  0.00  0.00    +0.000 A 
ATOM      9  C   UNL     1      45.370   3.555  11.941  0.00  0.00    +0.000 A 
BRANCH   8  10
ATOM     10  O   UNL     1      44.525   2.433   9.925  0.00  0.00    +0.000 OA
BRANCH  10  11
ATOM     11  C   UNL     1      44.797   2.917   8.589  0.00  0.00    +0.000 C 
ATOM     12  C   UNL     1      46.015   2.305   7.857  0.00  0.00    +0.000 C 
ATOM     13  C   UNL     1      46.461   3.716   7.454  0.00  0.00    +0.000 C 
ATOM     14  C   UNL     1      45.517   4.287   8.521  0.00  0.00    +0.000 C 
ENDBRANCH  10  11
ENDBRANCH   8  10
ENDBRANCH   2   3
BRANCH   2  15
ATOM     15  C   UNL     1      47.115   6.018  13.647  0.00  0.00    +0.000 C 
BRANCH  15  16
ATOM     16  O   UNL     1      46.826   6.497  12.324  0.00  0.00    +0.000 OA
BRANCH  16  17
ATOM     17  C   UNL     1      46.684   7.858  12.198  0.00  0.00    +0.000 A 
ATOM     18  C   UNL     1      45.374   8.338  12.317  0.00  0.00    +0.000 A 
ATOM     19  C   UNL     1      45.090   9.708  12.183  0.00  0.00    +0.000 A 
ATOM     20  C   UNL     1      46.123  10.620  11.924  0.00  0.00    +0.000 A 
ATOM     21  C   UNL     1      47.431  10.142  11.822  0.00  0.00    +0.000 A 
ATOM     22  C   UNL     1      47.703   8.786  11.959  0.00  0.00    +0.000 A 
ATOM     23  F   UNL     1      48.986   8.412  11.848  0.00  0.00    +0.000 F 
BRANCH  20  24
ATOM     24  C   UNL     1      45.925  12.086  11.744  0.00  0.00    +0.000 C 
ATOM     25  N   UNL     1      46.974  12.847  11.310  0.00  0.00    +0.000 N 
ATOM     26  O   UNL     1      44.847  12.619  11.990  0.00  0.00    +0.000 OA
ATOM     27  H   UNL     1      47.899  12.510  11.110  0.00  0.00    +0.000 HD
ATOM     28  H   UNL     1      46.798  13.841  11.224  0.00  0.00    +0.000 HD
ENDBRANCH  20  24
ENDBRANCH  16  17
ENDBRANCH  15  16
ENDBRANCH   2  15
TORSDOF 7
ENDMDL
MODEL 9
REMARK VINA RESULT:    -6.654      2.380      3.926
REMARK INTER + INTRA:         -10.616
REMARK INTER:                  -9.476
REMARK INTRA:                  -1.140
REMARK UNBOUND:                -1.239
REMARK  Name = 
REMARK  8 active torsions:
REMARK  status: ('A' for Active; 'I' for Inactive)
REMARK    1  A    between atoms: C_1  and  C_2
REMARK    2  A    between atoms: C_2  and  C_3
REMARK    3  A    between atoms: C_2  and  C_15
REMARK    4  A    between atoms: C_3  and  O_4
REMARK    5  A    between atoms: O_4  and  C_5
REMARK    6  A    between atoms: C_8  and  C_9
REMARK    7  A    between atoms: C_20  and  O_21
REMARK    8  A    between atoms: O_21  and  C_22
REMARK                            x       y       z     vdW  Elec       q    Type
REMARK                         _______ _______ _______ _____ _____    ______ ____
ROOT
ATOM      1  C   UNL     1      46.553   3.735  13.533  0.00  0.00    +0.000 C 
ATOM      2  C   UNL     1      45.912   4.675  12.507  0.00  0.00    +0.000 C 
ENDROOT
BRANCH   2   3
ATOM      3  C   UNL     1      46.318   6.123  12.769  0.00  0.00    +0.000 A 
ATOM      4  C   UNL     1      45.384   7.168  12.702  0.00  0.00    +0.000 A 
ATOM      5  C   UNL     1      45.778   8.482  12.952  0.00  0.00    +0.000 A 
ATOM      6  F   UNL     1      44.872   9.465  12.877  0.00  0.00    +0.000 F 
ATOM      7  C   UNL     1      47.091   8.784  13.287  0.00  0.00    +0.000 A 
ATOM      8  C   UNL     1      48.029   7.758  13.379  0.00  0.00    +0.000 A 
ATOM      9  C   UNL     1      47.652   6.439  13.097  0.00  0.00    +0.000 A 
BRANCH   8  10
ATOM     10  O   UNL     1      49.303   8.144  13.731  0.00  0.00    +0.000 OA
BRANCH  10  11
ATOM     11  C   UNL     1      50.119   8.822  12.746  0.00  0.00    +0.000 C 
ATOM     12  C   UNL     1      50.384   8.070  11.420  0.00  0.00    +0.000 C 
ATOM     13  C   UNL     1      51.871   8.428  11.534  0.00  0.00    +0.000 C 
ATOM     14  C   UNL     1      51.644   8.775  13.012  0.00  0.00    +0.000 C 
ENDBRANCH  10  11
ENDBRANCH   8  10
ENDBRANCH   2   3
BRANCH   2  15
ATOM     15  C   UNL     1      44.377   4.515  12.469  0.00  0.00    +0.000 C 
BRANCH  15  16
ATOM     16  O   UNL     1      43.866   4.726  11.143  0.00  0.00    +0.000 OA
BRANCH  16  17
ATOM     17  C   UNL     1      44.545   4.092  10.131  0.00  0.00    +0.000 A 
ATOM     18  C   UNL     1      44.304   2.717  10.018  0.00  0.00    +0.000 A 
ATOM     19  C   UNL     1      44.956   1.946   9.040  0.00  0.00    +0.000 A 
ATOM     20  C   UNL     1      45.864   2.547   8.158  0.00  0.00    +0.000 A 
ATOM     21  C   UNL     1      46.091   3.922   8.261  0.00  0.00    +0.000 A 
ATOM     22  C   UNL     1      45.440   4.676   9.230  0.00  0.00    +0.000 A 
ATOM     23  F   UNL     1      45.714   5.989   9.259  0.00  0.00    +0.000 F 
BRANCH  20  24
ATOM     24  C   UNL     1      46.621   1.817   7.103  0.00  0.00    +0.000 C 
ATOM     25  N   UNL     1      47.006   0.527   7.335  0.00  0.00    +0.000 N 
ATOM     26  O   UNL     1      46.913   2.357   6.039  0.00  0.00    +0.000 OA
ATOM     27  H   UNL     1      46.841   0.010   8.181  0.00  0.00    +0.000 HD
ATOM     28  H   UNL     1      47.538   0.080   6.598  0.00  0.00    +0.000 HD
ENDBRANCH  20  24
ENDBRANCH  16  17
ENDBRANCH  15  16
ENDBRANCH   2  15
TORSDOF 7
ENDMDL
