MODEL 1
REMARK VINA RESULT:    -8.101      0.000      0.000
REMARK INTER + INTRA:         -11.939
REMARK INTER:                 -10.942
REMARK INTRA:                  -0.997
REMARK UNBOUND:                -0.997
REMARK  Name = 
REMARK  6 active torsions:
REMARK  status: ('A' for Active; 'I' for Inactive)
REMARK    1  A    between atoms: C_2  and  C_4
REMARK    2  A    between atoms: C_8  and  C_9
REMARK    3  A    between atoms: C_9  and  C_10
REMARK    4  A    between atoms: C_13  and  C_14
REMARK    5  A    between atoms: C_14  and  N_15
REMARK    6  A    between atoms: C_16  and  C_18
REMARK                            x       y       z     vdW  Elec       q    Type
REMARK                         _______ _______ _______ _____ _____    ______ ____
ROOT
ATOM      1  C   UNL     1      45.036   3.695  12.532  0.00  0.00    +0.000 A 
ATOM      2  C   UNL     1      44.865   5.060  12.703  0.00  0.00    +0.000 A 
ATOM      3  C   UNL     1      45.817   5.766  13.428  0.00  0.00    +0.000 A 
ATOM      4  C   UNL     1      46.898   5.075  13.958  0.00  0.00    +0.000 A 
ATOM      5  N   UNL     1      47.015   3.737  13.810  0.00  0.00    +0.000 NA
ATOM      6  N   UNL     1      46.079   3.041  13.098  0.00  0.00    +0.000 NA
ENDROOT
BRANCH   1   7
ATOM      7  C   UNL     1      44.171   2.912  11.574  0.00  0.00    +0.000 C 
BRANCH   7  12
ATOM      8  C   UNL     1      45.909   2.128   8.255  0.00  0.00    +0.000 A 
ATOM      9  C   UNL     1      45.401   3.143   7.435  0.00  0.00    +0.000 A 
ATOM     10  C   UNL     1      44.563   4.118   7.973  0.00  0.00    +0.000 A 
ATOM     11  C   UNL     1      44.211   4.068   9.321  0.00  0.00    +0.000 A 
ATOM     12  C   UNL     1      44.673   3.030  10.148  0.00  0.00    +0.000 A 
ATOM     13  C   UNL     1      45.538   2.069   9.606  0.00  0.00    +0.000 A 
BRANCH   8  15
ATOM     14  N   UNL     1      47.883   1.466   6.987  0.00  0.00    +0.000 N 
ATOM     15  C   UNL     1      46.801   1.066   7.721  0.00  0.00    +0.000 C 
ATOM     16  O   UNL     1      46.602  -0.120   7.954  0.00  0.00    +0.000 OA
ATOM     17  H   UNL     1      48.534   0.740   6.715  0.00  0.00    +0.000 HD
ATOM     18  H   UNL     1      48.216   2.420   6.983  0.00  0.00    +0.000 HD
ENDBRANCH   8  15
ENDBRANCH   7  12
ENDBRANCH   1   7
BRANCH   4  19
ATOM     19  C   UNL     1      48.017   5.795  14.653  0.00  0.00    +0.000 C 
BRANCH  19  20
ATOM     20  N   UNL     1      47.878   5.760  16.093  0.00  0.00    +0.000 N 
ATOM     21  C   UNL     1      48.944   5.590  16.939  0.00  0.00    +0.000 C 
ATOM     22  O   UNL     1      50.091   5.464  16.517  0.00  0.00    +0.000 OA
ATOM     23  H   UNL     1      46.932   5.637  16.445  0.00  0.00    +0.000 HD
BRANCH  21  24
ATOM     24  C   UNL     1      48.656   5.636  18.379  0.00  0.00    +0.000 A 
ATOM     25  C   UNL     1      48.842   4.497  19.152  0.00  0.00    +0.000 A 
ATOM     26  S   UNL     1      48.516   4.732  20.810  0.00  0.00    +0.000 S 
ATOM     27  C   UNL     1      48.067   6.351  20.549  0.00  0.00    +0.000 A 
ATOM     28  N   UNL     1      47.645   7.133  21.579  0.00  0.00    +0.000 NA
ATOM     29  C   UNL     1      47.300   8.329  21.235  0.00  0.00    +0.000 A 
ATOM     30  N   UNL     1      47.343   8.815  19.953  0.00  0.00    +0.000 N 
ATOM     31  C   UNL     1      47.817   8.079  18.891  0.00  0.00    +0.000 A 
ATOM     32  O   UNL     1      47.933   8.574  17.779  0.00  0.00    +0.000 OA
ATOM     33  C   UNL     1      48.185   6.716  19.220  0.00  0.00    +0.000 A 
ATOM     34  H   UNL     1      47.079   9.767  19.752  0.00  0.00    +0.000 HD
ENDBRANCH  21  24
ENDBRANCH  19  20
ENDBRANCH   4  19
TORSDOF 6
ENDMDL
MODEL 2
REMARK VINA RESULT:    -7.888      1.869      2.390
REMARK INTER + INTRA:         -11.653
REMARK INTER:                 -10.972
REMARK INTRA:                  -0.681
REMARK UNBOUND:                -0.997
REMARK  Name = 
REMARK  6 active torsions:
REMARK  status: ('A' for Active; 'I' for Inactive)
REMARK    1  A    between atoms: C_2  and  C_4
REMARK    2  A    between atoms: C_8  and  C_9
REMARK    3  A    between atoms: C_9  and  C_10
REMARK    4  A    between atoms: C_13  and  C_14
REMARK    5  A    between atoms: C_14  and  N_15
REMARK    6  A    between atoms: C_16  and  C_18
REMARK                            x       y       z     vdW  Elec       q    Type
REMARK                         _______ _______ _______ _____ _____    ______ ____
ROOT
ATOM      1  C   UNL     1      45.496   5.286  11.632  0.00  0.00    +0.000 A 
ATOM      2  C   UNL     1      46.625   5.989  12.023  0.00  0.00    +0.000 A 
ATOM      3  C   UNL     1      47.211   5.685  13.245  0.00  0.00    +0.000 A 
ATOM      4  C   UNL     1      46.640   4.693  14.029  0.00  0.00    +0.000 A 
ATOM      5  N   UNL     1      45.513   4.054  13.641  0.00  0.00    +0.000 NA
ATOM      6  N   UNL     1      44.936   4.353  12.440  0.00  0.00    +0.000 NA
ENDROOT
BRANCH   1   7
ATOM      7  C   UNL     1      44.946   5.404  10.232  0.00  0.00    +0.000 C 
BRANCH   7  12
ATOM      8  C   UNL     1      46.296   2.804   7.768  0.00  0.00    +0.000 A 
ATOM      9  C   UNL     1      45.609   1.655   8.182  0.00  0.00    +0.000 A 
ATOM     10  C   UNL     1      44.662   1.740   9.200  0.00  0.00    +0.000 A 
ATOM     11  C   UNL     1      44.414   2.962   9.822  0.00  0.00    +0.000 A 
ATOM     12  C   UNL     1      45.126   4.116   9.453  0.00  0.00    +0.000 A 
ATOM     13  C   UNL     1      46.059   4.029   8.409  0.00  0.00    +0.000 A 
BRANCH   8  15
ATOM     14  N   UNL     1      47.031   3.416   5.525  0.00  0.00    +0.000 N 
ATOM     15  C   UNL     1      47.318   2.758   6.690  0.00  0.00    +0.000 C 
ATOM     16  O   UNL     1      48.389   2.186   6.843  0.00  0.00    +0.000 OA
ATOM     17  H   UNL     1      47.776   3.459   4.841  0.00  0.00    +0.000 HD
ATOM     18  H   UNL     1      46.286   4.094   5.452  0.00  0.00    +0.000 HD
ENDBRANCH   8  15
ENDBRANCH   7  12
ENDBRANCH   1   7
BRANCH   4  19
ATOM     19  C   UNL     1      47.287   4.239  15.305  0.00  0.00    +0.000 C 
BRANCH  19  20
ATOM     20  N   UNL     1      47.417   5.314  16.266  0.00  0.00    +0.000 N 
ATOM     21  C   UNL     1      48.597   5.608  16.898  0.00  0.00    +0.000 C 
ATOM     22  O   UNL     1      49.625   4.974  16.676  0.00  0.00    +0.000 OA
ATOM     23  H   UNL     1      46.545   5.695  16.626  0.00  0.00    +0.000 HD
BRANCH  21  24
ATOM     24  C   UNL     1      48.589   6.766  17.804  0.00  0.00    +0.000 A 
ATOM     25  C   UNL     1      48.719   6.566  19.173  0.00  0.00    +0.000 A 
ATOM     26  S   UNL     1      48.745   8.012  20.076  0.00  0.00    +0.000 S 
ATOM     27  C   UNL     1      48.535   8.956  18.678  0.00  0.00    +0.000 A 
ATOM     28  N   UNL     1      48.446  10.311  18.756  0.00  0.00    +0.000 NA
ATOM     29  C   UNL     1      48.250  10.900  17.624  0.00  0.00    +0.000 A 
ATOM     30  N   UNL     1      48.140  10.257  16.418  0.00  0.00    +0.000 N 
ATOM     31  C   UNL     1      48.281   8.894  16.285  0.00  0.00    +0.000 A 
ATOM     32  O   UNL     1      48.274   8.362  15.183  0.00  0.00    +0.000 OA
ATOM     33  C   UNL     1      48.468   8.182  17.533  0.00  0.00    +0.000 A 
ATOM     34  H   UNL     1      48.008  10.776  15.565  0.00  0.00    +0.000 HD
ENDBRANCH  21  24
ENDBRANCH  19  20
ENDBRANCH   4  19
TORSDOF 6
ENDMDL
MODEL 3
REMARK VINA RESULT:    -7.750      4.179      9.205
REMARK INTER + INTRA:         -11.466
REMARK INTER:                 -10.550
REMARK INTRA:                  -0.916
REMARK UNBOUND:                -0.997
REMARK  Name = 
REMARK  6 active torsions:
REMARK  status: ('A' for Active; 'I' for Inactive)
REMARK    1  A    between atoms: C_2  and  C_4
REMARK    2  A    between atoms: C_8  and  C_9
REMARK    3  A    between atoms: C_9  and  C_10
REMARK    4  A    between atoms: C_13  and  C_14
REMARK    5  A    between atoms: C_14  and  N_15
REMARK    6  A    between atoms: C_16  and  C_18
REMARK                            x       y       z     vdW  Elec       q    Type
REMARK                         _______ _______ _______ _____ _____    ______ ____
ROOT
ATOM      1  C   UNL     1      49.880   6.652  16.212  0.00  0.00    +0.000 A 
ATOM      2  C   UNL     1      50.649   7.574  15.518  0.00  0.00    +0.000 A 
ATOM      3  C   UNL     1      50.276   7.915  14.224  0.00  0.00    +0.000 A 
ATOM      4  C   UNL     1      49.151   7.315  13.675  0.00  0.00    +0.000 A 
ATOM      5  N   UNL     1      48.446   6.388  14.361  0.00  0.00    +0.000 NA
ATOM      6  N   UNL     1      48.813   6.051  15.633  0.00  0.00    +0.000 NA
ENDROOT
BRANCH   1   7
ATOM      7  C   UNL     1      50.093   6.408  17.686  0.00  0.00    +0.000 C 
BRANCH   7  12
ATOM      8  C   UNL     1      51.693   2.931  17.757  0.00  0.00    +0.000 A 
ATOM      9  C   UNL     1      52.999   3.241  18.156  0.00  0.00    +0.000 A 
ATOM     10  C   UNL     1      53.337   4.556  18.472  0.00  0.00    +0.000 A 
ATOM     11  C   UNL     1      52.381   5.565  18.370  0.00  0.00    +0.000 A 
ATOM     12  C   UNL     1      51.078   5.281  17.926  0.00  0.00    +0.000 A 
ATOM     13  C   UNL     1      50.738   3.952  17.635  0.00  0.00    +0.000 A 
BRANCH   8  15
ATOM     14  N   UNL     1      51.905   0.524  18.077  0.00  0.00    +0.000 N 
ATOM     15  C   UNL     1      51.291   1.544  17.404  0.00  0.00    +0.000 C 
ATOM     16  O   UNL     1      50.423   1.317  16.571  0.00  0.00    +0.000 OA
ATOM     17  H   UNL     1      51.551  -0.408  17.898  0.00  0.00    +0.000 HD
ATOM     18  H   UNL     1      52.431   0.671  18.926  0.00  0.00    +0.000 HD
ENDBRANCH   8  15
ENDBRANCH   7  12
ENDBRANCH   1   7
BRANCH   4  19
ATOM     19  C   UNL     1      48.630   7.723  12.327  0.00  0.00    +0.000 C 
BRANCH  19  20
ATOM     20  N   UNL     1      47.806   6.696  11.726  0.00  0.00    +0.000 N 
ATOM     21  C   UNL     1      46.442   6.798  11.631  0.00  0.00    +0.000 C 
ATOM     22  O   UNL     1      45.837   7.783  12.049  0.00  0.00    +0.000 OA
ATOM     23  H   UNL     1      48.254   5.794  11.584  0.00  0.00    +0.000 HD
BRANCH  21  24
ATOM     24  C   UNL     1      45.745   5.704  10.942  0.00  0.00    +0.000 A 
ATOM     25  C   UNL     1      45.843   5.590   9.561  0.00  0.00    +0.000 A 
ATOM     26  S   UNL     1      45.022   4.238   8.924  0.00  0.00    +0.000 S 
ATOM     27  C   UNL     1      44.464   3.782  10.464  0.00  0.00    +0.000 A 
ATOM     28  N   UNL     1      43.664   2.693  10.622  0.00  0.00    +0.000 NA
ATOM     29  C   UNL     1      43.283   2.482  11.838  0.00  0.00    +0.000 A 
ATOM     30  N   UNL     1      43.634   3.259  12.912  0.00  0.00    +0.000 N 
ATOM     31  C   UNL     1      44.487   4.335  12.807  0.00  0.00    +0.000 A 
ATOM     32  O   UNL     1      44.857   4.948  13.798  0.00  0.00    +0.000 OA
ATOM     33  C   UNL     1      44.916   4.634  11.455  0.00  0.00    +0.000 A 
ATOM     34  H   UNL     1      43.320   3.029  13.841  0.00  0.00    +0.000 HD
ENDBRANCH  21  24
ENDBRANCH  19  20
ENDBRANCH   4  19
TORSDOF 6
ENDMDL
MODEL 4
REMARK VINA RESULT:    -7.733      1.849      2.561
REMARK INTER + INTRA:         -11.442
REMARK INTER:                 -10.611
REMARK INTRA:                  -0.831
REMARK UNBOUND:                -0.997
REMARK  Name = 
REMARK  6 active torsions:
REMARK  status: ('A' for Active; 'I' for Inactive)
REMARK    1  A    between atoms: C_2  and  C_4
REMARK    2  A    between atoms: C_8  and  C_9
REMARK    3  A    between atoms: C_9  and  C_10
REMARK    4  A    between atoms: C_13  and  C_14
REMARK    5  A    between atoms: C_14  and  N_15
REMARK    6  A    between atoms: C_16  and  C_18
REMARK                            x       y       z     vdW  Elec       q    Type
REMARK                         _______ _______ _______ _____ _____    ______ ____
ROOT
ATOM      1  C   UNL     1      45.047   5.811  11.649  0.00  0.00    +0.000 A 
ATOM      2  C   UNL     1      45.915   6.819  11.256  0.00  0.00    +0.000 A 
ATOM      3  C   UNL     1      47.025   7.090  12.046  0.00  0.00    +0.000 A 
ATOM      4  C   UNL     1      47.219   6.344  13.200  0.00  0.00    +0.000 A 
ATOM      5  N   UNL     1      46.332   5.396  13.580  0.00  0.00    +0.000 NA
ATOM      6  N   UNL     1      45.239   5.131  12.805  0.00  0.00    +0.000 NA
ENDROOT
BRANCH   1   7
ATOM      7  C   UNL     1      43.956   5.316  10.731  0.00  0.00    +0.000 C 
BRANCH   7  12
ATOM      8  C   UNL     1      45.809   3.159   8.169  0.00  0.00    +0.000 A 
ATOM      9  C   UNL     1      45.432   1.872   8.573  0.00  0.00    +0.000 A 
ATOM     10  C   UNL     1      44.525   1.709   9.619  0.00  0.00    +0.000 A 
ATOM     11  C   UNL     1      44.012   2.825  10.277  0.00  0.00    +0.000 A 
ATOM     12  C   UNL     1      44.415   4.123   9.916  0.00  0.00    +0.000 A 
ATOM     13  C   UNL     1      45.307   4.280   8.845  0.00  0.00    +0.000 A 
BRANCH   8  15
ATOM     14  N   UNL     1      47.803   2.481   6.940  0.00  0.00    +0.000 N 
ATOM     15  C   UNL     1      46.777   3.378   7.063  0.00  0.00    +0.000 C 
ATOM     16  O   UNL     1      46.650   4.302   6.269  0.00  0.00    +0.000 OA
ATOM     17  H   UNL     1      48.394   2.586   6.125  0.00  0.00    +0.000 HD
ATOM     18  H   UNL     1      47.802   1.586   7.407  0.00  0.00    +0.000 HD
ENDBRANCH   8  15
ENDBRANCH   7  12
ENDBRANCH   1   7
BRANCH   4  19
ATOM     19  C   UNL     1      48.455   6.508  14.035  0.00  0.00    +0.000 C 
BRANCH  19  20
ATOM     20  N   UNL     1      48.148   6.708  15.435  0.00  0.00    +0.000 N 
ATOM     21  C   UNL     1      49.059   6.488  16.436  0.00  0.00    +0.000 C 
ATOM     22  O   UNL     1      50.204   6.113  16.196  0.00  0.00    +0.000 OA
ATOM     23  H   UNL     1      47.160   6.795  15.665  0.00  0.00    +0.000 HD
BRANCH  21  24
ATOM     24  C   UNL     1      48.620   6.790  17.805  0.00  0.00    +0.000 A 
ATOM     25  C   UNL     1      48.220   8.080  18.128  0.00  0.00    +0.000 A 
ATOM     26  S   UNL     1      47.691   8.251  19.740  0.00  0.00    +0.000 S 
ATOM     27  C   UNL     1      48.022   6.618  20.081  0.00  0.00    +0.000 A 
ATOM     28  N   UNL     1      47.811   6.108  21.324  0.00  0.00    +0.000 NA
ATOM     29  C   UNL     1      48.139   4.866  21.454  0.00  0.00    +0.000 A 
ATOM     30  N   UNL     1      48.655   4.086  20.450  0.00  0.00    +0.000 N 
ATOM     31  C   UNL     1      48.830   4.544  19.165  0.00  0.00    +0.000 A 
ATOM     32  O   UNL     1      49.200   3.796  18.270  0.00  0.00    +0.000 OA
ATOM     33  C   UNL     1      48.508   5.944  18.975  0.00  0.00    +0.000 A 
ATOM     34  H   UNL     1      48.872   3.114  20.610  0.00  0.00    +0.000 HD
ENDBRANCH  21  24
ENDBRANCH  19  20
ENDBRANCH   4  19
TORSDOF 6
ENDMDL
MODEL 5
REMARK VINA RESULT:    -7.730      1.764      2.073
REMARK INTER + INTRA:         -11.439
REMARK INTER:                 -10.555
REMARK INTRA:                  -0.883
REMARK UNBOUND:                -0.997
REMARK  Name = 
REMARK  6 active torsions:
REMARK  status: ('A' for Active; 'I' for Inactive)
REMARK    1  A    between atoms: C_2  and  C_4
REMARK    2  A    between atoms: C_8  and  C_9
REMARK    3  A    between atoms: C_9  and  C_10
REMARK    4  A    between atoms: C_13  and  C_14
REMARK    5  A    between atoms: C_14  and  N_15
REMARK    6  A    between atoms: C_16  and  C_18
REMARK                            x       y       z     vdW  Elec       q    Type
REMARK                         _______ _______ _______ _____ _____    ______ ____
ROOT
ATOM      1  C   UNL     1      45.472   5.326  10.907  0.00  0.00    +0.000 A 
ATOM      2  C   UNL     1      45.329   4.855  12.203  0.00  0.00    +0.000 A 
ATOM      3  C   UNL     1      46.119   5.407  13.204  0.00  0.00    +0.000 A 
ATOM      4  C   UNL     1      47.023   6.403  12.865  0.00  0.00    +0.000 A 
ATOM      5  N   UNL     1      47.170   6.812  11.584  0.00  0.00    +0.000 NA
ATOM      6  N   UNL     1      46.395   6.268  10.600  0.00  0.00    +0.000 NA
ENDROOT
BRANCH   1   7
ATOM      7  C   UNL     1      44.498   4.935   9.822  0.00  0.00    +0.000 C 
BRANCH   7  12
ATOM      8  C   UNL     1      46.356   2.678   7.351  0.00  0.00    +0.000 A 
ATOM      9  C   UNL     1      46.014   1.408   7.832  0.00  0.00    +0.000 A 
ATOM     10  C   UNL     1      45.127   1.285   8.901  0.00  0.00    +0.000 A 
ATOM     11  C   UNL     1      44.600   2.425   9.505  0.00  0.00    +0.000 A 
ATOM     12  C   UNL     1      44.969   3.708   9.066  0.00  0.00    +0.000 A 
ATOM     13  C   UNL     1      45.840   3.825   7.973  0.00  0.00    +0.000 A 
BRANCH   8  15
ATOM     14  N   UNL     1      48.619   2.567   6.449  0.00  0.00    +0.000 N 
ATOM     15  C   UNL     1      47.302   2.856   6.218  0.00  0.00    +0.000 C 
ATOM     16  O   UNL     1      46.920   3.213   5.111  0.00  0.00    +0.000 OA
ATOM     17  H   UNL     1      49.232   2.597   5.644  0.00  0.00    +0.000 HD
ATOM     18  H   UNL     1      48.927   2.043   7.255  0.00  0.00    +0.000 HD
ENDBRANCH   8  15
ENDBRANCH   7  12
ENDBRANCH   1   7
BRANCH   4  19
ATOM     19  C   UNL     1      47.824   7.119  13.915  0.00  0.00    +0.000 C 
BRANCH  19  20
ATOM     20  N   UNL     1      47.791   6.434  15.189  0.00  0.00    +0.000 N 
ATOM     21  C   UNL     1      48.912   6.230  15.952  0.00  0.00    +0.000 C 
ATOM     22  O   UNL     1      50.018   6.630  15.597  0.00  0.00    +0.000 OA
ATOM     23  H   UNL     1      46.944   5.908  15.389  0.00  0.00    +0.000 HD
BRANCH  21  24
ATOM     24  C   UNL     1      48.714   5.571  17.251  0.00  0.00    +0.000 A 
ATOM     25  C   UNL     1      48.880   4.196  17.355  0.00  0.00    +0.000 A 
ATOM     26  S   UNL     1      48.667   3.597  18.937  0.00  0.00    +0.000 S 
ATOM     27  C   UNL     1      48.298   5.146  19.534  0.00  0.00    +0.000 A 
ATOM     28  N   UNL     1      47.985   5.333  20.844  0.00  0.00    +0.000 NA
ATOM     29  C   UNL     1      47.689   6.552  21.154  0.00  0.00    +0.000 A 
ATOM     30  N   UNL     1      47.684   7.602  20.272  0.00  0.00    +0.000 N 
ATOM     31  C   UNL     1      48.050   7.469  18.952  0.00  0.00    +0.000 A 
ATOM     32  O   UNL     1      48.128   8.443  18.215  0.00  0.00    +0.000 OA
ATOM     33  C   UNL     1      48.358   6.112  18.545  0.00  0.00    +0.000 A 
ATOM     34  H   UNL     1      47.464   8.536  20.581  0.00  0.00    +0.000 HD
ENDBRANCH  21  24
ENDBRANCH  19  20
ENDBRANCH   4  19
TORSDOF 6
ENDMDL
MODEL 6
REMARK VINA RESULT:    -7.671      3.707      9.115
REMARK INTER + INTRA:         -11.359
REMARK INTER:                 -10.191
REMARK INTRA:                  -1.168
REMARK UNBOUND:                -0.997
REMARK  Name = 
REMARK  6 active torsions:
REMARK  status: ('A' for Active; 'I' for Inactive)
REMARK    1  A    between atoms: C_2  and  C_4
REMARK    2  A    between atoms: C_8  and  C_9
REMARK    3  A    between atoms: C_9  and  C_10
REMARK    4  A    between atoms: C_13  and  C_14
REMARK    5  A    between atoms: C_14  and  N_15
REMARK    6  A    between atoms: C_16  and  C_18
REMARK                            x       y       z     vdW  Elec       q    Type
REMARK                         _______ _______ _______ _____ _____    ______ ____
ROOT
ATOM      1  C   UNL     1      49.536   7.894  15.582  0.00  0.00    +0.000 A 
ATOM      2  C   UNL     1      48.432   8.720  15.431  0.00  0.00    +0.000 A 
ATOM      3  C   UNL     1      47.798   8.767  14.196  0.00  0.00    +0.000 A 
ATOM      4  C   UNL     1      48.298   7.990  13.161  0.00  0.00    +0.000 A 
ATOM      5  N   UNL     1      49.402   7.226  13.327  0.00  0.00    +0.000 NA
ATOM      6  N   UNL     1      50.026   7.181  14.541  0.00  0.00    +0.000 NA
ENDROOT
BRANCH   1   7
ATOM      7  C   UNL     1      50.129   7.624  16.944  0.00  0.00    +0.000 C 
BRANCH   7  12
ATOM      8  C   UNL     1      48.916   4.003  17.208  0.00  0.00    +0.000 A 
ATOM      9  C   UNL     1      50.044   3.378  17.756  0.00  0.00    +0.000 A 
ATOM     10  C   UNL     1      51.158   4.137  18.108  0.00  0.00    +0.000 A 
ATOM     11  C   UNL     1      51.160   5.514  17.892  0.00  0.00    +0.000 A 
ATOM     12  C   UNL     1      50.057   6.152  17.299  0.00  0.00    +0.000 A 
ATOM     13  C   UNL     1      48.928   5.386  16.973  0.00  0.00    +0.000 A 
BRANCH   8  15
ATOM     14  N   UNL     1      46.970   2.666  17.817  0.00  0.00    +0.000 N 
ATOM     15  C   UNL     1      47.709   3.231  16.814  0.00  0.00    +0.000 C 
ATOM     16  O   UNL     1      47.364   3.128  15.643  0.00  0.00    +0.000 OA
ATOM     17  H   UNL     1      46.100   2.230  17.541  0.00  0.00    +0.000 HD
ATOM     18  H   UNL     1      47.076   2.931  18.786  0.00  0.00    +0.000 HD
ENDBRANCH   8  15
ENDBRANCH   7  12
ENDBRANCH   1   7
BRANCH   4  19
ATOM     19  C   UNL     1      47.594   7.908  11.837  0.00  0.00    +0.000 C 
BRANCH  19  20
ATOM     20  N   UNL     1      46.876   6.662  11.675  0.00  0.00    +0.000 N 
ATOM     21  C   UNL     1      45.535   6.538  11.927  0.00  0.00    +0.000 C 
ATOM     22  O   UNL     1      44.856   7.492  12.302  0.00  0.00    +0.000 OA
ATOM     23  H   UNL     1      47.451   5.827  11.588  0.00  0.00    +0.000 HD
BRANCH  21  24
ATOM     24  C   UNL     1      44.932   5.225  11.661  0.00  0.00    +0.000 A 
ATOM     25  C   UNL     1      44.227   4.576  12.667  0.00  0.00    +0.000 A 
ATOM     26  S   UNL     1      43.547   3.091  12.180  0.00  0.00    +0.000 S 
ATOM     27  C   UNL     1      44.209   3.235  10.620  0.00  0.00    +0.000 A 
ATOM     28  N   UNL     1      44.021   2.261   9.689  0.00  0.00    +0.000 NA
ATOM     29  C   UNL     1      44.610   2.480   8.561  0.00  0.00    +0.000 A 
ATOM     30  N   UNL     1      45.366   3.588   8.278  0.00  0.00    +0.000 N 
ATOM     31  C   UNL     1      45.535   4.624   9.168  0.00  0.00    +0.000 A 
ATOM     32  O   UNL     1      46.134   5.642   8.850  0.00  0.00    +0.000 OA
ATOM     33  C   UNL     1      44.921   4.410  10.464  0.00  0.00    +0.000 A 
ATOM     34  H   UNL     1      45.783   3.711   7.368  0.00  0.00    +0.000 HD
ENDBRANCH  21  24
ENDBRANCH  19  20
ENDBRANCH   4  19
TORSDOF 6
ENDMDL
MODEL 7
REMARK VINA RESULT:    -7.467      3.554      4.800
REMARK INTER + INTRA:         -11.084
REMARK INTER:                 -10.352
REMARK INTRA:                  -0.732
REMARK UNBOUND:                -0.997
REMARK  Name = 
REMARK  6 active torsions:
REMARK  status: ('A' for Active; 'I' for Inactive)
REMARK    1  A    between atoms: C_2  and  C_4
REMARK    2  A    between atoms: C_8  and  C_9
REMARK    3  A    between atoms: C_9  and  C_10
REMARK    4  A    between atoms: C_13  and  C_14
REMARK    5  A    between atoms: C_14  and  N_15
REMARK    6  A    between atoms: C_16  and  C_18
REMARK                            x       y       z     vdW  Elec       q    Type
REMARK                         _______ _______ _______ _____ _____    ______ ____
ROOT
ATOM      1  C   UNL     1      47.362   5.601  13.650  0.00  0.00    +0.000 A 
ATOM      2  C   UNL     1      46.797   4.340  13.765  0.00  0.00    +0.000 A 
ATOM      3  C   UNL     1      46.981   3.633  14.947  0.00  0.00    +0.000 A 
ATOM      4  C   UNL     1      47.728   4.214  15.962  0.00  0.00    +0.000 A 
ATOM      5  N   UNL     1      48.302   5.428  15.803  0.00  0.00    +0.000 NA
ATOM      6  N   UNL     1      48.123   6.123  14.641  0.00  0.00    +0.000 NA
ENDROOT
BRANCH   1   7
ATOM      7  C   UNL     1      47.016   6.510  12.495  0.00  0.00    +0.000 C 
BRANCH   7  12
ATOM      8  C   UNL     1      44.572   4.563  10.284  0.00  0.00    +0.000 A 
ATOM      9  C   UNL     1      43.345   5.098  10.698  0.00  0.00    +0.000 A 
ATOM     10  C   UNL     1      43.317   6.133  11.631  0.00  0.00    +0.000 A 
ATOM     11  C   UNL     1      44.507   6.620  12.168  0.00  0.00    +0.000 A 
ATOM     12  C   UNL     1      45.745   6.065  11.799  0.00  0.00    +0.000 A 
ATOM     13  C   UNL     1      45.767   5.042  10.840  0.00  0.00    +0.000 A 
BRANCH   8  15
ATOM     14  N   UNL     1      44.277   3.736   8.009  0.00  0.00    +0.000 N 
ATOM     15  C   UNL     1      44.647   3.455   9.296  0.00  0.00    +0.000 C 
ATOM     16  O   UNL     1      45.055   2.343   9.606  0.00  0.00    +0.000 OA
ATOM     17  H   UNL     1      44.428   3.001   7.330  0.00  0.00    +0.000 HD
ATOM     18  H   UNL     1      44.176   4.680   7.666  0.00  0.00    +0.000 HD
ENDBRANCH   8  15
ENDBRANCH   7  12
ENDBRANCH   1   7
BRANCH   4  19
ATOM     19  C   UNL     1      47.869   3.552  17.302  0.00  0.00    +0.000 C 
BRANCH  19  20
ATOM     20  N   UNL     1      49.252   3.291  17.641  0.00  0.00    +0.000 N 
ATOM     21  C   UNL     1      50.000   2.325  17.018  0.00  0.00    +0.000 C 
ATOM     22  O   UNL     1      49.535   1.625  16.122  0.00  0.00    +0.000 OA
ATOM     23  H   UNL     1      49.579   3.695  18.515  0.00  0.00    +0.000 HD
BRANCH  21  24
ATOM     24  C   UNL     1      51.407   2.216  17.427  0.00  0.00    +0.000 A 
ATOM     25  C   UNL     1      51.968   0.961  17.624  0.00  0.00    +0.000 A 
ATOM     26  S   UNL     1      53.621   1.006  18.042  0.00  0.00    +0.000 S 
ATOM     27  C   UNL     1      53.636   2.707  18.024  0.00  0.00    +0.000 A 
ATOM     28  N   UNL     1      54.767   3.398  18.328  0.00  0.00    +0.000 NA
ATOM     29  C   UNL     1      54.629   4.682  18.313  0.00  0.00    +0.000 A 
ATOM     30  N   UNL     1      53.462   5.337  18.015  0.00  0.00    +0.000 N 
ATOM     31  C   UNL     1      52.310   4.680  17.646  0.00  0.00    +0.000 A 
ATOM     32  O   UNL     1      51.314   5.297  17.293  0.00  0.00    +0.000 OA
ATOM     33  C   UNL     1      52.404   3.234  17.681  0.00  0.00    +0.000 A 
ATOM     34  H   UNL     1      53.423   6.345  17.999  0.00  0.00    +0.000 HD
ENDBRANCH  21  24
ENDBRANCH  19  20
ENDBRANCH   4  19
TORSDOF 6
ENDMDL
MODEL 8
REMARK VINA RESULT:    -7.431      2.641      3.865
REMARK INTER + INTRA:         -11.035
REMARK INTER:                  -9.656
REMARK INTRA:                  -1.379
REMARK UNBOUND:                -0.997
REMARK  Name = 
REMARK  6 active torsions:
REMARK  status: ('A' for Active; 'I' for Inactive)
REMARK    1  A    between atoms: C_2  and  C_4
REMARK    2  A    between atoms: C_8  and  C_9
REMARK    3  A    between atoms: C_9  and  C_10
REMARK    4  A    between atoms: C_13  and  C_14
REMARK    5  A    between atoms: C_14  and  N_15
REMARK    6  A    between atoms: C_16  and  C_18
REMARK                            x       y       z     vdW  Elec       q    Type
REMARK                         _______ _______ _______ _____ _____    ______ ____
ROOT
ATOM      1  C   UNL     1      45.697   7.635  11.933  0.00  0.00    +0.000 A 
ATOM      2  C   UNL     1      46.813   6.951  11.474  0.00  0.00    +0.000 A 
ATOM      3  C   UNL     1      48.026   7.141  12.125  0.00  0.00    +0.000 A 
ATOM      4  C   UNL     1      48.073   8.011  13.205  0.00  0.00    +0.000 A 
ATOM      5  N   UNL     1      46.978   8.697  13.602  0.00  0.00    +0.000 NA
ATOM      6  N   UNL     1      45.785   8.512  12.962  0.00  0.00    +0.000 NA
ENDROOT
BRANCH   1   7
ATOM      7  C   UNL     1      44.315   7.308  11.422  0.00  0.00    +0.000 C 
BRANCH   7  12
ATOM      8  C   UNL     1      44.120   3.621  10.413  0.00  0.00    +0.000 A 
ATOM      9  C   UNL     1      43.768   3.024  11.630  0.00  0.00    +0.000 A 
ATOM     10  C   UNL     1      43.521   3.818  12.749  0.00  0.00    +0.000 A 
ATOM     11  C   UNL     1      43.648   5.203  12.662  0.00  0.00    +0.000 A 
ATOM     12  C   UNL     1      44.046   5.816  11.462  0.00  0.00    +0.000 A 
ATOM     13  C   UNL     1      44.266   5.014  10.333  0.00  0.00    +0.000 A 
BRANCH   8  15
ATOM     14  N   UNL     1      44.407   3.468   7.997  0.00  0.00    +0.000 N 
ATOM     15  C   UNL     1      44.397   2.812   9.197  0.00  0.00    +0.000 C 
ATOM     16  O   UNL     1      44.640   1.614   9.262  0.00  0.00    +0.000 OA
ATOM     17  H   UNL     1      44.695   2.925   7.192  0.00  0.00    +0.000 HD
ATOM     18  H   UNL     1      44.459   4.474   7.927  0.00  0.00    +0.000 HD
ENDBRANCH   8  15
ENDBRANCH   7  12
ENDBRANCH   1   7
BRANCH   4  19
ATOM     19  C   UNL     1      49.324   8.174  14.020  0.00  0.00    +0.000 C 
BRANCH  19  20
ATOM     20  N   UNL     1      49.403   7.211  15.097  0.00  0.00    +0.000 N 
ATOM     21  C   UNL     1      49.088   7.520  16.395  0.00  0.00    +0.000 C 
ATOM     22  O   UNL     1      48.707   8.643  16.718  0.00  0.00    +0.000 OA
ATOM     23  H   UNL     1      49.922   6.360  14.895  0.00  0.00    +0.000 HD
BRANCH  21  24
ATOM     24  C   UNL     1      49.159   6.423  17.371  0.00  0.00    +0.000 A 
ATOM     25  C   UNL     1      49.916   6.580  18.525  0.00  0.00    +0.000 A 
ATOM     26  S   UNL     1      49.851   5.239  19.575  0.00  0.00    +0.000 S 
ATOM     27  C   UNL     1      48.848   4.379  18.505  0.00  0.00    +0.000 A 
ATOM     28  N   UNL     1      48.434   3.116  18.797  0.00  0.00    +0.000 NA
ATOM     29  C   UNL     1      47.709   2.566  17.881  0.00  0.00    +0.000 A 
ATOM     30  N   UNL     1      47.355   3.167  16.700  0.00  0.00    +0.000 N 
ATOM     31  C   UNL     1      47.703   4.461  16.389  0.00  0.00    +0.000 A 
ATOM     32  O   UNL     1      47.290   5.001  15.371  0.00  0.00    +0.000 OA
ATOM     33  C   UNL     1      48.547   5.112  17.371  0.00  0.00    +0.000 A 
ATOM     34  H   UNL     1      46.768   2.691  16.034  0.00  0.00    +0.000 HD
ENDBRANCH  21  24
ENDBRANCH  19  20
ENDBRANCH   4  19
TORSDOF 6
ENDMDL
MODEL 9
REMARK VINA RESULT:    -7.409      3.965      8.475
REMARK INTER + INTRA:         -11.006
REMARK INTER:                  -9.244
REMARK INTRA:                  -1.762
REMARK UNBOUND:                -0.997
REMARK  Name = 
REMARK  6 active torsions:
REMARK  status: ('A' for Active; 'I' for Inactive)
REMARK    1  A    between atoms: C_2  and  C_4
REMARK    2  A    between atoms: C_8  and  C_9
REMARK    3  A    between atoms: C_9  and  C_10
REMARK    4  A    between atoms: C_13  and  C_14
REMARK    5  A    between atoms: C_14  and  N_15
REMARK    6  A    between atoms: C_16  and  C_18
REMARK                            x       y       z     vdW  Elec       q    Type
REMARK                         _______ _______ _______ _____ _____    ______ ____
ROOT
ATOM      1  C   UNL     1      49.805   7.310  18.736  0.00  0.00    +0.000 A 
ATOM      2  C   UNL     1      48.544   7.866  18.891  0.00  0.00    +0.000 A 
ATOM      3  C   UNL     1      48.046   8.682  17.883  0.00  0.00    +0.000 A 
ATOM      4  C   UNL     1      48.833   8.913  16.764  0.00  0.00    +0.000 A 
ATOM      5  N   UNL     1      50.076   8.391  16.660  0.00  0.00    +0.000 NA
ATOM      6  N   UNL     1      50.567   7.590  17.652  0.00  0.00    +0.000 NA
ENDROOT
BRANCH   1   7
ATOM      7  C   UNL     1      50.310   6.243  19.677  0.00  0.00    +0.000 C 
BRANCH   7  12
ATOM      8  C   UNL     1      49.835   3.153  17.469  0.00  0.00    +0.000 A 
ATOM      9  C   UNL     1      51.142   2.652  17.417  0.00  0.00    +0.000 A 
ATOM     10  C   UNL     1      52.153   3.268  18.153  0.00  0.00    +0.000 A 
ATOM     11  C   UNL     1      51.868   4.395  18.921  0.00  0.00    +0.000 A 
ATOM     12  C   UNL     1      50.572   4.939  18.949  0.00  0.00    +0.000 A 
ATOM     13  C   UNL     1      49.554   4.298  18.228  0.00  0.00    +0.000 A 
BRANCH   8  15
ATOM     14  N   UNL     1      47.462   2.991  16.932  0.00  0.00    +0.000 N 
ATOM     15  C   UNL     1      48.728   2.530  16.696  0.00  0.00    +0.000 C 
ATOM     16  O   UNL     1      48.936   1.664  15.857  0.00  0.00    +0.000 OA
ATOM     17  H   UNL     1      46.734   2.629  16.329  0.00  0.00    +0.000 HD
ATOM     18  H   UNL     1      47.280   3.856  17.420  0.00  0.00    +0.000 HD
ENDBRANCH   8  15
ENDBRANCH   7  12
ENDBRANCH   1   7
BRANCH   4  19
ATOM     19  C   UNL     1      48.310   9.691  15.591  0.00  0.00    +0.000 C 
BRANCH  19  20
ATOM     20  N   UNL     1      47.380   8.921  14.794  0.00  0.00    +0.000 N 
ATOM     21  C   UNL     1      47.763   8.200  13.693  0.00  0.00    +0.000 C 
ATOM     22  O   UNL     1      48.934   8.160  13.322  0.00  0.00    +0.000 OA
ATOM     23  H   UNL     1      46.394   9.120  14.946  0.00  0.00    +0.000 HD
BRANCH  21  24
ATOM     24  C   UNL     1      46.716   7.419  13.019  0.00  0.00    +0.000 A 
ATOM     25  C   UNL     1      45.820   8.061  12.173  0.00  0.00    +0.000 A 
ATOM     26  S   UNL     1      44.705   7.006  11.429  0.00  0.00    +0.000 S 
ATOM     27  C   UNL     1      45.347   5.661  12.247  0.00  0.00    +0.000 A 
ATOM     28  N   UNL     1      44.816   4.420  12.074  0.00  0.00    +0.000 NA
ATOM     29  C   UNL     1      45.375   3.496  12.782  0.00  0.00    +0.000 A 
ATOM     30  N   UNL     1      46.421   3.701  13.646  0.00  0.00    +0.000 N 
ATOM     31  C   UNL     1      47.026   4.926  13.808  0.00  0.00    +0.000 A 
ATOM     32  O   UNL     1      48.018   5.055  14.512  0.00  0.00    +0.000 OA
ATOM     33  C   UNL     1      46.413   6.005  13.059  0.00  0.00    +0.000 A 
ATOM     34  H   UNL     1      46.828   2.932  14.156  0.00  0.00    +0.000 HD
ENDBRANCH  21  24
ENDBRANCH  19  20
ENDBRANCH   4  19
TORSDOF 6
ENDMDL
