MODEL 1
REMARK VINA RESULT:    -7.655      0.000      0.000
REMARK INTER + INTRA:         -12.850
REMARK INTER:                 -11.682
REMARK INTRA:                  -1.168
REMARK UNBOUND:                -1.168
REMARK  Name = 
REMARK  10 active torsions:
REMARK  status: ('A' for Active; 'I' for Inactive)
REMARK    1  A    between atoms: C_1  and  C_2
REMARK    2  A    between atoms: C_2  and  C_3
REMARK    3  A    between atoms: C_3  and  C_4
REMARK    4  A    between atoms: C_4  and  C_5
REMARK    5  A    between atoms: C_7  and  C_8
REMARK    6  A    between atoms: C_8  and  C_9
REMARK    7  A    between atoms: C_9  and  C_10
REMARK    8  A    between atoms: C_13  and  C_14
REMARK    9  A    between atoms: C_20  and  S_21
REMARK   10  A    between atoms: S_21  and  C_22
REMARK                            x       y       z     vdW  Elec       q    Type
REMARK                         _______ _______ _______ _____ _____    ______ ____
ROOT
ATOM      1  C   UNL     1      46.837   4.787  13.611  0.00  0.00    +0.000 A 
ATOM      2  C   UNL     1      45.647   4.658  12.888  0.00  0.00    +0.000 A 
ATOM      3  C   UNL     1      45.393   5.455  11.767  0.00  0.00    +0.000 A 
ATOM      4  C   UNL     1      46.381   6.354  11.348  0.00  0.00    +0.000 A 
ATOM      5  C   UNL     1      47.516   6.595  12.122  0.00  0.00    +0.000 A 
ATOM      6  C   UNL     1      47.759   5.775  13.229  0.00  0.00    +0.000 A 
ENDROOT
BRANCH   1   7
ATOM      7  C   UNL     1      47.114   3.852  14.764  0.00  0.00    +0.000 C 
BRANCH   7   8
ATOM      8  C   UNL     1      47.570   4.586  16.023  0.00  0.00    +0.000 C 
BRANCH   8  10
ATOM      9  C   UNL     1      48.247   2.997  17.838  0.00  0.00    +0.000 C 
ATOM     10  C   UNL     1      47.123   3.858  17.289  0.00  0.00    +0.000 C 
ENDBRANCH   8  10
ENDBRANCH   7   8
ENDBRANCH   1   7
BRANCH   3  11
ATOM     11  C   UNL     1      44.094   5.382  10.998  0.00  0.00    +0.000 C 
BRANCH  11  12
ATOM     12  C   UNL     1      43.799   3.973  10.473  0.00  0.00    +0.000 C 
BRANCH  12  13
ATOM     13  C   UNL     1      44.786   3.519   9.434  0.00  0.00    +0.000 A 
ATOM     14  C   UNL     1      45.171   2.177   9.351  0.00  0.00    +0.000 A 
ATOM     15  C   UNL     1      46.044   1.774   8.347  0.00  0.00    +0.000 A 
ATOM     16  C   UNL     1      46.506   2.735   7.461  0.00  0.00    +0.000 A 
ATOM     17  N   UNL     1      46.171   4.051   7.517  0.00  0.00    +0.000 NA
ATOM     18  C   UNL     1      45.317   4.409   8.506  0.00  0.00    +0.000 A 
BRANCH  16  19
ATOM     19  C   UNL     1      47.424   2.328   6.348  0.00  0.00    +0.000 C 
ATOM     20  N   UNL     1      47.280   3.038   5.185  0.00  0.00    +0.000 N 
ATOM     21  O   UNL     1      48.245   1.434   6.460  0.00  0.00    +0.000 OA
ATOM     22  H   UNL     1      46.576   3.774   5.139  0.00  0.00    +0.000 HD
ATOM     23  H   UNL     1      47.851   2.819   4.389  0.00  0.00    +0.000 HD
ENDBRANCH  16  19
ENDBRANCH  12  13
ENDBRANCH  11  12
ENDBRANCH   3  11
BRANCH   5  24
ATOM     24  S   UNL     1      48.697   7.859  11.698  0.00  0.00    +0.000 S 
BRANCH  24  25
ATOM     25  C   UNL     1      48.350   9.262  12.859  0.00  0.00    +0.000 C 
ATOM     26  C   UNL     1      49.372   9.515  13.956  0.00  0.00    +0.000 C 
ATOM     27  C   UNL     1      48.730   8.974  15.219  0.00  0.00    +0.000 C 
ATOM     28  N   UNL     1      47.278   9.064  15.036  0.00  0.00    +0.000 NA
ATOM     29  C   UNL     1      47.013   9.229  13.595  0.00  0.00    +0.000 C 
ATOM     30  H   UNL     1      46.922   9.881  15.534  0.00  0.00    +0.000 HD
ENDBRANCH  24  25
ENDBRANCH   5  24
TORSDOF 9
ENDMDL
MODEL 2
REMARK VINA RESULT:    -7.492      1.865      3.950
REMARK INTER + INTRA:         -12.601
REMARK INTER:                 -11.346
REMARK INTRA:                  -1.255
REMARK UNBOUND:                -1.168
REMARK  Name = 
REMARK  10 active torsions:
REMARK  status: ('A' for Active; 'I' for Inactive)
REMARK    1  A    between atoms: C_1  and  C_2
REMARK    2  A    between atoms: C_2  and  C_3
REMARK    3  A    between atoms: C_3  and  C_4
REMARK    4  A    between atoms: C_4  and  C_5
REMARK    5  A    between atoms: C_7  and  C_8
REMARK    6  A    between atoms: C_8  and  C_9
REMARK    7  A    between atoms: C_9  and  C_10
REMARK    8  A    between atoms: C_13  and  C_14
REMARK    9  A    between atoms: C_20  and  S_21
REMARK   10  A    between atoms: S_21  and  C_22
REMARK                            x       y       z     vdW  Elec       q    Type
REMARK                         _______ _______ _______ _____ _____    ______ ____
ROOT
ATOM      1  C   UNL     1      46.718   6.926  12.316  0.00  0.00    +0.000 A 
ATOM      2  C   UNL     1      45.561   6.610  11.596  0.00  0.00    +0.000 A 
ATOM      3  C   UNL     1      44.896   5.396  11.793  0.00  0.00    +0.000 A 
ATOM      4  C   UNL     1      45.383   4.518  12.768  0.00  0.00    +0.000 A 
ATOM      5  C   UNL     1      46.602   4.747  13.406  0.00  0.00    +0.000 A 
ATOM      6  C   UNL     1      47.241   5.976  13.207  0.00  0.00    +0.000 A 
ENDROOT
BRANCH   1   7
ATOM      7  C   UNL     1      47.360   8.282  12.139  0.00  0.00    +0.000 C 
BRANCH   7   8
ATOM      8  C   UNL     1      48.820   8.190  11.705  0.00  0.00    +0.000 C 
BRANCH   8  10
ATOM      9  C   UNL     1      48.996   9.429  13.876  0.00  0.00    +0.000 C 
ATOM     10  C   UNL     1      49.763   8.671  12.807  0.00  0.00    +0.000 C 
ENDBRANCH   8  10
ENDBRANCH   7   8
ENDBRANCH   1   7
BRANCH   3  11
ATOM     11  C   UNL     1      43.679   4.998  10.991  0.00  0.00    +0.000 C 
BRANCH  11  12
ATOM     12  C   UNL     1      43.702   3.522  10.577  0.00  0.00    +0.000 C 
BRANCH  12  13
ATOM     13  C   UNL     1      44.669   3.245   9.460  0.00  0.00    +0.000 A 
ATOM     14  C   UNL     1      45.150   4.283   8.656  0.00  0.00    +0.000 A 
ATOM     15  C   UNL     1      46.085   4.006   7.665  0.00  0.00    +0.000 A 
ATOM     16  C   UNL     1      46.503   2.693   7.511  0.00  0.00    +0.000 A 
ATOM     17  N   UNL     1      46.047   1.653   8.259  0.00  0.00    +0.000 NA
ATOM     18  C   UNL     1      45.140   1.958   9.216  0.00  0.00    +0.000 A 
BRANCH  16  19
ATOM     19  C   UNL     1      47.533   2.366   6.472  0.00  0.00    +0.000 C 
ATOM     20  N   UNL     1      47.409   3.052   5.293  0.00  0.00    +0.000 N 
ATOM     21  O   UNL     1      48.422   1.552   6.654  0.00  0.00    +0.000 OA
ATOM     22  H   UNL     1      46.645   3.720   5.186  0.00  0.00    +0.000 HD
ATOM     23  H   UNL     1      48.054   2.882   4.542  0.00  0.00    +0.000 HD
ENDBRANCH  16  19
ENDBRANCH  12  13
ENDBRANCH  11  12
ENDBRANCH   3  11
BRANCH   5  24
ATOM     24  S   UNL     1      47.324   3.559  14.519  0.00  0.00    +0.000 S 
BRANCH  24  25
ATOM     25  C   UNL     1      47.308   4.375  16.183  0.00  0.00    +0.000 C 
ATOM     26  C   UNL     1      48.487   5.275  16.519  0.00  0.00    +0.000 C 
ATOM     27  C   UNL     1      49.333   4.465  17.482  0.00  0.00    +0.000 C 
ATOM     28  N   UNL     1      48.431   3.542  18.177  0.00  0.00    +0.000 NA
ATOM     29  C   UNL     1      47.182   3.457  17.396  0.00  0.00    +0.000 C 
ATOM     30  H   UNL     1      48.216   3.910  19.105  0.00  0.00    +0.000 HD
ENDBRANCH  24  25
ENDBRANCH   5  24
TORSDOF 9
ENDMDL
MODEL 3
REMARK VINA RESULT:    -7.472      1.591      2.068
REMARK INTER + INTRA:         -12.570
REMARK INTER:                 -11.459
REMARK INTRA:                  -1.111
REMARK UNBOUND:                -1.168
REMARK  Name = 
REMARK  10 active torsions:
REMARK  status: ('A' for Active; 'I' for Inactive)
REMARK    1  A    between atoms: C_1  and  C_2
REMARK    2  A    between atoms: C_2  and  C_3
REMARK    3  A    between atoms: C_3  and  C_4
REMARK    4  A    between atoms: C_4  and  C_5
REMARK    5  A    between atoms: C_7  and  C_8
REMARK    6  A    between atoms: C_8  and  C_9
REMARK    7  A    between atoms: C_9  and  C_10
REMARK    8  A    between atoms: C_13  and  C_14
REMARK    9  A    between atoms: C_20  and  S_21
REMARK   10  A    between atoms: S_21  and  C_22
REMARK                            x       y       z     vdW  Elec       q    Type
REMARK                         _______ _______ _______ _____ _____    ______ ____
ROOT
ATOM      1  C   UNL     1      46.805   4.680  14.227  0.00  0.00    +0.000 A 
ATOM      2  C   UNL     1      45.675   4.178  13.574  0.00  0.00    +0.000 A 
ATOM      3  C   UNL     1      45.223   4.741  12.376  0.00  0.00    +0.000 A 
ATOM      4  C   UNL     1      45.958   5.791  11.812  0.00  0.00    +0.000 A 
ATOM      5  C   UNL     1      47.006   6.394  12.504  0.00  0.00    +0.000 A 
ATOM      6  C   UNL     1      47.453   5.804  13.692  0.00  0.00    +0.000 A 
ENDROOT
BRANCH   1   7
ATOM      7  C   UNL     1      47.313   3.993  15.472  0.00  0.00    +0.000 C 
BRANCH   7   8
ATOM      8  C   UNL     1      47.947   4.964  16.465  0.00  0.00    +0.000 C 
BRANCH   8  10
ATOM      9  C   UNL     1      48.566   4.581  18.863  0.00  0.00    +0.000 C 
ATOM     10  C   UNL     1      47.418   4.743  17.881  0.00  0.00    +0.000 C 
ENDBRANCH   8  10
ENDBRANCH   7   8
ENDBRANCH   1   7
BRANCH   3  11
ATOM     11  C   UNL     1      43.974   4.260  11.675  0.00  0.00    +0.000 C 
BRANCH  11  12
ATOM     12  C   UNL     1      43.912   4.706  10.209  0.00  0.00    +0.000 C 
BRANCH  12  13
ATOM     13  C   UNL     1      44.779   3.872   9.309  0.00  0.00    +0.000 A 
ATOM     14  C   UNL     1      45.608   4.472   8.357  0.00  0.00    +0.000 A 
ATOM     15  C   UNL     1      46.440   3.680   7.574  0.00  0.00    +0.000 A 
ATOM     16  C   UNL     1      46.408   2.307   7.770  0.00  0.00    +0.000 A 
ATOM     17  N   UNL     1      45.604   1.683   8.672  0.00  0.00    +0.000 NA
ATOM     18  C   UNL     1      44.809   2.485   9.419  0.00  0.00    +0.000 A 
BRANCH  16  19
ATOM     19  C   UNL     1      47.314   1.428   6.964  0.00  0.00    +0.000 C 
ATOM     20  N   UNL     1      48.438   2.040   6.476  0.00  0.00    +0.000 N 
ATOM     21  O   UNL     1      47.079   0.250   6.754  0.00  0.00    +0.000 OA
ATOM     22  H   UNL     1      48.589   3.029   6.676  0.00  0.00    +0.000 HD
ATOM     23  H   UNL     1      49.091   1.521   5.918  0.00  0.00    +0.000 HD
ENDBRANCH  16  19
ENDBRANCH  12  13
ENDBRANCH  11  12
ENDBRANCH   3  11
BRANCH   5  24
ATOM     24  S   UNL     1      47.839   7.841  11.883  0.00  0.00    +0.000 S 
BRANCH  24  25
ATOM     25  C   UNL     1      46.936   9.280  12.622  0.00  0.00    +0.000 C 
ATOM     26  C   UNL     1      45.446   9.103  12.872  0.00  0.00    +0.000 C 
ATOM     27  C   UNL     1      44.769   9.891  11.768  0.00  0.00    +0.000 C 
ATOM     28  N   UNL     1      45.691  10.961  11.375  0.00  0.00    +0.000 NA
ATOM     29  C   UNL     1      47.033  10.609  11.876  0.00  0.00    +0.000 C 
ATOM     30  H   UNL     1      45.397  11.839  11.806  0.00  0.00    +0.000 HD
ENDBRANCH  24  25
ENDBRANCH   5  24
TORSDOF 9
ENDMDL
MODEL 4
REMARK VINA RESULT:    -7.361      3.181      4.744
REMARK INTER + INTRA:         -12.402
REMARK INTER:                 -11.083
REMARK INTRA:                  -1.319
REMARK UNBOUND:                -1.168
REMARK  Name = 
REMARK  10 active torsions:
REMARK  status: ('A' for Active; 'I' for Inactive)
REMARK    1  A    between atoms: C_1  and  C_2
REMARK    2  A    between atoms: C_2  and  C_3
REMARK    3  A    between atoms: C_3  and  C_4
REMARK    4  A    between atoms: C_4  and  C_5
REMARK    5  A    between atoms: C_7  and  C_8
REMARK    6  A    between atoms: C_8  and  C_9
REMARK    7  A    between atoms: C_9  and  C_10
REMARK    8  A    between atoms: C_13  and  C_14
REMARK    9  A    between atoms: C_20  and  S_21
REMARK   10  A    between atoms: S_21  and  C_22
REMARK                            x       y       z     vdW  Elec       q    Type
REMARK                         _______ _______ _______ _____ _____    ______ ____
ROOT
ATOM      1  C   UNL     1      47.548   7.672  12.338  0.00  0.00    +0.000 A 
ATOM      2  C   UNL     1      46.943   6.419  12.200  0.00  0.00    +0.000 A 
ATOM      3  C   UNL     1      45.591   6.303  11.859  0.00  0.00    +0.000 A 
ATOM      4  C   UNL     1      44.864   7.472  11.606  0.00  0.00    +0.000 A 
ATOM      5  C   UNL     1      45.404   8.731  11.862  0.00  0.00    +0.000 A 
ATOM      6  C   UNL     1      46.762   8.825  12.186  0.00  0.00    +0.000 A 
ENDROOT
BRANCH   1   7
ATOM      7  C   UNL     1      49.029   7.757  12.624  0.00  0.00    +0.000 C 
BRANCH   7   8
ATOM      8  C   UNL     1      49.881   7.633  11.363  0.00  0.00    +0.000 C 
BRANCH   8  10
ATOM      9  C   UNL     1      50.336  10.078  11.671  0.00  0.00    +0.000 C 
ATOM     10  C   UNL     1      50.935   8.735  11.289  0.00  0.00    +0.000 C 
ENDBRANCH   8  10
ENDBRANCH   7   8
ENDBRANCH   1   7
BRANCH   3  11
ATOM     11  C   UNL     1      44.892   4.968  11.757  0.00  0.00    +0.000 C 
BRANCH  11  12
ATOM     12  C   UNL     1      44.180   4.776  10.413  0.00  0.00    +0.000 C 
BRANCH  12  13
ATOM     13  C   UNL     1      44.999   3.991   9.427  0.00  0.00    +0.000 A 
ATOM     14  C   UNL     1      45.759   4.641   8.450  0.00  0.00    +0.000 A 
ATOM     15  C   UNL     1      46.550   3.894   7.585  0.00  0.00    +0.000 A 
ATOM     16  C   UNL     1      46.547   2.514   7.726  0.00  0.00    +0.000 A 
ATOM     17  N   UNL     1      45.809   1.842   8.650  0.00  0.00    +0.000 NA
ATOM     18  C   UNL     1      45.053   2.601   9.478  0.00  0.00    +0.000 A 
BRANCH  16  19
ATOM     19  C   UNL     1      47.411   1.681   6.830  0.00  0.00    +0.000 C 
ATOM     20  N   UNL     1      48.520   2.316   6.335  0.00  0.00    +0.000 N 
ATOM     21  O   UNL     1      47.158   0.520   6.556  0.00  0.00    +0.000 OA
ATOM     22  H   UNL     1      48.687   3.289   6.589  0.00  0.00    +0.000 HD
ATOM     23  H   UNL     1      49.144   1.829   5.718  0.00  0.00    +0.000 HD
ENDBRANCH  16  19
ENDBRANCH  12  13
ENDBRANCH  11  12
ENDBRANCH   3  11
BRANCH   5  24
ATOM     24  S   UNL     1      44.438  10.221  11.715  0.00  0.00    +0.000 S 
BRANCH  24  25
ATOM     25  C   UNL     1      43.198   9.871  10.383  0.00  0.00    +0.000 C 
ATOM     26  C   UNL     1      43.283  10.718   9.124  0.00  0.00    +0.000 C 
ATOM     27  C   UNL     1      42.135  11.701   9.237  0.00  0.00    +0.000 C 
ATOM     28  N   UNL     1      41.100  11.063  10.055  0.00  0.00    +0.000 NA
ATOM     29  C   UNL     1      41.725   9.941  10.781  0.00  0.00    +0.000 C 
ATOM     30  H   UNL     1      40.365  10.695   9.450  0.00  0.00    +0.000 HD
ENDBRANCH  24  25
ENDBRANCH   5  24
TORSDOF 9
ENDMDL
MODEL 5
REMARK VINA RESULT:    -7.313      2.384      4.717
REMARK INTER + INTRA:         -12.329
REMARK INTER:                 -11.119
REMARK INTRA:                  -1.210
REMARK UNBOUND:                -1.168
REMARK  Name = 
REMARK  10 active torsions:
REMARK  status: ('A' for Active; 'I' for Inactive)
REMARK    1  A    between atoms: C_1  and  C_2
REMARK    2  A    between atoms: C_2  and  C_3
REMARK    3  A    between atoms: C_3  and  C_4
REMARK    4  A    between atoms: C_4  and  C_5
REMARK    5  A    between atoms: C_7  and  C_8
REMARK    6  A    between atoms: C_8  and  C_9
REMARK    7  A    between atoms: C_9  and  C_10
REMARK    8  A    between atoms: C_13  and  C_14
REMARK    9  A    between atoms: C_20  and  S_21
REMARK   10  A    between atoms: S_21  and  C_22
REMARK                            x       y       z     vdW  Elec       q    Type
REMARK                         _______ _______ _______ _____ _____    ______ ____
ROOT
ATOM      1  C   UNL     1      45.437   7.924  12.343  0.00  0.00    +0.000 A 
ATOM      2  C   UNL     1      44.638   6.869  11.888  0.00  0.00    +0.000 A 
ATOM      3  C   UNL     1      44.883   5.552  12.289  0.00  0.00    +0.000 A 
ATOM      4  C   UNL     1      45.917   5.313  13.203  0.00  0.00    +0.000 A 
ATOM      5  C   UNL     1      46.807   6.321  13.569  0.00  0.00    +0.000 A 
ATOM      6  C   UNL     1      46.533   7.634  13.171  0.00  0.00    +0.000 A 
ENDROOT
BRANCH   1   7
ATOM      7  C   UNL     1      45.090   9.342  11.956  0.00  0.00    +0.000 C 
BRANCH   7   8
ATOM      8  C   UNL     1      44.012   9.412  10.879  0.00  0.00    +0.000 C 
BRANCH   8  10
ATOM      9  C   UNL     1      44.728  11.804  11.092  0.00  0.00    +0.000 C 
ATOM     10  C   UNL     1      43.903  10.816  10.286  0.00  0.00    +0.000 C 
ENDBRANCH   8  10
ENDBRANCH   7   8
ENDBRANCH   1   7
BRANCH   3  11
ATOM     11  C   UNL     1      44.077   4.383  11.772  0.00  0.00    +0.000 C 
BRANCH  11  12
ATOM     12  C   UNL     1      43.707   4.532  10.292  0.00  0.00    +0.000 C 
BRANCH  12  13
ATOM     13  C   UNL     1      44.666   3.824   9.377  0.00  0.00    +0.000 A 
ATOM     14  C   UNL     1      45.483   4.544   8.500  0.00  0.00    +0.000 A 
ATOM     15  C   UNL     1      46.400   3.867   7.704  0.00  0.00    +0.000 A 
ATOM     16  C   UNL     1      46.462   2.486   7.811  0.00  0.00    +0.000 A 
ATOM     17  N   UNL     1      45.675   1.747   8.637  0.00  0.00    +0.000 NA
ATOM     18  C   UNL     1      44.795   2.438   9.401  0.00  0.00    +0.000 A 
BRANCH  16  19
ATOM     19  C   UNL     1      47.461   1.729   6.990  0.00  0.00    +0.000 C 
ATOM     20  N   UNL     1      48.484   2.482   6.477  0.00  0.00    +0.000 N 
ATOM     21  O   UNL     1      47.380   0.529   6.788  0.00  0.00    +0.000 OA
ATOM     22  H   UNL     1      48.507   3.483   6.670  0.00  0.00    +0.000 HD
ATOM     23  H   UNL     1      49.189   2.050   5.907  0.00  0.00    +0.000 HD
ENDBRANCH  16  19
ENDBRANCH  12  13
ENDBRANCH  11  12
ENDBRANCH   3  11
BRANCH   5  24
ATOM     24  S   UNL     1      48.231   5.999  14.590  0.00  0.00    +0.000 S 
BRANCH  24  25
ATOM     25  C   UNL     1      47.636   4.839  15.907  0.00  0.00    +0.000 C 
ATOM     26  C   UNL     1      48.220   5.021  17.299  0.00  0.00    +0.000 C 
ATOM     27  C   UNL     1      49.215   3.889  17.456  0.00  0.00    +0.000 C 
ATOM     28  N   UNL     1      48.757   2.791  16.599  0.00  0.00    +0.000 NA
ATOM     29  C   UNL     1      47.795   3.345  15.629  0.00  0.00    +0.000 C 
ATOM     30  H   UNL     1      48.285   2.089  17.169  0.00  0.00    +0.000 HD
ENDBRANCH  24  25
ENDBRANCH   5  24
TORSDOF 9
ENDMDL
MODEL 6
REMARK VINA RESULT:    -7.115      2.403      4.451
REMARK INTER + INTRA:         -12.026
REMARK INTER:                 -10.882
REMARK INTRA:                  -1.144
REMARK UNBOUND:                -1.168
REMARK  Name = 
REMARK  10 active torsions:
REMARK  status: ('A' for Active; 'I' for Inactive)
REMARK    1  A    between atoms: C_1  and  C_2
REMARK    2  A    between atoms: C_2  and  C_3
REMARK    3  A    between atoms: C_3  and  C_4
REMARK    4  A    between atoms: C_4  and  C_5
REMARK    5  A    between atoms: C_7  and  C_8
REMARK    6  A    between atoms: C_8  and  C_9
REMARK    7  A    between atoms: C_9  and  C_10
REMARK    8  A    between atoms: C_13  and  C_14
REMARK    9  A    between atoms: C_20  and  S_21
REMARK   10  A    between atoms: S_21  and  C_22
REMARK                            x       y       z     vdW  Elec       q    Type
REMARK                         _______ _______ _______ _____ _____    ______ ____
ROOT
ATOM      1  C   UNL     1      45.324   8.288  12.026  0.00  0.00    +0.000 A 
ATOM      2  C   UNL     1      44.659   7.085  11.771  0.00  0.00    +0.000 A 
ATOM      3  C   UNL     1      45.185   5.863  12.202  0.00  0.00    +0.000 A 
ATOM      4  C   UNL     1      46.372   5.872  12.944  0.00  0.00    +0.000 A 
ATOM      5  C   UNL     1      47.121   7.037  13.100  0.00  0.00    +0.000 A 
ATOM      6  C   UNL     1      46.568   8.251  12.676  0.00  0.00    +0.000 A 
ENDROOT
BRANCH   1   7
ATOM      7  C   UNL     1      44.683   9.594  11.620  0.00  0.00    +0.000 C 
BRANCH   7   8
ATOM      8  C   UNL     1      45.624  10.786  11.776  0.00  0.00    +0.000 C 
BRANCH   8  10
ATOM      9  C   UNL     1      44.858  12.036   9.744  0.00  0.00    +0.000 C 
ATOM     10  C   UNL     1      44.988  12.074  11.257  0.00  0.00    +0.000 C 
ENDBRANCH   8  10
ENDBRANCH   7   8
ENDBRANCH   1   7
BRANCH   3  11
ATOM     11  C   UNL     1      44.523   4.540  11.894  0.00  0.00    +0.000 C 
BRANCH  11  12
ATOM     12  C   UNL     1      43.914   4.500  10.488  0.00  0.00    +0.000 C 
BRANCH  12  13
ATOM     13  C   UNL     1      44.792   3.797   9.492  0.00  0.00    +0.000 A 
ATOM     14  C   UNL     1      45.493   4.519   8.521  0.00  0.00    +0.000 A 
ATOM     15  C   UNL     1      46.341   3.849   7.647  0.00  0.00    +0.000 A 
ATOM     16  C   UNL     1      46.453   2.473   7.772  0.00  0.00    +0.000 A 
ATOM     17  N   UNL     1      45.776   1.732   8.690  0.00  0.00    +0.000 NA
ATOM     18  C   UNL     1      44.962   2.416   9.528  0.00  0.00    +0.000 A 
BRANCH  16  19
ATOM     19  C   UNL     1      47.382   1.725   6.865  0.00  0.00    +0.000 C 
ATOM     20  N   UNL     1      48.487   2.424   6.457  0.00  0.00    +0.000 N 
ATOM     21  O   UNL     1      47.180   0.575   6.512  0.00  0.00    +0.000 OA
ATOM     22  H   UNL     1      48.610   3.385   6.776  0.00  0.00    +0.000 HD
ATOM     23  H   UNL     1      49.153   1.996   5.839  0.00  0.00    +0.000 HD
ENDBRANCH  16  19
ENDBRANCH  12  13
ENDBRANCH  11  12
ENDBRANCH   3  11
BRANCH   5  24
ATOM     24  S   UNL     1      48.718   7.036  13.888  0.00  0.00    +0.000 S 
BRANCH  24  25
ATOM     25  C   UNL     1      49.712   8.311  12.981  0.00  0.00    +0.000 C 
ATOM     26  C   UNL     1      49.729   8.219  11.464  0.00  0.00    +0.000 C 
ATOM     27  C   UNL     1      51.091   7.645  11.124  0.00  0.00    +0.000 C 
ATOM     28  N   UNL     1      52.003   8.030  12.205  0.00  0.00    +0.000 NA
ATOM     29  C   UNL     1      51.185   8.434  13.364  0.00  0.00    +0.000 C 
ATOM     30  H   UNL     1      52.568   8.826  11.906  0.00  0.00    +0.000 HD
ENDBRANCH  24  25
ENDBRANCH   5  24
TORSDOF 9
ENDMDL
MODEL 7
REMARK VINA RESULT:    -6.862      2.245      4.253
REMARK INTER + INTRA:         -11.640
REMARK INTER:                 -10.641
REMARK INTRA:                  -0.999
REMARK UNBOUND:                -1.168
REMARK  Name = 
REMARK  10 active torsions:
REMARK  status: ('A' for Active; 'I' for Inactive)
REMARK    1  A    between atoms: C_1  and  C_2
REMARK    2  A    between atoms: C_2  and  C_3
REMARK    3  A    between atoms: C_3  and  C_4
REMARK    4  A    between atoms: C_4  and  C_5
REMARK    5  A    between atoms: C_7  and  C_8
REMARK    6  A    between atoms: C_8  and  C_9
REMARK    7  A    between atoms: C_9  and  C_10
REMARK    8  A    between atoms: C_13  and  C_14
REMARK    9  A    between atoms: C_20  and  S_21
REMARK   10  A    between atoms: S_21  and  C_22
REMARK                            x       y       z     vdW  Elec       q    Type
REMARK                         _______ _______ _______ _____ _____    ______ ____
ROOT
ATOM      1  C   UNL     1      45.597   8.581  11.887  0.00  0.00    +0.000 A 
ATOM      2  C   UNL     1      44.928   7.354  11.820  0.00  0.00    +0.000 A 
ATOM      3  C   UNL     1      45.600   6.150  12.057  0.00  0.00    +0.000 A 
ATOM      4  C   UNL     1      46.952   6.200  12.417  0.00  0.00    +0.000 A 
ATOM      5  C   UNL     1      47.672   7.392  12.363  0.00  0.00    +0.000 A 
ATOM      6  C   UNL     1      46.977   8.586  12.141  0.00  0.00    +0.000 A 
ENDROOT
BRANCH   1   7
ATOM      7  C   UNL     1      44.820   9.863  11.708  0.00  0.00    +0.000 C 
BRANCH   7   8
ATOM      8  C   UNL     1      43.574   9.683  10.845  0.00  0.00    +0.000 C 
BRANCH   8  10
ATOM      9  C   UNL     1      41.876  11.083   9.646  0.00  0.00    +0.000 C 
ATOM     10  C   UNL     1      43.357  10.878   9.918  0.00  0.00    +0.000 C 
ENDBRANCH   8  10
ENDBRANCH   7   8
ENDBRANCH   1   7
BRANCH   3  11
ATOM     11  C   UNL     1      44.922   4.805  11.937  0.00  0.00    +0.000 C 
BRANCH  11  12
ATOM     12  C   UNL     1      44.185   4.635  10.604  0.00  0.00    +0.000 C 
BRANCH  12  13
ATOM     13  C   UNL     1      45.037   3.995   9.544  0.00  0.00    +0.000 A 
ATOM     14  C   UNL     1      45.110   2.603   9.429  0.00  0.00    +0.000 A 
ATOM     15  C   UNL     1      45.863   2.038   8.405  0.00  0.00    +0.000 A 
ATOM     16  C   UNL     1      46.522   2.891   7.533  0.00  0.00    +0.000 A 
ATOM     17  N   UNL     1      46.491   4.247   7.621  0.00  0.00    +0.000 NA
ATOM     18  C   UNL     1      45.747   4.764   8.627  0.00  0.00    +0.000 A 
BRANCH  16  19
ATOM     19  C   UNL     1      47.317   2.314   6.401  0.00  0.00    +0.000 C 
ATOM     20  N   UNL     1      47.305   3.051   5.246  0.00  0.00    +0.000 N 
ATOM     21  O   UNL     1      47.935   1.267   6.491  0.00  0.00    +0.000 OA
ATOM     22  H   UNL     1      46.770   3.918   5.218  0.00  0.00    +0.000 HD
ATOM     23  H   UNL     1      47.805   2.726   4.438  0.00  0.00    +0.000 HD
ENDBRANCH  16  19
ENDBRANCH  12  13
ENDBRANCH  11  12
ENDBRANCH   3  11
BRANCH   5  24
ATOM     24  S   UNL     1      49.430   7.447  12.646  0.00  0.00    +0.000 S 
BRANCH  24  25
ATOM     25  C   UNL     1      49.628   8.068  14.381  0.00  0.00    +0.000 C 
ATOM     26  C   UNL     1      50.507   7.246  15.310  0.00  0.00    +0.000 C 
ATOM     27  C   UNL     1      49.539   6.514  16.217  0.00  0.00    +0.000 C 
ATOM     28  N   UNL     1      48.326   7.333  16.303  0.00  0.00    +0.000 NA
ATOM     29  C   UNL     1      48.346   8.290  15.181  0.00  0.00    +0.000 C 
ATOM     30  H   UNL     1      48.328   7.853  17.181  0.00  0.00    +0.000 HD
ENDBRANCH  24  25
ENDBRANCH   5  24
TORSDOF 9
ENDMDL
MODEL 8
REMARK VINA RESULT:    -6.308      3.303      5.807
REMARK INTER + INTRA:         -10.794
REMARK INTER:                  -9.597
REMARK INTRA:                  -1.198
REMARK UNBOUND:                -1.168
REMARK  Name = 
REMARK  10 active torsions:
REMARK  status: ('A' for Active; 'I' for Inactive)
REMARK    1  A    between atoms: C_1  and  C_2
REMARK    2  A    between atoms: C_2  and  C_3
REMARK    3  A    between atoms: C_3  and  C_4
REMARK    4  A    between atoms: C_4  and  C_5
REMARK    5  A    between atoms: C_7  and  C_8
REMARK    6  A    between atoms: C_8  and  C_9
REMARK    7  A    between atoms: C_9  and  C_10
REMARK    8  A    between atoms: C_13  and  C_14
REMARK    9  A    between atoms: C_20  and  S_21
REMARK   10  A    between atoms: S_21  and  C_22
REMARK                            x       y       z     vdW  Elec       q    Type
REMARK                         _______ _______ _______ _____ _____    ______ ____
ROOT
ATOM      1  C   UNL     1      48.479   9.007  16.629  0.00  0.00    +0.000 A 
ATOM      2  C   UNL     1      48.067   8.863  15.300  0.00  0.00    +0.000 A 
ATOM      3  C   UNL     1      48.307   7.681  14.592  0.00  0.00    +0.000 A 
ATOM      4  C   UNL     1      48.927   6.618  15.259  0.00  0.00    +0.000 A 
ATOM      5  C   UNL     1      49.463   6.777  16.536  0.00  0.00    +0.000 A 
ATOM      6  C   UNL     1      49.196   7.961  17.232  0.00  0.00    +0.000 A 
ENDROOT
BRANCH   1   7
ATOM      7  C   UNL     1      48.127  10.265  17.387  0.00  0.00    +0.000 C 
BRANCH   7   8
ATOM      8  C   UNL     1      47.722   9.988  18.832  0.00  0.00    +0.000 C 
BRANCH   8  10
ATOM      9  C   UNL     1      45.882  10.677  20.388  0.00  0.00    +0.000 C 
ATOM     10  C   UNL     1      46.960  11.166  19.436  0.00  0.00    +0.000 C 
ENDBRANCH   8  10
ENDBRANCH   7   8
ENDBRANCH   1   7
BRANCH   3  11
ATOM     11  C   UNL     1      47.927   7.514  13.139  0.00  0.00    +0.000 C 
BRANCH  11  12
ATOM     12  C   UNL     1      46.428   7.721  12.895  0.00  0.00    +0.000 C 
BRANCH  12  13
ATOM     13  C   UNL     1      45.749   6.493  12.359  0.00  0.00    +0.000 A 
ATOM     14  C   UNL     1      45.801   6.183  10.997  0.00  0.00    +0.000 A 
ATOM     15  C   UNL     1      45.211   5.012  10.536  0.00  0.00    +0.000 A 
ATOM     16  C   UNL     1      44.581   4.191  11.460  0.00  0.00    +0.000 A 
ATOM     17  N   UNL     1      44.493   4.464  12.789  0.00  0.00    +0.000 NA
ATOM     18  C   UNL     1      45.081   5.611  13.204  0.00  0.00    +0.000 A 
BRANCH  16  19
ATOM     19  C   UNL     1      43.962   2.906  11.001  0.00  0.00    +0.000 C 
ATOM     20  N   UNL     1      44.586   2.305   9.940  0.00  0.00    +0.000 N 
ATOM     21  O   UNL     1      42.975   2.421  11.527  0.00  0.00    +0.000 OA
ATOM     22  H   UNL     1      45.407   2.751   9.531  0.00  0.00    +0.000 HD
ATOM     23  H   UNL     1      44.226   1.445   9.567  0.00  0.00    +0.000 HD
ENDBRANCH  16  19
ENDBRANCH  12  13
ENDBRANCH  11  12
ENDBRANCH   3  11
BRANCH   5  24
ATOM     24  S   UNL     1      50.407   5.493  17.331  0.00  0.00    +0.000 S 
BRANCH  24  25
ATOM     25  C   UNL     1      49.153   4.382  18.122  0.00  0.00    +0.000 C 
ATOM     26  C   UNL     1      48.488   3.348  17.227  0.00  0.00    +0.000 C 
ATOM     27  C   UNL     1      47.098   3.895  16.966  0.00  0.00    +0.000 C 
ATOM     28  N   UNL     1      46.744   4.736  18.113  0.00  0.00    +0.000 NA
ATOM     29  C   UNL     1      47.987   5.062  18.837  0.00  0.00    +0.000 C 
ATOM     30  H   UNL     1      46.124   4.218  18.737  0.00  0.00    +0.000 HD
ENDBRANCH  24  25
ENDBRANCH   5  24
TORSDOF 9
ENDMDL
MODEL 9
REMARK VINA RESULT:    -6.087      3.566      8.281
REMARK INTER + INTRA:         -10.456
REMARK INTER:                  -9.454
REMARK INTRA:                  -1.003
REMARK UNBOUND:                -1.168
REMARK  Name = 
REMARK  10 active torsions:
REMARK  status: ('A' for Active; 'I' for Inactive)
REMARK    1  A    between atoms: C_1  and  C_2
REMARK    2  A    between atoms: C_2  and  C_3
REMARK    3  A    between atoms: C_3  and  C_4
REMARK    4  A    between atoms: C_4  and  C_5
REMARK    5  A    between atoms: C_7  and  C_8
REMARK    6  A    between atoms: C_8  and  C_9
REMARK    7  A    between atoms: C_9  and  C_10
REMARK    8  A    between atoms: C_13  and  C_14
REMARK    9  A    between atoms: C_20  and  S_21
REMARK   10  A    between atoms: S_21  and  C_22
REMARK                            x       y       z     vdW  Elec       q    Type
REMARK                         _______ _______ _______ _____ _____    ______ ____
ROOT
ATOM      1  C   UNL     1      45.521   9.398  11.799  0.00  0.00    +0.000 A 
ATOM      2  C   UNL     1      46.829   9.095  12.191  0.00  0.00    +0.000 A 
ATOM      3  C   UNL     1      47.299   7.778  12.180  0.00  0.00    +0.000 A 
ATOM      4  C   UNL     1      46.448   6.767  11.717  0.00  0.00    +0.000 A 
ATOM      5  C   UNL     1      45.104   7.021  11.446  0.00  0.00    +0.000 A 
ATOM      6  C   UNL     1      44.659   8.347  11.446  0.00  0.00    +0.000 A 
ENDROOT
BRANCH   1   7
ATOM      7  C   UNL     1      45.075  10.840  11.742  0.00  0.00    +0.000 C 
BRANCH   7   8
ATOM      8  C   UNL     1      46.243  11.813  11.610  0.00  0.00    +0.000 C 
BRANCH   8  10
ATOM      9  C   UNL     1      45.362  12.418   9.343  0.00  0.00    +0.000 C 
ATOM     10  C   UNL     1      46.601  12.063  10.146  0.00  0.00    +0.000 C 
ENDBRANCH   8  10
ENDBRANCH   7   8
ENDBRANCH   1   7
BRANCH   3  11
ATOM     11  C   UNL     1      48.687   7.408  12.651  0.00  0.00    +0.000 C 
BRANCH  11  12
ATOM     12  C   UNL     1      48.928   7.776  14.120  0.00  0.00    +0.000 C 
BRANCH  12  13
ATOM     13  C   UNL     1      48.611   6.650  15.063  0.00  0.00    +0.000 A 
ATOM     14  C   UNL     1      49.103   6.652  16.371  0.00  0.00    +0.000 A 
ATOM     15  C   UNL     1      48.750   5.626  17.239  0.00  0.00    +0.000 A 
ATOM     16  C   UNL     1      47.916   4.626  16.762  0.00  0.00    +0.000 A 
ATOM     17  N   UNL     1      47.430   4.577  15.493  0.00  0.00    +0.000 NA
ATOM     18  C   UNL     1      47.791   5.594  14.675  0.00  0.00    +0.000 A 
BRANCH  16  19
ATOM     19  C   UNL     1      47.492   3.521  17.681  0.00  0.00    +0.000 C 
ATOM     20  N   UNL     1      48.222   3.410  18.835  0.00  0.00    +0.000 N 
ATOM     21  O   UNL     1      46.563   2.771  17.432  0.00  0.00    +0.000 OA
ATOM     22  H   UNL     1      48.993   4.057  18.997  0.00  0.00    +0.000 HD
ATOM     23  H   UNL     1      48.007   2.687  19.498  0.00  0.00    +0.000 HD
ENDBRANCH  16  19
ENDBRANCH  12  13
ENDBRANCH  11  12
ENDBRANCH   3  11
BRANCH   5  24
ATOM     24  S   UNL     1      43.963   5.719  11.026  0.00  0.00    +0.000 S 
BRANCH  24  25
ATOM     25  C   UNL     1      45.006   4.371  10.297  0.00  0.00    +0.000 C 
ATOM     26  C   UNL     1      45.592   4.625   8.918  0.00  0.00    +0.000 C 
ATOM     27  C   UNL     1      44.747   3.792   7.975  0.00  0.00    +0.000 C 
ATOM     28  N   UNL     1      44.227   2.661   8.749  0.00  0.00    +0.000 NA
ATOM     29  C   UNL     1      44.361   2.992  10.180  0.00  0.00    +0.000 C 
ATOM     30  H   UNL     1      44.781   1.827   8.549  0.00  0.00    +0.000 HD
ENDBRANCH  24  25
ENDBRANCH   5  24
TORSDOF 9
ENDMDL
