MODEL 1
REMARK VINA RESULT:    -9.245      0.000      0.000
REMARK INTER + INTRA:         -13.433
REMARK INTER:                 -12.488
REMARK INTRA:                  -0.944
REMARK UNBOUND:                -0.944
REMARK  Name = 
REMARK  6 active torsions:
REMARK  status: ('A' for Active; 'I' for Inactive)
REMARK    1  A    between atoms: C_2  and  C_4
REMARK    2  A    between atoms: C_7  and  C_8
REMARK    3  A    between atoms: C_8  and  C_9
REMARK    4  A    between atoms: C_12  and  C_13
REMARK    5  A    between atoms: C_13  and  N_14
REMARK    6  A    between atoms: C_15  and  C_17
REMARK                            x       y       z     vdW  Elec       q    Type
REMARK                         _______ _______ _______ _____ _____    ______ ____
ROOT
ATOM      1  C   UNL     1      44.722   5.722  11.159  0.00  0.00    +0.000 A 
ATOM      2  C   UNL     1      44.339   7.042  11.382  0.00  0.00    +0.000 A 
ATOM      3  C   UNL     1      45.140   7.852  12.185  0.00  0.00    +0.000 A 
ATOM      4  C   UNL     1      46.303   7.333  12.759  0.00  0.00    +0.000 A 
ATOM      5  C   UNL     1      46.607   6.005  12.482  0.00  0.00    +0.000 A 
ATOM      6  N   UNL     1      45.847   5.193  11.709  0.00  0.00    +0.000 NA
ENDROOT
BRANCH   1   7
ATOM      7  C   UNL     1      43.922   4.839  10.225  0.00  0.00    +0.000 C 
BRANCH   7  11
ATOM      8  C   UNL     1      46.387   2.302   7.726  0.00  0.00    +0.000 A 
ATOM      9  C   UNL     1      45.567   1.738   8.708  0.00  0.00    +0.000 A 
ATOM     10  C   UNL     1      44.765   2.562   9.503  0.00  0.00    +0.000 A 
ATOM     11  C   UNL     1      44.781   3.956   9.340  0.00  0.00    +0.000 A 
ATOM     12  C   UNL     1      45.604   4.512   8.351  0.00  0.00    +0.000 A 
ATOM     13  C   UNL     1      46.407   3.690   7.553  0.00  0.00    +0.000 A 
BRANCH   8  15
ATOM     14  N   UNL     1      48.346   2.082   6.295  0.00  0.00    +0.000 N 
ATOM     15  C   UNL     1      47.270   1.467   6.872  0.00  0.00    +0.000 C 
ATOM     16  O   UNL     1      47.068   0.269   6.712  0.00  0.00    +0.000 OA
ATOM     17  H   UNL     1      49.002   1.481   5.810  0.00  0.00    +0.000 HD
ATOM     18  H   UNL     1      48.678   2.986   6.600  0.00  0.00    +0.000 HD
ENDBRANCH   8  15
ENDBRANCH   7  11
ENDBRANCH   1   7
BRANCH   4  19
ATOM     19  C   UNL     1      47.225   8.190  13.574  0.00  0.00    +0.000 C 
BRANCH  19  20
ATOM     20  N   UNL     1      47.653   7.497  14.765  0.00  0.00    +0.000 N 
ATOM     21  C   UNL     1      48.888   6.913  14.857  0.00  0.00    +0.000 C 
ATOM     22  O   UNL     1      49.711   6.985  13.947  0.00  0.00    +0.000 OA
ATOM     23  H   UNL     1      46.924   7.215  15.414  0.00  0.00    +0.000 HD
BRANCH  21  24
ATOM     24  C   UNL     1      49.200   6.250  16.129  0.00  0.00    +0.000 A 
ATOM     25  C   UNL     1      50.225   6.741  16.930  0.00  0.00    +0.000 A 
ATOM     26  S   UNL     1      50.406   5.899  18.402  0.00  0.00    +0.000 S 
ATOM     27  C   UNL     1      49.160   4.812  17.997  0.00  0.00    +0.000 A 
ATOM     28  N   UNL     1      48.812   3.802  18.837  0.00  0.00    +0.000 NA
ATOM     29  C   UNL     1      47.874   3.035  18.391  0.00  0.00    +0.000 A 
ATOM     30  N   UNL     1      47.247   3.191  17.181  0.00  0.00    +0.000 N 
ATOM     31  C   UNL     1      47.549   4.211  16.312  0.00  0.00    +0.000 A 
ATOM     32  O   UNL     1      46.948   4.343  15.249  0.00  0.00    +0.000 OA
ATOM     33  C   UNL     1      48.604   5.098  16.763  0.00  0.00    +0.000 A 
ATOM     34  H   UNL     1      46.515   2.558  16.893  0.00  0.00    +0.000 HD
ENDBRANCH  21  24
ENDBRANCH  19  20
ENDBRANCH   4  19
TORSDOF 6
ENDMDL
MODEL 2
REMARK VINA RESULT:    -8.167      1.699      2.056
REMARK INTER + INTRA:         -11.976
REMARK INTER:                 -10.885
REMARK INTRA:                  -1.091
REMARK UNBOUND:                -0.944
REMARK  Name = 
REMARK  6 active torsions:
REMARK  status: ('A' for Active; 'I' for Inactive)
REMARK    1  A    between atoms: C_2  and  C_4
REMARK    2  A    between atoms: C_7  and  C_8
REMARK    3  A    between atoms: C_8  and  C_9
REMARK    4  A    between atoms: C_12  and  C_13
REMARK    5  A    between atoms: C_13  and  N_14
REMARK    6  A    between atoms: C_15  and  C_17
REMARK                            x       y       z     vdW  Elec       q    Type
REMARK                         _______ _______ _______ _____ _____    ______ ____
ROOT
ATOM      1  C   UNL     1      45.064   5.885  11.303  0.00  0.00    +0.000 A 
ATOM      2  C   UNL     1      46.247   5.601  11.981  0.00  0.00    +0.000 A 
ATOM      3  C   UNL     1      46.890   6.623  12.678  0.00  0.00    +0.000 A 
ATOM      4  C   UNL     1      46.350   7.912  12.679  0.00  0.00    +0.000 A 
ATOM      5  C   UNL     1      45.168   8.104  11.975  0.00  0.00    +0.000 A 
ATOM      6  N   UNL     1      44.522   7.131  11.287  0.00  0.00    +0.000 NA
ENDROOT
BRANCH   1   7
ATOM      7  C   UNL     1      44.295   4.781  10.608  0.00  0.00    +0.000 C 
BRANCH   7  11
ATOM      8  C   UNL     1      46.533   2.840   7.448  0.00  0.00    +0.000 A 
ATOM      9  C   UNL     1      45.742   2.082   8.318  0.00  0.00    +0.000 A 
ATOM     10  C   UNL     1      45.014   2.717   9.328  0.00  0.00    +0.000 A 
ATOM     11  C   UNL     1      45.074   4.109   9.494  0.00  0.00    +0.000 A 
ATOM     12  C   UNL     1      45.867   4.861   8.615  0.00  0.00    +0.000 A 
ATOM     13  C   UNL     1      46.597   4.229   7.603  0.00  0.00    +0.000 A 
BRANCH   8  15
ATOM     14  N   UNL     1      47.508   2.917   5.217  0.00  0.00    +0.000 N 
ATOM     15  C   UNL     1      47.339   2.206   6.373  0.00  0.00    +0.000 C 
ATOM     16  O   UNL     1      47.861   1.108   6.521  0.00  0.00    +0.000 OA
ATOM     17  H   UNL     1      48.151   2.526   4.539  0.00  0.00    +0.000 HD
ATOM     18  H   UNL     1      47.310   3.905   5.158  0.00  0.00    +0.000 HD
ENDBRANCH   8  15
ENDBRANCH   7  11
ENDBRANCH   1   7
BRANCH   4  19
ATOM     19  C   UNL     1      46.975   9.023  13.469  0.00  0.00    +0.000 C 
BRANCH  19  20
ATOM     20  N   UNL     1      47.293   8.586  14.807  0.00  0.00    +0.000 N 
ATOM     21  C   UNL     1      48.280   9.183  15.546  0.00  0.00    +0.000 C 
ATOM     22  O   UNL     1      48.917  10.146  15.125  0.00  0.00    +0.000 OA
ATOM     23  H   UNL     1      46.967   7.663  15.075  0.00  0.00    +0.000 HD
BRANCH  21  24
ATOM     24  C   UNL     1      48.494   8.648  16.897  0.00  0.00    +0.000 A 
ATOM     25  C   UNL     1      48.381   9.490  17.998  0.00  0.00    +0.000 A 
ATOM     26  S   UNL     1      48.588   8.693  19.492  0.00  0.00    +0.000 S 
ATOM     27  C   UNL     1      48.892   7.207  18.719  0.00  0.00    +0.000 A 
ATOM     28  N   UNL     1      49.171   6.088  19.440  0.00  0.00    +0.000 NA
ATOM     29  C   UNL     1      49.411   5.039  18.726  0.00  0.00    +0.000 A 
ATOM     30  N   UNL     1      49.393   5.006  17.356  0.00  0.00    +0.000 N 
ATOM     31  C   UNL     1      49.092   6.106  16.588  0.00  0.00    +0.000 A 
ATOM     32  O   UNL     1      49.053   6.038  15.363  0.00  0.00    +0.000 OA
ATOM     33  C   UNL     1      48.821   7.315  17.342  0.00  0.00    +0.000 A 
ATOM     34  H   UNL     1      49.585   4.150  16.856  0.00  0.00    +0.000 HD
ENDBRANCH  21  24
ENDBRANCH  19  20
ENDBRANCH   4  19
TORSDOF 6
ENDMDL
MODEL 3
REMARK VINA RESULT:    -8.161      2.151      2.518
REMARK INTER + INTRA:         -11.967
REMARK INTER:                 -11.043
REMARK INTRA:                  -0.924
REMARK UNBOUND:                -0.944
REMARK  Name = 
REMARK  6 active torsions:
REMARK  status: ('A' for Active; 'I' for Inactive)
REMARK    1  A    between atoms: C_2  and  C_4
REMARK    2  A    between atoms: C_7  and  C_8
REMARK    3  A    between atoms: C_8  and  C_9
REMARK    4  A    between atoms: C_12  and  C_13
REMARK    5  A    between atoms: C_13  and  N_14
REMARK    6  A    between atoms: C_15  and  C_17
REMARK                            x       y       z     vdW  Elec       q    Type
REMARK                         _______ _______ _______ _____ _____    ______ ____
ROOT
ATOM      1  C   UNL     1      45.384   5.332  11.791  0.00  0.00    +0.000 A 
ATOM      2  C   UNL     1      45.715   6.659  11.525  0.00  0.00    +0.000 A 
ATOM      3  C   UNL     1      46.635   7.304  12.349  0.00  0.00    +0.000 A 
ATOM      4  C   UNL     1      47.203   6.622  13.428  0.00  0.00    +0.000 A 
ATOM      5  C   UNL     1      46.814   5.302  13.618  0.00  0.00    +0.000 A 
ATOM      6  N   UNL     1      45.921   4.649  12.836  0.00  0.00    +0.000 NA
ENDROOT
BRANCH   1   7
ATOM      7  C   UNL     1      44.453   4.575  10.867  0.00  0.00    +0.000 C 
BRANCH   7  11
ATOM      8  C   UNL     1      46.465   2.826   7.453  0.00  0.00    +0.000 A 
ATOM      9  C   UNL     1      45.799   2.009   8.372  0.00  0.00    +0.000 A 
ATOM     10  C   UNL     1      45.142   2.581   9.465  0.00  0.00    +0.000 A 
ATOM     11  C   UNL     1      45.152   3.971   9.665  0.00  0.00    +0.000 A 
ATOM     12  C   UNL     1      45.820   4.782   8.738  0.00  0.00    +0.000 A 
ATOM     13  C   UNL     1      46.478   4.213   7.642  0.00  0.00    +0.000 A 
BRANCH   8  15
ATOM     14  N   UNL     1      47.152   2.972   5.121  0.00  0.00    +0.000 N 
ATOM     15  C   UNL     1      47.192   2.261   6.289  0.00  0.00    +0.000 C 
ATOM     16  O   UNL     1      47.831   1.219   6.371  0.00  0.00    +0.000 OA
ATOM     17  H   UNL     1      47.743   2.636   4.370  0.00  0.00    +0.000 HD
ATOM     18  H   UNL     1      46.854   3.936   5.087  0.00  0.00    +0.000 HD
ENDBRANCH   8  15
ENDBRANCH   7  11
ENDBRANCH   1   7
BRANCH   4  19
ATOM     19  C   UNL     1      48.246   7.260  14.298  0.00  0.00    +0.000 C 
BRANCH  19  20
ATOM     20  N   UNL     1      48.101   6.836  15.669  0.00  0.00    +0.000 N 
ATOM     21  C   UNL     1      49.151   6.318  16.379  0.00  0.00    +0.000 C 
ATOM     22  O   UNL     1      50.280   6.227  15.900  0.00  0.00    +0.000 OA
ATOM     23  H   UNL     1      47.155   6.671  15.998  0.00  0.00    +0.000 HD
BRANCH  21  24
ATOM     24  C   UNL     1      48.871   5.936  17.769  0.00  0.00    +0.000 A 
ATOM     25  C   UNL     1      49.155   4.645  18.200  0.00  0.00    +0.000 A 
ATOM     26  S   UNL     1      48.837   4.392  19.857  0.00  0.00    +0.000 S 
ATOM     27  C   UNL     1      48.254   5.980  20.043  0.00  0.00    +0.000 A 
ATOM     28  N   UNL     1      47.791   6.418  21.245  0.00  0.00    +0.000 NA
ATOM     29  C   UNL     1      47.351   7.632  21.236  0.00  0.00    +0.000 A 
ATOM     30  N   UNL     1      47.336   8.450  20.136  0.00  0.00    +0.000 N 
ATOM     31  C   UNL     1      47.816   8.058  18.909  0.00  0.00    +0.000 A 
ATOM     32  O   UNL     1      47.818   8.823  17.949  0.00  0.00    +0.000 OA
ATOM     33  C   UNL     1      48.316   6.697  18.862  0.00  0.00    +0.000 A 
ATOM     34  H   UNL     1      46.982   9.394  20.197  0.00  0.00    +0.000 HD
ENDBRANCH  21  24
ENDBRANCH  19  20
ENDBRANCH   4  19
TORSDOF 6
ENDMDL
MODEL 4
REMARK VINA RESULT:    -7.890      1.773      2.305
REMARK INTER + INTRA:         -11.602
REMARK INTER:                 -10.731
REMARK INTRA:                  -0.871
REMARK UNBOUND:                -0.944
REMARK  Name = 
REMARK  6 active torsions:
REMARK  status: ('A' for Active; 'I' for Inactive)
REMARK    1  A    between atoms: C_2  and  C_4
REMARK    2  A    between atoms: C_7  and  C_8
REMARK    3  A    between atoms: C_8  and  C_9
REMARK    4  A    between atoms: C_12  and  C_13
REMARK    5  A    between atoms: C_13  and  N_14
REMARK    6  A    between atoms: C_15  and  C_17
REMARK                            x       y       z     vdW  Elec       q    Type
REMARK                         _______ _______ _______ _____ _____    ______ ____
ROOT
ATOM      1  C   UNL     1      44.984   5.609  11.384  0.00  0.00    +0.000 A 
ATOM      2  C   UNL     1      44.828   6.991  11.453  0.00  0.00    +0.000 A 
ATOM      3  C   UNL     1      45.651   7.723  12.308  0.00  0.00    +0.000 A 
ATOM      4  C   UNL     1      46.608   7.065  13.085  0.00  0.00    +0.000 A 
ATOM      5  C   UNL     1      46.692   5.685  12.952  0.00  0.00    +0.000 A 
ATOM      6  N   UNL     1      45.905   4.948  12.133  0.00  0.00    +0.000 NA
ENDROOT
BRANCH   1   7
ATOM      7  C   UNL     1      44.165   4.793  10.405  0.00  0.00    +0.000 C 
BRANCH   7  11
ATOM      8  C   UNL     1      46.569   2.756   7.433  0.00  0.00    +0.000 A 
ATOM      9  C   UNL     1      45.808   2.020   8.347  0.00  0.00    +0.000 A 
ATOM     10  C   UNL     1      45.026   2.685   9.296  0.00  0.00    +0.000 A 
ATOM     11  C   UNL     1      45.002   4.087   9.356  0.00  0.00    +0.000 A 
ATOM     12  C   UNL     1      45.765   4.816   8.434  0.00  0.00    +0.000 A 
ATOM     13  C   UNL     1      46.549   4.155   7.483  0.00  0.00    +0.000 A 
BRANCH   8  15
ATOM     14  N   UNL     1      47.796   2.832   5.330  0.00  0.00    +0.000 N 
ATOM     15  C   UNL     1      47.430   2.093   6.421  0.00  0.00    +0.000 C 
ATOM     16  O   UNL     1      47.827   0.943   6.566  0.00  0.00    +0.000 OA
ATOM     17  H   UNL     1      48.472   2.409   4.707  0.00  0.00    +0.000 HD
ATOM     18  H   UNL     1      47.698   3.837   5.303  0.00  0.00    +0.000 HD
ENDBRANCH   8  15
ENDBRANCH   7  11
ENDBRANCH   1   7
BRANCH   4  19
ATOM     19  C   UNL     1      47.556   7.823  13.967  0.00  0.00    +0.000 C 
BRANCH  19  20
ATOM     20  N   UNL     1      48.059   6.981  15.025  0.00  0.00    +0.000 N 
ATOM     21  C   UNL     1      48.846   7.476  16.030  0.00  0.00    +0.000 C 
ATOM     22  O   UNL     1      49.129   8.669  16.107  0.00  0.00    +0.000 OA
ATOM     23  H   UNL     1      48.050   5.980  14.854  0.00  0.00    +0.000 HD
BRANCH  21  24
ATOM     24  C   UNL     1      49.281   6.513  17.050  0.00  0.00    +0.000 A 
ATOM     25  C   UNL     1      48.362   6.017  17.967  0.00  0.00    +0.000 A 
ATOM     26  S   UNL     1      49.016   4.857  19.032  0.00  0.00    +0.000 S 
ATOM     27  C   UNL     1      50.564   5.018  18.343  0.00  0.00    +0.000 A 
ATOM     28  N   UNL     1      51.618   4.301  18.817  0.00  0.00    +0.000 NA
ATOM     29  C   UNL     1      52.739   4.544  18.222  0.00  0.00    +0.000 A 
ATOM     30  N   UNL     1      52.900   5.436  17.193  0.00  0.00    +0.000 N 
ATOM     31  C   UNL     1      51.859   6.163  16.667  0.00  0.00    +0.000 A 
ATOM     32  O   UNL     1      52.028   6.931  15.724  0.00  0.00    +0.000 OA
ATOM     33  C   UNL     1      50.577   5.932  17.305  0.00  0.00    +0.000 A 
ATOM     34  H   UNL     1      53.804   5.576  16.767  0.00  0.00    +0.000 HD
ENDBRANCH  21  24
ENDBRANCH  19  20
ENDBRANCH   4  19
TORSDOF 6
ENDMDL
MODEL 5
REMARK VINA RESULT:    -7.869      2.786      3.543
REMARK INTER + INTRA:         -11.573
REMARK INTER:                 -10.505
REMARK INTRA:                  -1.069
REMARK UNBOUND:                -0.944
REMARK  Name = 
REMARK  6 active torsions:
REMARK  status: ('A' for Active; 'I' for Inactive)
REMARK    1  A    between atoms: C_2  and  C_4
REMARK    2  A    between atoms: C_7  and  C_8
REMARK    3  A    between atoms: C_8  and  C_9
REMARK    4  A    between atoms: C_12  and  C_13
REMARK    5  A    between atoms: C_13  and  N_14
REMARK    6  A    between atoms: C_15  and  C_17
REMARK                            x       y       z     vdW  Elec       q    Type
REMARK                         _______ _______ _______ _____ _____    ______ ____
ROOT
ATOM      1  C   UNL     1      45.264   4.536  11.915  0.00  0.00    +0.000 A 
ATOM      2  C   UNL     1      45.755   5.824  12.113  0.00  0.00    +0.000 A 
ATOM      3  C   UNL     1      46.625   6.060  13.176  0.00  0.00    +0.000 A 
ATOM      4  C   UNL     1      46.983   5.013  14.029  0.00  0.00    +0.000 A 
ATOM      5  C   UNL     1      46.444   3.762  13.756  0.00  0.00    +0.000 A 
ATOM      6  N   UNL     1      45.595   3.503  12.733  0.00  0.00    +0.000 NA
ENDROOT
BRANCH   1   7
ATOM      7  C   UNL     1      44.385   4.227  10.721  0.00  0.00    +0.000 C 
BRANCH   7  11
ATOM      8  C   UNL     1      46.600   2.736   7.311  0.00  0.00    +0.000 A 
ATOM      9  C   UNL     1      46.036   1.843   8.228  0.00  0.00    +0.000 A 
ATOM     10  C   UNL     1      45.313   2.331   9.320  0.00  0.00    +0.000 A 
ATOM     11  C   UNL     1      45.154   3.712   9.520  0.00  0.00    +0.000 A 
ATOM     12  C   UNL     1      45.719   4.599   8.594  0.00  0.00    +0.000 A 
ATOM     13  C   UNL     1      46.443   4.114   7.499  0.00  0.00    +0.000 A 
BRANCH   8  15
ATOM     14  N   UNL     1      47.210   2.916   4.959  0.00  0.00    +0.000 N 
ATOM     15  C   UNL     1      47.392   2.263   6.147  0.00  0.00    +0.000 C 
ATOM     16  O   UNL     1      48.202   1.349   6.247  0.00  0.00    +0.000 OA
ATOM     17  H   UNL     1      47.836   2.661   4.205  0.00  0.00    +0.000 HD
ATOM     18  H   UNL     1      46.751   3.813   4.903  0.00  0.00    +0.000 HD
ENDBRANCH   8  15
ENDBRANCH   7  11
ENDBRANCH   1   7
BRANCH   4  19
ATOM     19  C   UNL     1      47.967   5.212  15.144  0.00  0.00    +0.000 C 
BRANCH  19  20
ATOM     20  N   UNL     1      47.991   6.591  15.568  0.00  0.00    +0.000 N 
ATOM     21  C   UNL     1      49.165   7.243  15.838  0.00  0.00    +0.000 C 
ATOM     22  O   UNL     1      50.259   6.702  15.693  0.00  0.00    +0.000 OA
ATOM     23  H   UNL     1      47.121   6.973  15.927  0.00  0.00    +0.000 HD
BRANCH  21  24
ATOM     24  C   UNL     1      49.049   8.647  16.250  0.00  0.00    +0.000 A 
ATOM     25  C   UNL     1      49.613   9.646  15.465  0.00  0.00    +0.000 A 
ATOM     26  S   UNL     1      49.323  11.222  16.050  0.00  0.00    +0.000 S 
ATOM     27  C   UNL     1      48.483  10.623  17.404  0.00  0.00    +0.000 A 
ATOM     28  N   UNL     1      47.975  11.468  18.341  0.00  0.00    +0.000 NA
ATOM     29  C   UNL     1      47.389  10.878  19.329  0.00  0.00    +0.000 A 
ATOM     30  N   UNL     1      47.261   9.519  19.464  0.00  0.00    +0.000 N 
ATOM     31  C   UNL     1      47.737   8.631  18.530  0.00  0.00    +0.000 A 
ATOM     32  O   UNL     1      47.580   7.420  18.662  0.00  0.00    +0.000 OA
ATOM     33  C   UNL     1      48.412   9.242  17.401  0.00  0.00    +0.000 A 
ATOM     34  H   UNL     1      46.786   9.121  20.260  0.00  0.00    +0.000 HD
ENDBRANCH  21  24
ENDBRANCH  19  20
ENDBRANCH   4  19
TORSDOF 6
ENDMDL
MODEL 6
REMARK VINA RESULT:    -7.787      3.468      4.613
REMARK INTER + INTRA:         -11.463
REMARK INTER:                 -10.261
REMARK INTRA:                  -1.202
REMARK UNBOUND:                -0.944
REMARK  Name = 
REMARK  6 active torsions:
REMARK  status: ('A' for Active; 'I' for Inactive)
REMARK    1  A    between atoms: C_2  and  C_4
REMARK    2  A    between atoms: C_7  and  C_8
REMARK    3  A    between atoms: C_8  and  C_9
REMARK    4  A    between atoms: C_12  and  C_13
REMARK    5  A    between atoms: C_13  and  N_14
REMARK    6  A    between atoms: C_15  and  C_17
REMARK                            x       y       z     vdW  Elec       q    Type
REMARK                         _______ _______ _______ _____ _____    ______ ____
ROOT
ATOM      1  C   UNL     1      44.773   5.653  11.343  0.00  0.00    +0.000 A 
ATOM      2  C   UNL     1      44.543   7.025  11.277  0.00  0.00    +0.000 A 
ATOM      3  C   UNL     1      45.347   7.882  12.028  0.00  0.00    +0.000 A 
ATOM      4  C   UNL     1      46.358   7.358  12.837  0.00  0.00    +0.000 A 
ATOM      5  C   UNL     1      46.515   5.978  12.841  0.00  0.00    +0.000 A 
ATOM      6  N   UNL     1      45.748   5.120  12.125  0.00  0.00    +0.000 NA
ENDROOT
BRANCH   1   7
ATOM      7  C   UNL     1      43.976   4.700  10.477  0.00  0.00    +0.000 C 
BRANCH   7  11
ATOM      8  C   UNL     1      46.422   2.427   7.717  0.00  0.00    +0.000 A 
ATOM      9  C   UNL     1      45.632   1.768   8.665  0.00  0.00    +0.000 A 
ATOM     10  C   UNL     1      44.836   2.508   9.544  0.00  0.00    +0.000 A 
ATOM     11  C   UNL     1      44.828   3.911   9.502  0.00  0.00    +0.000 A 
ATOM     12  C   UNL     1      45.621   4.563   8.547  0.00  0.00    +0.000 A 
ATOM     13  C   UNL     1      46.418   3.826   7.665  0.00  0.00    +0.000 A 
BRANCH   8  15
ATOM     14  N   UNL     1      48.316   2.379   6.186  0.00  0.00    +0.000 N 
ATOM     15  C   UNL     1      47.297   1.683   6.776  0.00  0.00    +0.000 C 
ATOM     16  O   UNL     1      47.140   0.488   6.557  0.00  0.00    +0.000 OA
ATOM     17  H   UNL     1      48.972   1.837   5.638  0.00  0.00    +0.000 HD
ATOM     18  H   UNL     1      48.622   3.278   6.528  0.00  0.00    +0.000 HD
ENDBRANCH   8  15
ENDBRANCH   7  11
ENDBRANCH   1   7
BRANCH   4  19
ATOM     19  C   UNL     1      47.285   8.250  13.609  0.00  0.00    +0.000 C 
BRANCH  19  20
ATOM     20  N   UNL     1      48.655   8.035  13.211  0.00  0.00    +0.000 N 
ATOM     21  C   UNL     1      49.208   8.688  12.142  0.00  0.00    +0.000 C 
ATOM     22  O   UNL     1      48.580   9.521  11.492  0.00  0.00    +0.000 OA
ATOM     23  H   UNL     1      49.105   7.195  13.562  0.00  0.00    +0.000 HD
BRANCH  21  24
ATOM     24  C   UNL     1      50.615   8.385  11.852  0.00  0.00    +0.000 A 
ATOM     25  C   UNL     1      50.952   7.735  10.670  0.00  0.00    +0.000 A 
ATOM     26  S   UNL     1      52.631   7.527  10.459  0.00  0.00    +0.000 S 
ATOM     27  C   UNL     1      52.965   8.246  11.964  0.00  0.00    +0.000 A 
ATOM     28  N   UNL     1      54.243   8.366  12.414  0.00  0.00    +0.000 NA
ATOM     29  C   UNL     1      54.349   8.903  13.584  0.00  0.00    +0.000 A 
ATOM     30  N   UNL     1      53.293   9.335  14.344  0.00  0.00    +0.000 N 
ATOM     31  C   UNL     1      51.988   9.256  13.919  0.00  0.00    +0.000 A 
ATOM     32  O   UNL     1      51.065   9.680  14.609  0.00  0.00    +0.000 OA
ATOM     33  C   UNL     1      51.813   8.653  12.612  0.00  0.00    +0.000 A 
ATOM     34  H   UNL     1      53.444   9.751  15.251  0.00  0.00    +0.000 HD
ENDBRANCH  21  24
ENDBRANCH  19  20
ENDBRANCH   4  19
TORSDOF 6
ENDMDL
MODEL 7
REMARK VINA RESULT:    -7.572      3.709      5.503
REMARK INTER + INTRA:         -11.172
REMARK INTER:                 -10.207
REMARK INTRA:                  -0.965
REMARK UNBOUND:                -0.944
REMARK  Name = 
REMARK  6 active torsions:
REMARK  status: ('A' for Active; 'I' for Inactive)
REMARK    1  A    between atoms: C_2  and  C_4
REMARK    2  A    between atoms: C_7  and  C_8
REMARK    3  A    between atoms: C_8  and  C_9
REMARK    4  A    between atoms: C_12  and  C_13
REMARK    5  A    between atoms: C_13  and  N_14
REMARK    6  A    between atoms: C_15  and  C_17
REMARK                            x       y       z     vdW  Elec       q    Type
REMARK                         _______ _______ _______ _____ _____    ______ ____
ROOT
ATOM      1  C   UNL     1      44.683   5.651  11.285  0.00  0.00    +0.000 A 
ATOM      2  C   UNL     1      44.408   7.013  11.203  0.00  0.00    +0.000 A 
ATOM      3  C   UNL     1      45.161   7.902  11.968  0.00  0.00    +0.000 A 
ATOM      4  C   UNL     1      46.168   7.419  12.808  0.00  0.00    +0.000 A 
ATOM      5  C   UNL     1      46.371   6.045  12.826  0.00  0.00    +0.000 A 
ATOM      6  N   UNL     1      45.654   5.157  12.097  0.00  0.00    +0.000 NA
ENDROOT
BRANCH   1   7
ATOM      7  C   UNL     1      43.942   4.665  10.406  0.00  0.00    +0.000 C 
BRANCH   7  11
ATOM      8  C   UNL     1      46.513   2.485   7.686  0.00  0.00    +0.000 A 
ATOM      9  C   UNL     1      46.485   3.883   7.659  0.00  0.00    +0.000 A 
ATOM     10  C   UNL     1      45.661   4.580   8.547  0.00  0.00    +0.000 A 
ATOM     11  C   UNL     1      44.846   3.896   9.463  0.00  0.00    +0.000 A 
ATOM     12  C   UNL     1      44.883   2.495   9.485  0.00  0.00    +0.000 A 
ATOM     13  C   UNL     1      45.707   1.793   8.597  0.00  0.00    +0.000 A 
BRANCH   8  15
ATOM     14  N   UNL     1      48.391   2.360   6.140  0.00  0.00    +0.000 N 
ATOM     15  C   UNL     1      47.357   1.702   6.748  0.00  0.00    +0.000 C 
ATOM     16  O   UNL     1      47.164   0.510   6.548  0.00  0.00    +0.000 OA
ATOM     17  H   UNL     1      49.026   1.791   5.594  0.00  0.00    +0.000 HD
ATOM     18  H   UNL     1      48.726   3.254   6.466  0.00  0.00    +0.000 HD
ENDBRANCH   8  15
ENDBRANCH   7  11
ENDBRANCH   1   7
BRANCH   4  19
ATOM     19  C   UNL     1      47.043   8.348  13.596  0.00  0.00    +0.000 C 
BRANCH  19  20
ATOM     20  N   UNL     1      47.891   9.121  12.723  0.00  0.00    +0.000 N 
ATOM     21  C   UNL     1      49.253   9.135  12.864  0.00  0.00    +0.000 C 
ATOM     22  O   UNL     1      49.827   8.458  13.715  0.00  0.00    +0.000 OA
ATOM     23  H   UNL     1      47.443   9.861  12.190  0.00  0.00    +0.000 HD
BRANCH  21  24
ATOM     24  C   UNL     1      49.999   9.956  11.902  0.00  0.00    +0.000 A 
ATOM     25  C   UNL     1      49.762  11.324  11.831  0.00  0.00    +0.000 A 
ATOM     26  S   UNL     1      50.762  12.135  10.713  0.00  0.00    +0.000 S 
ATOM     27  C   UNL     1      51.508  10.680  10.242  0.00  0.00    +0.000 A 
ATOM     28  N   UNL     1      52.470  10.666   9.280  0.00  0.00    +0.000 NA
ATOM     29  C   UNL     1      52.928   9.492   9.000  0.00  0.00    +0.000 A 
ATOM     30  N   UNL     1      52.515   8.329   9.598  0.00  0.00    +0.000 N 
ATOM     31  C   UNL     1      51.565   8.298  10.591  0.00  0.00    +0.000 A 
ATOM     32  O   UNL     1      51.238   7.245  11.130  0.00  0.00    +0.000 OA
ATOM     33  C   UNL     1      51.012   9.593  10.939  0.00  0.00    +0.000 A 
ATOM     34  H   UNL     1      52.918   7.441   9.337  0.00  0.00    +0.000 HD
ENDBRANCH  21  24
ENDBRANCH  19  20
ENDBRANCH   4  19
TORSDOF 6
ENDMDL
MODEL 8
REMARK VINA RESULT:    -7.560      2.547      4.364
REMARK INTER + INTRA:         -11.156
REMARK INTER:                 -10.158
REMARK INTRA:                  -0.998
REMARK UNBOUND:                -0.944
REMARK  Name = 
REMARK  6 active torsions:
REMARK  status: ('A' for Active; 'I' for Inactive)
REMARK    1  A    between atoms: C_2  and  C_4
REMARK    2  A    between atoms: C_7  and  C_8
REMARK    3  A    between atoms: C_8  and  C_9
REMARK    4  A    between atoms: C_12  and  C_13
REMARK    5  A    between atoms: C_13  and  N_14
REMARK    6  A    between atoms: C_15  and  C_17
REMARK                            x       y       z     vdW  Elec       q    Type
REMARK                         _______ _______ _______ _____ _____    ______ ____
ROOT
ATOM      1  C   UNL     1      45.131   4.553  11.854  0.00  0.00    +0.000 A 
ATOM      2  C   UNL     1      45.629   5.851  11.934  0.00  0.00    +0.000 A 
ATOM      3  C   UNL     1      46.473   6.187  12.991  0.00  0.00    +0.000 A 
ATOM      4  C   UNL     1      46.800   5.230  13.954  0.00  0.00    +0.000 A 
ATOM      5  C   UNL     1      46.257   3.961  13.794  0.00  0.00    +0.000 A 
ATOM      6  N   UNL     1      45.432   3.605  12.780  0.00  0.00    +0.000 NA
ENDROOT
BRANCH   1   7
ATOM      7  C   UNL     1      44.281   4.129  10.674  0.00  0.00    +0.000 C 
BRANCH   7  11
ATOM      8  C   UNL     1      46.609   2.718   7.306  0.00  0.00    +0.000 A 
ATOM      9  C   UNL     1      46.080   1.807   8.227  0.00  0.00    +0.000 A 
ATOM     10  C   UNL     1      45.320   2.269   9.304  0.00  0.00    +0.000 A 
ATOM     11  C   UNL     1      45.089   3.642   9.488  0.00  0.00    +0.000 A 
ATOM     12  C   UNL     1      45.621   4.547   8.559  0.00  0.00    +0.000 A 
ATOM     13  C   UNL     1      46.382   4.088   7.478  0.00  0.00    +0.000 A 
BRANCH   8  15
ATOM     14  N   UNL     1      47.390   3.032   5.020  0.00  0.00    +0.000 N 
ATOM     15  C   UNL     1      47.439   2.274   6.157  0.00  0.00    +0.000 C 
ATOM     16  O   UNL     1      48.166   1.290   6.228  0.00  0.00    +0.000 OA
ATOM     17  H   UNL     1      48.043   2.786   4.287  0.00  0.00    +0.000 HD
ATOM     18  H   UNL     1      47.007   3.966   5.012  0.00  0.00    +0.000 HD
ENDBRANCH   8  15
ENDBRANCH   7  11
ENDBRANCH   1   7
BRANCH   4  19
ATOM     19  C   UNL     1      47.756   5.534  15.068  0.00  0.00    +0.000 C 
BRANCH  19  20
ATOM     20  N   UNL     1      47.982   6.954  15.179  0.00  0.00    +0.000 N 
ATOM     21  C   UNL     1      49.244   7.483  15.239  0.00  0.00    +0.000 C 
ATOM     22  O   UNL     1      50.249   6.780  15.158  0.00  0.00    +0.000 OA
ATOM     23  H   UNL     1      47.196   7.518  15.491  0.00  0.00    +0.000 HD
BRANCH  21  24
ATOM     24  C   UNL     1      49.332   8.945  15.339  0.00  0.00    +0.000 A 
ATOM     25  C   UNL     1      49.247   9.558  16.585  0.00  0.00    +0.000 A 
ATOM     26  S   UNL     1      49.441  11.251  16.529  0.00  0.00    +0.000 S 
ATOM     27  C   UNL     1      49.589  11.233  14.833  0.00  0.00    +0.000 A 
ATOM     28  N   UNL     1      49.760  12.387  14.134  0.00  0.00    +0.000 NA
ATOM     29  C   UNL     1      49.827  12.230  12.854  0.00  0.00    +0.000 A 
ATOM     30  N   UNL     1      49.743  11.022  12.209  0.00  0.00    +0.000 N 
ATOM     31  C   UNL     1      49.595   9.830  12.877  0.00  0.00    +0.000 A 
ATOM     32  O   UNL     1      49.555   8.761  12.274  0.00  0.00    +0.000 OA
ATOM     33  C   UNL     1      49.507   9.952  14.319  0.00  0.00    +0.000 A 
ATOM     34  H   UNL     1      49.808  10.967  11.203  0.00  0.00    +0.000 HD
ENDBRANCH  21  24
ENDBRANCH  19  20
ENDBRANCH   4  19
TORSDOF 6
ENDMDL
MODEL 9
REMARK VINA RESULT:    -7.475      3.756      8.433
REMARK INTER + INTRA:         -11.042
REMARK INTER:                 -10.065
REMARK INTRA:                  -0.976
REMARK UNBOUND:                -0.944
REMARK  Name = 
REMARK  6 active torsions:
REMARK  status: ('A' for Active; 'I' for Inactive)
REMARK    1  A    between atoms: C_2  and  C_4
REMARK    2  A    between atoms: C_7  and  C_8
REMARK    3  A    between atoms: C_8  and  C_9
REMARK    4  A    between atoms: C_12  and  C_13
REMARK    5  A    between atoms: C_13  and  N_14
REMARK    6  A    between atoms: C_15  and  C_17
REMARK                            x       y       z     vdW  Elec       q    Type
REMARK                         _______ _______ _______ _____ _____    ______ ____
ROOT
ATOM      1  C   UNL     1      49.458   5.835  16.840  0.00  0.00    +0.000 A 
ATOM      2  C   UNL     1      48.266   5.428  16.247  0.00  0.00    +0.000 A 
ATOM      3  C   UNL     1      47.922   5.940  14.997  0.00  0.00    +0.000 A 
ATOM      4  C   UNL     1      48.767   6.856  14.364  0.00  0.00    +0.000 A 
ATOM      5  C   UNL     1      49.935   7.206  15.030  0.00  0.00    +0.000 A 
ATOM      6  N   UNL     1      50.293   6.726  16.245  0.00  0.00    +0.000 NA
ENDROOT
BRANCH   1   7
ATOM      7  C   UNL     1      49.903   5.234  18.157  0.00  0.00    +0.000 C 
BRANCH   7  11
ATOM      8  C   UNL     1      52.374   1.704  17.718  0.00  0.00    +0.000 A 
ATOM      9  C   UNL     1      51.027   1.671  17.342  0.00  0.00    +0.000 A 
ATOM     10  C   UNL     1      50.239   2.817  17.476  0.00  0.00    +0.000 A 
ATOM     11  C   UNL     1      50.776   4.005  17.998  0.00  0.00    +0.000 A 
ATOM     12  C   UNL     1      52.128   4.029  18.370  0.00  0.00    +0.000 A 
ATOM     13  C   UNL     1      52.920   2.883  18.237  0.00  0.00    +0.000 A 
BRANCH   8  15
ATOM     14  N   UNL     1      52.947  -0.557  18.422  0.00  0.00    +0.000 N 
ATOM     15  C   UNL     1      53.244   0.505  17.613  0.00  0.00    +0.000 C 
ATOM     16  O   UNL     1      54.170   0.449  16.813  0.00  0.00    +0.000 OA
ATOM     17  H   UNL     1      53.474  -1.407  18.260  0.00  0.00    +0.000 HD
ATOM     18  H   UNL     1      52.061  -0.639  18.899  0.00  0.00    +0.000 HD
ENDBRANCH   8  15
ENDBRANCH   7  11
ENDBRANCH   1   7
BRANCH   4  19
ATOM     19  C   UNL     1      48.465   7.380  12.991  0.00  0.00    +0.000 C 
BRANCH  19  20
ATOM     20  N   UNL     1      47.684   6.430  12.237  0.00  0.00    +0.000 N 
ATOM     21  C   UNL     1      46.430   6.729  11.776  0.00  0.00    +0.000 C 
ATOM     22  O   UNL     1      45.922   7.836  11.943  0.00  0.00    +0.000 OA
ATOM     23  H   UNL     1      47.967   5.456  12.300  0.00  0.00    +0.000 HD
BRANCH  21  24
ATOM     24  C   UNL     1      45.749   5.675  11.014  0.00  0.00    +0.000 A 
ATOM     25  C   UNL     1      45.860   5.643   9.628  0.00  0.00    +0.000 A 
ATOM     26  S   UNL     1      45.069   4.315   8.908  0.00  0.00    +0.000 S 
ATOM     27  C   UNL     1      44.501   3.767  10.416  0.00  0.00    +0.000 A 
ATOM     28  N   UNL     1      43.723   2.655  10.508  0.00  0.00    +0.000 NA
ATOM     29  C   UNL     1      43.338   2.371  11.708  0.00  0.00    +0.000 A 
ATOM     30  N   UNL     1      43.665   3.095  12.825  0.00  0.00    +0.000 N 
ATOM     31  C   UNL     1      44.468   4.209  12.782  0.00  0.00    +0.000 A 
ATOM     32  O   UNL     1      44.770   4.819  13.804  0.00  0.00    +0.000 OA
ATOM     33  C   UNL     1      44.922   4.577  11.455  0.00  0.00    +0.000 A 
ATOM     34  H   UNL     1      43.335   2.816  13.738  0.00  0.00    +0.000 HD
ENDBRANCH  21  24
ENDBRANCH  19  20
ENDBRANCH   4  19
TORSDOF 6
ENDMDL
