MODEL 1
REMARK VINA RESULT:    -7.346      0.000      0.000
REMARK INTER + INTRA:          -9.803
REMARK INTER:                  -9.063
REMARK INTRA:                  -0.739
REMARK UNBOUND:                -0.739
REMARK  Name = 
REMARK  4 active torsions:
REMARK  status: ('A' for Active; 'I' for Inactive)
REMARK    1  A    between atoms: C_4  and  O_5
REMARK    2  A    between atoms: O_5  and  C_6
REMARK    3  A    between atoms: C_6  and  C_7
REMARK    4  A    between atoms: C_11  and  C_12
REMARK                            x       y       z     vdW  Elec       q    Type
REMARK                         _______ _______ _______ _____ _____    ______ ____
ROOT
ATOM      1  C   UNL     1      45.052   4.679  12.006  0.00  0.00    +0.000 A 
ATOM      2  C   UNL     1      45.335   3.591  12.827  0.00  0.00    +0.000 A 
ATOM      3  N   UNL     1      46.415   3.493  13.637  0.00  0.00    +0.000 NA
ATOM      4  C   UNL     1      47.278   4.537  13.627  0.00  0.00    +0.000 A 
ATOM      5  C   UNL     1      47.143   5.683  12.843  0.00  0.00    +0.000 A 
ATOM      6  C   UNL     1      46.005   5.716  12.023  0.00  0.00    +0.000 A 
ENDROOT
BRANCH   5   7
ATOM      7  C   UNL     1      48.111   6.801  12.890  0.00  0.00    +0.000 A 
ATOM      8  C   UNL     1      48.886   7.057  14.030  0.00  0.00    +0.000 A 
ATOM      9  C   UNL     1      49.790   8.111  14.018  0.00  0.00    +0.000 A 
ATOM     10  N   UNL     1      49.981   8.929  12.966  0.00  0.00    +0.000 NA
ATOM     11  C   UNL     1      49.233   8.676  11.873  0.00  0.00    +0.000 A 
ATOM     12  C   UNL     1      48.305   7.647  11.789  0.00  0.00    +0.000 A 
ENDBRANCH   5   7
BRANCH   1  13
ATOM     13  C   UNL     1      43.785   4.779  11.178  0.00  0.00    +0.000 C 
ATOM     14  C   UNL     1      42.496   5.259  11.833  0.00  0.00    +0.000 C 
ATOM     15  C   UNL     1      43.233   6.165  10.905  0.00  0.00    +0.000 C 
BRANCH  13  16
ATOM     16  O   UNL     1      43.508   3.713  10.237  0.00  0.00    +0.000 OA
BRANCH  16  20
ATOM     17  C   UNL     1      46.492   2.726   7.595  0.00  0.00    +0.000 A 
ATOM     18  C   UNL     1      45.921   1.741   8.393  0.00  0.00    +0.000 A 
ATOM     19  C   UNL     1      44.900   2.086   9.271  0.00  0.00    +0.000 A 
ATOM     20  C   UNL     1      44.513   3.415   9.335  0.00  0.00    +0.000 A 
ATOM     21  N   UNL     1      45.034   4.392   8.560  0.00  0.00    +0.000 NA
ATOM     22  C   UNL     1      46.010   4.021   7.703  0.00  0.00    +0.000 A 
ENDBRANCH  16  20
ENDBRANCH  13  16
ENDBRANCH   1  13
TORSDOF 4
ENDMDL
MODEL 2
REMARK VINA RESULT:    -6.878      2.192      6.459
REMARK INTER + INTRA:          -9.226
REMARK INTER:                  -8.673
REMARK INTRA:                  -0.552
REMARK UNBOUND:                -0.739
REMARK  Name = 
REMARK  4 active torsions:
REMARK  status: ('A' for Active; 'I' for Inactive)
REMARK    1  A    between atoms: C_4  and  O_5
REMARK    2  A    between atoms: O_5  and  C_6
REMARK    3  A    between atoms: C_6  and  C_7
REMARK    4  A    between atoms: C_11  and  C_12
REMARK                            x       y       z     vdW  Elec       q    Type
REMARK                         _______ _______ _______ _____ _____    ______ ____
ROOT
ATOM      1  C   UNL     1      45.038   4.900  11.108  0.00  0.00    +0.000 A 
ATOM      2  C   UNL     1      43.913   4.195  11.526  0.00  0.00    +0.000 A 
ATOM      3  N   UNL     1      43.437   3.075  10.936  0.00  0.00    +0.000 NA
ATOM      4  C   UNL     1      44.115   2.626   9.852  0.00  0.00    +0.000 A 
ATOM      5  C   UNL     1      45.242   3.235   9.300  0.00  0.00    +0.000 A 
ATOM      6  C   UNL     1      45.677   4.396   9.959  0.00  0.00    +0.000 A 
ENDROOT
BRANCH   5   7
ATOM      7  C   UNL     1      45.952   2.686   8.124  0.00  0.00    +0.000 A 
ATOM      8  C   UNL     1      46.416   1.364   8.095  0.00  0.00    +0.000 A 
ATOM      9  C   UNL     1      47.064   0.892   6.960  0.00  0.00    +0.000 A 
ATOM     10  N   UNL     1      47.289   1.632   5.858  0.00  0.00    +0.000 NA
ATOM     11  C   UNL     1      46.839   2.903   5.893  0.00  0.00    +0.000 A 
ATOM     12  C   UNL     1      46.180   3.463   6.979  0.00  0.00    +0.000 A 
ENDBRANCH   5   7
BRANCH   1  13
ATOM     13  C   UNL     1      45.581   6.104  11.853  0.00  0.00    +0.000 C 
ATOM     14  C   UNL     1      45.108   7.501  11.471  0.00  0.00    +0.000 C 
ATOM     15  C   UNL     1      44.619   6.877  12.735  0.00  0.00    +0.000 C 
BRANCH  13  16
ATOM     16  O   UNL     1      46.995   6.118  12.172  0.00  0.00    +0.000 OA
BRANCH  16  20
ATOM     17  C   UNL     1      48.061   5.236  16.038  0.00  0.00    +0.000 A 
ATOM     18  C   UNL     1      48.512   6.410  15.446  0.00  0.00    +0.000 A 
ATOM     19  C   UNL     1      48.130   6.705  14.143  0.00  0.00    +0.000 A 
ATOM     20  C   UNL     1      47.333   5.791  13.472  0.00  0.00    +0.000 A 
ATOM     21  N   UNL     1      46.862   4.651  14.024  0.00  0.00    +0.000 NA
ATOM     22  C   UNL     1      47.235   4.403  15.298  0.00  0.00    +0.000 A 
ENDBRANCH  16  20
ENDBRANCH  13  16
ENDBRANCH   1  13
TORSDOF 4
ENDMDL
MODEL 3
REMARK VINA RESULT:    -6.853      2.252      6.397
REMARK INTER + INTRA:          -9.195
REMARK INTER:                  -8.590
REMARK INTRA:                  -0.605
REMARK UNBOUND:                -0.739
REMARK  Name = 
REMARK  4 active torsions:
REMARK  status: ('A' for Active; 'I' for Inactive)
REMARK    1  A    between atoms: C_4  and  O_5
REMARK    2  A    between atoms: O_5  and  C_6
REMARK    3  A    between atoms: C_6  and  C_7
REMARK    4  A    between atoms: C_11  and  C_12
REMARK                            x       y       z     vdW  Elec       q    Type
REMARK                         _______ _______ _______ _____ _____    ______ ____
ROOT
ATOM      1  C   UNL     1      45.313   6.201  11.241  0.00  0.00    +0.000 A 
ATOM      2  C   UNL     1      43.932   6.110  11.386  0.00  0.00    +0.000 A 
ATOM      3  N   UNL     1      43.139   5.239  10.719  0.00  0.00    +0.000 NA
ATOM      4  C   UNL     1      43.754   4.409   9.841  0.00  0.00    +0.000 A 
ATOM      5  C   UNL     1      45.122   4.397   9.570  0.00  0.00    +0.000 A 
ATOM      6  C   UNL     1      45.882   5.330  10.292  0.00  0.00    +0.000 A 
ENDROOT
BRANCH   5   7
ATOM      7  C   UNL     1      45.738   3.452   8.612  0.00  0.00    +0.000 A 
ATOM      8  C   UNL     1      46.412   3.900   7.467  0.00  0.00    +0.000 A 
ATOM      9  C   UNL     1      46.986   2.972   6.607  0.00  0.00    +0.000 A 
ATOM     10  N   UNL     1      46.937   1.640   6.794  0.00  0.00    +0.000 NA
ATOM     11  C   UNL     1      46.287   1.217   7.898  0.00  0.00    +0.000 A 
ATOM     12  C   UNL     1      45.684   2.066   8.816  0.00  0.00    +0.000 A 
ENDBRANCH   5   7
BRANCH   1  13
ATOM     13  C   UNL     1      46.169   7.136  12.073  0.00  0.00    +0.000 C 
ATOM     14  C   UNL     1      46.171   8.628  11.764  0.00  0.00    +0.000 C 
ATOM     15  C   UNL     1      45.456   8.126  12.975  0.00  0.00    +0.000 C 
BRANCH  13  16
ATOM     16  O   UNL     1      47.502   6.692  12.430  0.00  0.00    +0.000 OA
BRANCH  16  20
ATOM     17  C   UNL     1      47.825   4.824  16.071  0.00  0.00    +0.000 A 
ATOM     18  C   UNL     1      46.998   4.289  15.090  0.00  0.00    +0.000 A 
ATOM     19  C   UNL     1      46.911   4.922  13.856  0.00  0.00    +0.000 A 
ATOM     20  C   UNL     1      47.636   6.088  13.666  0.00  0.00    +0.000 A 
ATOM     21  N   UNL     1      48.462   6.623  14.591  0.00  0.00    +0.000 NA
ATOM     22  C   UNL     1      48.541   5.973  15.773  0.00  0.00    +0.000 A 
ENDBRANCH  16  20
ENDBRANCH  13  16
ENDBRANCH   1  13
TORSDOF 4
ENDMDL
MODEL 4
REMARK VINA RESULT:    -6.679      2.986      6.580
REMARK INTER + INTRA:          -8.980
REMARK INTER:                  -8.407
REMARK INTRA:                  -0.573
REMARK UNBOUND:                -0.739
REMARK  Name = 
REMARK  4 active torsions:
REMARK  status: ('A' for Active; 'I' for Inactive)
REMARK    1  A    between atoms: C_4  and  O_5
REMARK    2  A    between atoms: O_5  and  C_6
REMARK    3  A    between atoms: C_6  and  C_7
REMARK    4  A    between atoms: C_11  and  C_12
REMARK                            x       y       z     vdW  Elec       q    Type
REMARK                         _______ _______ _______ _____ _____    ______ ____
ROOT
ATOM      1  C   UNL     1      45.043   6.381  11.469  0.00  0.00    +0.000 A 
ATOM      2  C   UNL     1      43.709   6.109  11.756  0.00  0.00    +0.000 A 
ATOM      3  N   UNL     1      42.982   5.116  11.192  0.00  0.00    +0.000 NA
ATOM      4  C   UNL     1      43.616   4.346  10.276  0.00  0.00    +0.000 A 
ATOM      5  C   UNL     1      44.940   4.509   9.866  0.00  0.00    +0.000 A 
ATOM      6  C   UNL     1      45.631   5.561  10.486  0.00  0.00    +0.000 A 
ENDROOT
BRANCH   5   7
ATOM      7  C   UNL     1      45.583   3.623   8.872  0.00  0.00    +0.000 A 
ATOM      8  C   UNL     1      46.264   4.137   7.759  0.00  0.00    +0.000 A 
ATOM      9  C   UNL     1      46.864   3.262   6.862  0.00  0.00    +0.000 A 
ATOM     10  N   UNL     1      46.835   1.922   6.983  0.00  0.00    +0.000 NA
ATOM     11  C   UNL     1      46.178   1.435   8.056  0.00  0.00    +0.000 A 
ATOM     12  C   UNL     1      45.550   2.228   9.006  0.00  0.00    +0.000 A 
ENDBRANCH   5   7
BRANCH   1  13
ATOM     13  C   UNL     1      45.840   7.452  12.189  0.00  0.00    +0.000 C 
ATOM     14  C   UNL     1      46.895   7.046  13.209  0.00  0.00    +0.000 C 
ATOM     15  C   UNL     1      47.319   7.558  11.873  0.00  0.00    +0.000 C 
BRANCH  13  16
ATOM     16  O   UNL     1      45.130   8.633  12.639  0.00  0.00    +0.000 OA
BRANCH  16  20
ATOM     17  C   UNL     1      44.863  11.714   9.939  0.00  0.00    +0.000 A 
ATOM     18  C   UNL     1      43.964  10.655   9.871  0.00  0.00    +0.000 A 
ATOM     19  C   UNL     1      44.055   9.627  10.802  0.00  0.00    +0.000 A 
ATOM     20  C   UNL     1      45.067   9.687  11.747  0.00  0.00    +0.000 A 
ATOM     21  N   UNL     1      45.943  10.711  11.851  0.00  0.00    +0.000 NA
ATOM     22  C   UNL     1      45.816  11.704  10.945  0.00  0.00    +0.000 A 
ENDBRANCH  16  20
ENDBRANCH  13  16
ENDBRANCH   1  13
TORSDOF 4
ENDMDL
MODEL 5
REMARK VINA RESULT:    -6.040      1.806      2.687
REMARK INTER + INTRA:          -8.192
REMARK INTER:                  -7.603
REMARK INTRA:                  -0.589
REMARK UNBOUND:                -0.739
REMARK  Name = 
REMARK  4 active torsions:
REMARK  status: ('A' for Active; 'I' for Inactive)
REMARK    1  A    between atoms: C_4  and  O_5
REMARK    2  A    between atoms: O_5  and  C_6
REMARK    3  A    between atoms: C_6  and  C_7
REMARK    4  A    between atoms: C_11  and  C_12
REMARK                            x       y       z     vdW  Elec       q    Type
REMARK                         _______ _______ _______ _____ _____    ______ ____
ROOT
ATOM      1  C   UNL     1      44.835   6.655  12.133  0.00  0.00    +0.000 A 
ATOM      2  C   UNL     1      44.399   7.874  11.622  0.00  0.00    +0.000 A 
ATOM      3  N   UNL     1      45.113   9.023  11.648  0.00  0.00    +0.000 NA
ATOM      4  C   UNL     1      46.337   8.965  12.227  0.00  0.00    +0.000 A 
ATOM      5  C   UNL     1      46.899   7.826  12.803  0.00  0.00    +0.000 A 
ATOM      6  C   UNL     1      46.102   6.672  12.746  0.00  0.00    +0.000 A 
ENDROOT
BRANCH   5   7
ATOM      7  C   UNL     1      48.251   7.820  13.405  0.00  0.00    +0.000 A 
ATOM      8  C   UNL     1      49.318   8.519  12.825  0.00  0.00    +0.000 A 
ATOM      9  C   UNL     1      50.564   8.493  13.438  0.00  0.00    +0.000 A 
ATOM     10  N   UNL     1      50.831   7.824  14.576  0.00  0.00    +0.000 NA
ATOM     11  C   UNL     1      49.799   7.154  15.128  0.00  0.00    +0.000 A 
ATOM     12  C   UNL     1      48.519   7.122  14.592  0.00  0.00    +0.000 A 
ENDBRANCH   5   7
BRANCH   1  13
ATOM     13  C   UNL     1      44.033   5.374  12.005  0.00  0.00    +0.000 C 
ATOM     14  C   UNL     1      42.869   5.117  12.955  0.00  0.00    +0.000 C 
ATOM     15  C   UNL     1      42.595   5.489  11.536  0.00  0.00    +0.000 C 
BRANCH  13  16
ATOM     16  O   UNL     1      44.760   4.145  11.753  0.00  0.00    +0.000 OA
BRANCH  16  20
ATOM     17  C   UNL     1      45.195   3.137   7.797  0.00  0.00    +0.000 A 
ATOM     18  C   UNL     1      45.660   4.365   8.253  0.00  0.00    +0.000 A 
ATOM     19  C   UNL     1      45.522   4.687   9.598  0.00  0.00    +0.000 A 
ATOM     20  C   UNL     1      44.892   3.773  10.428  0.00  0.00    +0.000 A 
ATOM     21  N   UNL     1      44.445   2.565  10.020  0.00  0.00    +0.000 NA
ATOM     22  C   UNL     1      44.613   2.274   8.712  0.00  0.00    +0.000 A 
ENDBRANCH  16  20
ENDBRANCH  13  16
ENDBRANCH   1  13
TORSDOF 4
ENDMDL
MODEL 6
REMARK VINA RESULT:    -6.037      2.963      3.864
REMARK INTER + INTRA:          -8.188
REMARK INTER:                  -8.736
REMARK INTRA:                   0.548
REMARK UNBOUND:                -0.739
REMARK  Name = 
REMARK  4 active torsions:
REMARK  status: ('A' for Active; 'I' for Inactive)
REMARK    1  A    between atoms: C_4  and  O_5
REMARK    2  A    between atoms: O_5  and  C_6
REMARK    3  A    between atoms: C_6  and  C_7
REMARK    4  A    between atoms: C_11  and  C_12
REMARK                            x       y       z     vdW  Elec       q    Type
REMARK                         _______ _______ _______ _____ _____    ______ ____
ROOT
ATOM      1  C   UNL     1      45.048   5.761  11.709  0.00  0.00    +0.000 A 
ATOM      2  C   UNL     1      46.336   5.814  12.234  0.00  0.00    +0.000 A 
ATOM      3  N   UNL     1      47.021   6.952  12.489  0.00  0.00    +0.000 NA
ATOM      4  C   UNL     1      46.393   8.117  12.197  0.00  0.00    +0.000 A 
ATOM      5  C   UNL     1      45.116   8.225  11.647  0.00  0.00    +0.000 A 
ATOM      6  C   UNL     1      44.466   7.006  11.401  0.00  0.00    +0.000 A 
ENDROOT
BRANCH   5   7
ATOM      7  C   UNL     1      44.475   9.529  11.366  0.00  0.00    +0.000 A 
ATOM      8  C   UNL     1      43.206   9.613  10.778  0.00  0.00    +0.000 A 
ATOM      9  C   UNL     1      42.642  10.861  10.548  0.00  0.00    +0.000 A 
ATOM     10  N   UNL     1      43.242  12.028  10.852  0.00  0.00    +0.000 NA
ATOM     11  C   UNL     1      44.463  11.938  11.418  0.00  0.00    +0.000 A 
ATOM     12  C   UNL     1      45.107  10.738  11.688  0.00  0.00    +0.000 A 
ENDBRANCH   5   7
BRANCH   1  13
ATOM     13  C   UNL     1      44.288   4.462  11.518  0.00  0.00    +0.000 C 
ATOM     14  C   UNL     1      44.773   3.198  12.217  0.00  0.00    +0.000 C 
ATOM     15  C   UNL     1      43.552   3.896  12.718  0.00  0.00    +0.000 C 
BRANCH  13  16
ATOM     16  O   UNL     1      43.807   4.150  10.187  0.00  0.00    +0.000 OA
BRANCH  16  20
ATOM     17  C   UNL     1      46.587   2.657   7.560  0.00  0.00    +0.000 A 
ATOM     18  C   UNL     1      45.875   1.790   8.382  0.00  0.00    +0.000 A 
ATOM     19  C   UNL     1      44.924   2.307   9.254  0.00  0.00    +0.000 A 
ATOM     20  C   UNL     1      44.749   3.681   9.290  0.00  0.00    +0.000 A 
ATOM     21  N   UNL     1      45.411   4.549   8.493  0.00  0.00    +0.000 NA
ATOM     22  C   UNL     1      46.312   4.013   7.642  0.00  0.00    +0.000 A 
ENDBRANCH  16  20
ENDBRANCH  13  16
ENDBRANCH   1  13
TORSDOF 4
ENDMDL
MODEL 7
REMARK VINA RESULT:    -5.878      2.843      6.882
REMARK INTER + INTRA:          -7.992
REMARK INTER:                  -7.463
REMARK INTRA:                  -0.529
REMARK UNBOUND:                -0.739
REMARK  Name = 
REMARK  4 active torsions:
REMARK  status: ('A' for Active; 'I' for Inactive)
REMARK    1  A    between atoms: C_4  and  O_5
REMARK    2  A    between atoms: O_5  and  C_6
REMARK    3  A    between atoms: C_6  and  C_7
REMARK    4  A    between atoms: C_11  and  C_12
REMARK                            x       y       z     vdW  Elec       q    Type
REMARK                         _______ _______ _______ _____ _____    ______ ____
ROOT
ATOM      1  C   UNL     1      46.970   7.391  12.962  0.00  0.00    +0.000 A 
ATOM      2  C   UNL     1      46.063   8.445  12.899  0.00  0.00    +0.000 A 
ATOM      3  N   UNL     1      44.943   8.457  12.140  0.00  0.00    +0.000 NA
ATOM      4  C   UNL     1      44.709   7.356  11.385  0.00  0.00    +0.000 A 
ATOM      5  C   UNL     1      45.535   6.234  11.324  0.00  0.00    +0.000 A 
ATOM      6  C   UNL     1      46.681   6.291  12.131  0.00  0.00    +0.000 A 
ENDROOT
BRANCH   5   7
ATOM      7  C   UNL     1      45.216   5.052  10.493  0.00  0.00    +0.000 A 
ATOM      8  C   UNL     1      44.557   3.934  11.025  0.00  0.00    +0.000 A 
ATOM      9  C   UNL     1      44.268   2.856  10.199  0.00  0.00    +0.000 A 
ATOM     10  N   UNL     1      44.586   2.800   8.892  0.00  0.00    +0.000 NA
ATOM     11  C   UNL     1      45.220   3.879   8.388  0.00  0.00    +0.000 A 
ATOM     12  C   UNL     1      45.550   5.003   9.132  0.00  0.00    +0.000 A 
ENDBRANCH   5   7
BRANCH   1  13
ATOM     13  C   UNL     1      48.168   7.389  13.893  0.00  0.00    +0.000 C 
ATOM     14  C   UNL     1      49.236   8.465  13.745  0.00  0.00    +0.000 C 
ATOM     15  C   UNL     1      48.282   8.524  14.892  0.00  0.00    +0.000 C 
BRANCH  13  16
ATOM     16  O   UNL     1      48.777   6.111  14.205  0.00  0.00    +0.000 OA
BRANCH  16  20
ATOM     17  C   UNL     1      47.645   4.381  17.753  0.00  0.00    +0.000 A 
ATOM     18  C   UNL     1      46.933   4.107  16.591  0.00  0.00    +0.000 A 
ATOM     19  C   UNL     1      47.337   4.686  15.393  0.00  0.00    +0.000 A 
ATOM     20  C   UNL     1      48.424   5.544  15.416  0.00  0.00    +0.000 A 
ATOM     21  N   UNL     1      49.149   5.817  16.524  0.00  0.00    +0.000 NA
ATOM     22  C   UNL     1      48.743   5.223  17.667  0.00  0.00    +0.000 A 
ENDBRANCH  16  20
ENDBRANCH  13  16
ENDBRANCH   1  13
TORSDOF 4
ENDMDL
MODEL 8
REMARK VINA RESULT:    -5.632      4.270      8.339
REMARK INTER + INTRA:          -7.689
REMARK INTER:                  -7.222
REMARK INTRA:                  -0.466
REMARK UNBOUND:                -0.739
REMARK  Name = 
REMARK  4 active torsions:
REMARK  status: ('A' for Active; 'I' for Inactive)
REMARK    1  A    between atoms: C_4  and  O_5
REMARK    2  A    between atoms: O_5  and  C_6
REMARK    3  A    between atoms: C_6  and  C_7
REMARK    4  A    between atoms: C_11  and  C_12
REMARK                            x       y       z     vdW  Elec       q    Type
REMARK                         _______ _______ _______ _____ _____    ______ ____
ROOT
ATOM      1  C   UNL     1      47.745   4.967  15.755  0.00  0.00    +0.000 A 
ATOM      2  C   UNL     1      48.582   5.897  15.144  0.00  0.00    +0.000 A 
ATOM      3  N   UNL     1      48.393   6.413  13.908  0.00  0.00    +0.000 NA
ATOM      4  C   UNL     1      47.308   5.974  13.226  0.00  0.00    +0.000 A 
ATOM      5  C   UNL     1      46.393   5.030  13.693  0.00  0.00    +0.000 A 
ATOM      6  C   UNL     1      46.653   4.532  14.979  0.00  0.00    +0.000 A 
ENDROOT
BRANCH   5   7
ATOM      7  C   UNL     1      45.215   4.602  12.907  0.00  0.00    +0.000 A 
ATOM      8  C   UNL     1      44.031   5.352  12.888  0.00  0.00    +0.000 A 
ATOM      9  C   UNL     1      42.958   4.915  12.123  0.00  0.00    +0.000 A 
ATOM     10  N   UNL     1      42.969   3.791  11.382  0.00  0.00    +0.000 NA
ATOM     11  C   UNL     1      44.111   3.074  11.405  0.00  0.00    +0.000 A 
ATOM     12  C   UNL     1      45.236   3.431  12.137  0.00  0.00    +0.000 A 
ENDBRANCH   5   7
BRANCH   1  13
ATOM     13  C   UNL     1      47.952   4.480  17.176  0.00  0.00    +0.000 C 
ATOM     14  C   UNL     1      48.340   3.028  17.424  0.00  0.00    +0.000 C 
ATOM     15  C   UNL     1      49.361   4.104  17.591  0.00  0.00    +0.000 C 
BRANCH  13  16
ATOM     16  O   UNL     1      47.018   4.934  18.187  0.00  0.00    +0.000 OA
BRANCH  16  20
ATOM     17  C   UNL     1      48.197   8.061  20.571  0.00  0.00    +0.000 A 
ATOM     18  C   UNL     1      47.750   6.879  21.151  0.00  0.00    +0.000 A 
ATOM     19  C   UNL     1      47.371   5.822  20.333  0.00  0.00    +0.000 A 
ATOM     20  C   UNL     1      47.424   6.005  18.960  0.00  0.00    +0.000 A 
ATOM     21  N   UNL     1      47.870   7.134  18.365  0.00  0.00    +0.000 NA
ATOM     22  C   UNL     1      48.251   8.135  19.188  0.00  0.00    +0.000 A 
ENDBRANCH  16  20
ENDBRANCH  13  16
ENDBRANCH   1  13
TORSDOF 4
ENDMDL
MODEL 9
REMARK VINA RESULT:    -5.617      2.724      7.300
REMARK INTER + INTRA:          -7.670
REMARK INTER:                  -7.032
REMARK INTRA:                  -0.638
REMARK UNBOUND:                -0.739
REMARK  Name = 
REMARK  4 active torsions:
REMARK  status: ('A' for Active; 'I' for Inactive)
REMARK    1  A    between atoms: C_4  and  O_5
REMARK    2  A    between atoms: O_5  and  C_6
REMARK    3  A    between atoms: C_6  and  C_7
REMARK    4  A    between atoms: C_11  and  C_12
REMARK                            x       y       z     vdW  Elec       q    Type
REMARK                         _______ _______ _______ _____ _____    ______ ____
ROOT
ATOM      1  C   UNL     1      47.615   7.714  12.556  0.00  0.00    +0.000 A 
ATOM      2  C   UNL     1      46.771   8.756  12.929  0.00  0.00    +0.000 A 
ATOM      3  N   UNL     1      45.419   8.704  12.906  0.00  0.00    +0.000 NA
ATOM      4  C   UNL     1      44.864   7.545  12.475  0.00  0.00    +0.000 A 
ATOM      5  C   UNL     1      45.575   6.424  12.046  0.00  0.00    +0.000 A 
ATOM      6  C   UNL     1      46.973   6.550  12.091  0.00  0.00    +0.000 A 
ENDROOT
BRANCH   5   7
ATOM      7  C   UNL     1      44.912   5.178  11.603  0.00  0.00    +0.000 A 
ATOM      8  C   UNL     1      44.994   4.732  10.277  0.00  0.00    +0.000 A 
ATOM      9  C   UNL     1      44.364   3.548   9.915  0.00  0.00    +0.000 A 
ATOM     10  N   UNL     1      43.659   2.778  10.765  0.00  0.00    +0.000 NA
ATOM     11  C   UNL     1      43.585   3.214  12.040  0.00  0.00    +0.000 A 
ATOM     12  C   UNL     1      44.181   4.382  12.496  0.00  0.00    +0.000 A 
ENDBRANCH   5   7
BRANCH   1  13
ATOM     13  C   UNL     1      49.124   7.791  12.680  0.00  0.00    +0.000 C 
ATOM     14  C   UNL     1      49.974   7.951  11.425  0.00  0.00    +0.000 C 
ATOM     15  C   UNL     1      49.790   9.112  12.345  0.00  0.00    +0.000 C 
BRANCH  13  16
ATOM     16  O   UNL     1      49.771   6.895  13.617  0.00  0.00    +0.000 OA
BRANCH  16  20
ATOM     17  C   UNL     1      48.537   7.221  17.520  0.00  0.00    +0.000 A 
ATOM     18  C   UNL     1      49.052   8.332  16.862  0.00  0.00    +0.000 A 
ATOM     19  C   UNL     1      49.450   8.212  15.535  0.00  0.00    +0.000 A 
ATOM     20  C   UNL     1      49.345   6.970  14.930  0.00  0.00    +0.000 A 
ATOM     21  N   UNL     1      48.832   5.876  15.535  0.00  0.00    +0.000 NA
ATOM     22  C   UNL     1      48.435   6.031  16.817  0.00  0.00    +0.000 A 
ENDBRANCH  16  20
ENDBRANCH  13  16
ENDBRANCH   1  13
TORSDOF 4
ENDMDL
