MODEL 1
REMARK VINA RESULT:    -9.014      0.000      0.000
REMARK INTER + INTRA:         -12.897
REMARK INTER:                 -12.176
REMARK INTRA:                  -0.721
REMARK UNBOUND:                -0.721
REMARK  Name = 
REMARK  7 active torsions:
REMARK  status: ('A' for Active; 'I' for Inactive)
REMARK    1  A    between atoms: C_1  and  C_2
REMARK    2  A    between atoms: C_2  and  N_3
REMARK    3  A    between atoms: C_2  and  C_16
REMARK    4  A    between atoms: C_4  and  C_6
REMARK    5  A    between atoms: C_19  and  C_20
REMARK    6  A    between atoms: C_20  and  N_21
REMARK    7  A    between atoms: C_22  and  C_24
REMARK                            x       y       z     vdW  Elec       q    Type
REMARK                         _______ _______ _______ _____ _____    ______ ____
ROOT
ATOM      1  C   UNL     1      49.097   7.420  13.432  0.00  0.00    +0.000 C 
ATOM      2  C   UNL     1      48.350   6.238  14.058  0.00  0.00    +0.000 C 
ENDROOT
BRANCH   2   3
ATOM      3  C   UNL     1      47.110   5.865  13.255  0.00  0.00    +0.000 A 
ATOM      4  C   UNL     1      46.657   4.539  13.295  0.00  0.00    +0.000 A 
ATOM      5  C   UNL     1      45.601   4.107  12.483  0.00  0.00    +0.000 A 
ATOM      6  C   UNL     1      44.964   4.994  11.609  0.00  0.00    +0.000 A 
ATOM      7  C   UNL     1      45.356   6.340  11.624  0.00  0.00    +0.000 A 
ATOM      8  C   UNL     1      46.420   6.774  12.433  0.00  0.00    +0.000 A 
BRANCH   6   9
ATOM      9  C   UNL     1      43.910   4.501  10.652  0.00  0.00    +0.000 C 
BRANCH   9  10
ATOM     10  N   UNL     1      44.434   3.595   9.658  0.00  0.00    +0.000 N 
ATOM     11  C   UNL     1      45.274   4.053   8.662  0.00  0.00    +0.000 C 
ATOM     12  O   UNL     1      45.621   5.232   8.585  0.00  0.00    +0.000 OA
ATOM     13  H   UNL     1      44.240   2.607   9.758  0.00  0.00    +0.000 HD
BRANCH  11  14
ATOM     14  C   UNL     1      45.766   2.969   7.704  0.00  0.00    +0.000 C 
ATOM     15  C   UNL     1      46.091   1.666   8.453  0.00  0.00    +0.000 C 
ATOM     16  C   UNL     1      46.745   0.643   7.534  0.00  0.00    +0.000 C 
ATOM     17  O   UNL     1      47.898   1.193   6.899  0.00  0.00    +0.000 OA
ATOM     18  C   UNL     1      47.578   2.315   6.082  0.00  0.00    +0.000 C 
ATOM     19  C   UNL     1      46.998   3.441   6.924  0.00  0.00    +0.000 C 
ENDBRANCH  11  14
ENDBRANCH   9  10
ENDBRANCH   6   9
ENDBRANCH   2   3
BRANCH   2  20
ATOM     20  N   UNL     1      48.040   6.496  15.448  0.00  0.00    +0.000 N 
ATOM     21  C   UNL     1      48.914   6.185  16.463  0.00  0.00    +0.000 C 
ATOM     22  O   UNL     1      49.985   5.621  16.258  0.00  0.00    +0.000 OA
ATOM     23  H   UNL     1      47.114   6.848  15.665  0.00  0.00    +0.000 HD
BRANCH  21  24
ATOM     24  C   UNL     1      48.529   6.611  17.813  0.00  0.00    +0.000 A 
ATOM     25  C   UNL     1      48.218   7.942  18.060  0.00  0.00    +0.000 A 
ATOM     26  S   UNL     1      47.787   8.252  19.683  0.00  0.00    +0.000 S 
ATOM     27  C   UNL     1      48.041   6.630  20.118  0.00  0.00    +0.000 A 
ATOM     28  N   UNL     1      47.878   6.212  21.401  0.00  0.00    +0.000 NA
ATOM     29  C   UNL     1      48.136   4.961  21.594  0.00  0.00    +0.000 A 
ATOM     30  N   UNL     1      48.526   4.082  20.618  0.00  0.00    +0.000 N 
ATOM     31  C   UNL     1      48.649   4.447  19.298  0.00  0.00    +0.000 A 
ATOM     32  O   UNL     1      48.894   3.613  18.435  0.00  0.00    +0.000 OA
ATOM     33  C   UNL     1      48.412   5.852  19.035  0.00  0.00    +0.000 A 
ATOM     34  H   UNL     1      48.682   3.111  20.822  0.00  0.00    +0.000 HD
ENDBRANCH  21  24
ENDBRANCH   2  20
TORSDOF 6
ENDMDL
MODEL 2
REMARK VINA RESULT:    -8.570      1.416      2.052
REMARK INTER + INTRA:         -12.298
REMARK INTER:                 -11.118
REMARK INTRA:                  -1.180
REMARK UNBOUND:                -0.721
REMARK  Name = 
REMARK  7 active torsions:
REMARK  status: ('A' for Active; 'I' for Inactive)
REMARK    1  A    between atoms: C_1  and  C_2
REMARK    2  A    between atoms: C_2  and  N_3
REMARK    3  A    between atoms: C_2  and  C_16
REMARK    4  A    between atoms: C_4  and  C_6
REMARK    5  A    between atoms: C_19  and  C_20
REMARK    6  A    between atoms: C_20  and  N_21
REMARK    7  A    between atoms: C_22  and  C_24
REMARK                            x       y       z     vdW  Elec       q    Type
REMARK                         _______ _______ _______ _____ _____    ______ ____
ROOT
ATOM      1  C   UNL     1      48.219   8.173  13.584  0.00  0.00    +0.000 C 
ATOM      2  C   UNL     1      48.140   6.683  13.931  0.00  0.00    +0.000 C 
ENDROOT
BRANCH   2   3
ATOM      3  C   UNL     1      46.999   5.992  13.196  0.00  0.00    +0.000 A 
ATOM      4  C   UNL     1      46.547   4.752  13.669  0.00  0.00    +0.000 A 
ATOM      5  C   UNL     1      45.591   4.010  12.966  0.00  0.00    +0.000 A 
ATOM      6  C   UNL     1      45.054   4.492  11.767  0.00  0.00    +0.000 A 
ATOM      7  C   UNL     1      45.439   5.767  11.331  0.00  0.00    +0.000 A 
ATOM      8  C   UNL     1      46.404   6.510  12.032  0.00  0.00    +0.000 A 
BRANCH   6   9
ATOM      9  C   UNL     1      44.115   3.641  10.952  0.00  0.00    +0.000 C 
BRANCH   9  10
ATOM     10  N   UNL     1      44.784   2.920   9.896  0.00  0.00    +0.000 N 
ATOM     11  C   UNL     1      44.888   3.463   8.631  0.00  0.00    +0.000 C 
ATOM     12  O   UNL     1      44.435   4.573   8.352  0.00  0.00    +0.000 OA
ATOM     13  H   UNL     1      45.247   2.051  10.126  0.00  0.00    +0.000 HD
BRANCH  11  14
ATOM     14  C   UNL     1      45.649   2.591   7.631  0.00  0.00    +0.000 C 
ATOM     15  C   UNL     1      46.133   1.287   8.283  0.00  0.00    +0.000 C 
ATOM     16  C   UNL     1      47.039   0.498   7.345  0.00  0.00    +0.000 C 
ATOM     17  O   UNL     1      48.125   1.302   6.891  0.00  0.00    +0.000 OA
ATOM     18  C   UNL     1      47.683   2.439   6.156  0.00  0.00    +0.000 C 
ATOM     19  C   UNL     1      46.839   3.349   7.035  0.00  0.00    +0.000 C 
ENDBRANCH  11  14
ENDBRANCH   9  10
ENDBRANCH   6   9
ENDBRANCH   2   3
BRANCH   2  20
ATOM     20  N   UNL     1      48.062   6.486  15.363  0.00  0.00    +0.000 N 
ATOM     21  C   UNL     1      49.185   6.391  16.151  0.00  0.00    +0.000 C 
ATOM     22  O   UNL     1      50.320   6.414  15.683  0.00  0.00    +0.000 OA
ATOM     23  H   UNL     1      47.144   6.340  15.768  0.00  0.00    +0.000 HD
BRANCH  21  24
ATOM     24  C   UNL     1      48.965   6.316  17.599  0.00  0.00    +0.000 A 
ATOM     25  C   UNL     1      49.297   5.160  18.295  0.00  0.00    +0.000 A 
ATOM     26  S   UNL     1      48.980   5.257  19.969  0.00  0.00    +0.000 S 
ATOM     27  C   UNL     1      48.350   6.827  19.816  0.00  0.00    +0.000 A 
ATOM     28  N   UNL     1      47.857   7.495  20.892  0.00  0.00    +0.000 NA
ATOM     29  C   UNL     1      47.381   8.665  20.624  0.00  0.00    +0.000 A 
ATOM     30  N   UNL     1      47.369   9.239  19.380  0.00  0.00    +0.000 N 
ATOM     31  C   UNL     1      47.907   8.625  18.274  0.00  0.00    +0.000 A 
ATOM     32  O   UNL     1      47.976   9.210  17.200  0.00  0.00    +0.000 OA
ATOM     33  C   UNL     1      48.416   7.289  18.513  0.00  0.00    +0.000 A 
ATOM     34  H   UNL     1      47.014  10.168  19.237  0.00  0.00    +0.000 HD
ENDBRANCH  21  24
ENDBRANCH   2  20
TORSDOF 6
ENDMDL
MODEL 3
REMARK VINA RESULT:    -8.447      1.708      1.984
REMARK INTER + INTRA:         -12.132
REMARK INTER:                 -10.868
REMARK INTRA:                  -1.263
REMARK UNBOUND:                -0.721
REMARK  Name = 
REMARK  7 active torsions:
REMARK  status: ('A' for Active; 'I' for Inactive)
REMARK    1  A    between atoms: C_1  and  C_2
REMARK    2  A    between atoms: C_2  and  N_3
REMARK    3  A    between atoms: C_2  and  C_16
REMARK    4  A    between atoms: C_4  and  C_6
REMARK    5  A    between atoms: C_19  and  C_20
REMARK    6  A    between atoms: C_20  and  N_21
REMARK    7  A    between atoms: C_22  and  C_24
REMARK                            x       y       z     vdW  Elec       q    Type
REMARK                         _______ _______ _______ _____ _____    ______ ____
ROOT
ATOM      1  C   UNL     1      47.503   9.343  13.719  0.00  0.00    +0.000 C 
ATOM      2  C   UNL     1      47.699   7.831  13.568  0.00  0.00    +0.000 C 
ENDROOT
BRANCH   2   3
ATOM      3  C   UNL     1      46.545   7.185  12.813  0.00  0.00    +0.000 A 
ATOM      4  C   UNL     1      46.449   5.786  12.799  0.00  0.00    +0.000 A 
ATOM      5  C   UNL     1      45.487   5.131  12.022  0.00  0.00    +0.000 A 
ATOM      6  C   UNL     1      44.587   5.860  11.237  0.00  0.00    +0.000 A 
ATOM      7  C   UNL     1      44.622   7.259  11.309  0.00  0.00    +0.000 A 
ATOM      8  C   UNL     1      45.592   7.918  12.084  0.00  0.00    +0.000 A 
BRANCH   6   9
ATOM      9  C   UNL     1      43.632   5.152  10.311  0.00  0.00    +0.000 C 
BRANCH   9  10
ATOM     10  N   UNL     1      44.298   4.502   9.207  0.00  0.00    +0.000 N 
ATOM     11  C   UNL     1      44.561   3.147   9.244  0.00  0.00    +0.000 C 
ATOM     12  O   UNL     1      44.235   2.439  10.197  0.00  0.00    +0.000 OA
ATOM     13  H   UNL     1      44.488   5.044   8.375  0.00  0.00    +0.000 HD
BRANCH  11  14
ATOM     14  C   UNL     1      45.245   2.604   7.989  0.00  0.00    +0.000 C 
ATOM     15  C   UNL     1      46.128   1.389   8.316  0.00  0.00    +0.000 C 
ATOM     16  C   UNL     1      46.946   0.953   7.107  0.00  0.00    +0.000 C 
ATOM     17  O   UNL     1      47.707   2.041   6.588  0.00  0.00    +0.000 OA
ATOM     18  C   UNL     1      46.881   3.113   6.145  0.00  0.00    +0.000 C 
ATOM     19  C   UNL     1      46.083   3.688   7.305  0.00  0.00    +0.000 C 
ENDBRANCH  11  14
ENDBRANCH   9  10
ENDBRANCH   6   9
ENDBRANCH   2   3
BRANCH   2  20
ATOM     20  N   UNL     1      47.926   7.205  14.853  0.00  0.00    +0.000 N 
ATOM     21  C   UNL     1      49.189   6.903  15.307  0.00  0.00    +0.000 C 
ATOM     22  O   UNL     1      50.194   7.096  14.629  0.00  0.00    +0.000 OA
ATOM     23  H   UNL     1      47.113   6.920  15.387  0.00  0.00    +0.000 HD
BRANCH  21  24
ATOM     24  C   UNL     1      49.287   6.385  16.675  0.00  0.00    +0.000 A 
ATOM     25  C   UNL     1      49.972   7.106  17.645  0.00  0.00    +0.000 A 
ATOM     26  S   UNL     1      49.976   6.354  19.178  0.00  0.00    +0.000 S 
ATOM     27  C   UNL     1      49.100   5.023  18.589  0.00  0.00    +0.000 A 
ATOM     28  N   UNL     1      48.788   3.974  19.396  0.00  0.00    +0.000 NA
ATOM     29  C   UNL     1      48.150   3.018  18.808  0.00  0.00    +0.000 A 
ATOM     30  N   UNL     1      47.776   3.020  17.489  0.00  0.00    +0.000 N 
ATOM     31  C   UNL     1      48.020   4.083  16.651  0.00  0.00    +0.000 A 
ATOM     32  O   UNL     1      47.579   4.097  15.508  0.00  0.00    +0.000 OA
ATOM     33  C   UNL     1      48.774   5.165  17.252  0.00  0.00    +0.000 A 
ATOM     34  H   UNL     1      47.251   2.260  17.094  0.00  0.00    +0.000 HD
ENDBRANCH  21  24
ENDBRANCH   2  20
TORSDOF 6
ENDMDL
MODEL 4
REMARK VINA RESULT:    -8.439      2.975      4.608
REMARK INTER + INTRA:         -12.121
REMARK INTER:                 -10.837
REMARK INTRA:                  -1.283
REMARK UNBOUND:                -0.721
REMARK  Name = 
REMARK  7 active torsions:
REMARK  status: ('A' for Active; 'I' for Inactive)
REMARK    1  A    between atoms: C_1  and  C_2
REMARK    2  A    between atoms: C_2  and  N_3
REMARK    3  A    between atoms: C_2  and  C_16
REMARK    4  A    between atoms: C_4  and  C_6
REMARK    5  A    between atoms: C_19  and  C_20
REMARK    6  A    between atoms: C_20  and  N_21
REMARK    7  A    between atoms: C_22  and  C_24
REMARK                            x       y       z     vdW  Elec       q    Type
REMARK                         _______ _______ _______ _____ _____    ______ ____
ROOT
ATOM      1  C   UNL     1      47.558   3.567  15.366  0.00  0.00    +0.000 C 
ATOM      2  C   UNL     1      47.096   4.941  14.872  0.00  0.00    +0.000 C 
ENDROOT
BRANCH   2   3
ATOM      3  C   UNL     1      46.085   4.823  13.739  0.00  0.00    +0.000 A 
ATOM      4  C   UNL     1      45.930   3.584  13.101  0.00  0.00    +0.000 A 
ATOM      5  C   UNL     1      45.111   3.445  11.975  0.00  0.00    +0.000 A 
ATOM      6  C   UNL     1      44.418   4.543  11.455  0.00  0.00    +0.000 A 
ATOM      7  C   UNL     1      44.502   5.765  12.136  0.00  0.00    +0.000 A 
ATOM      8  C   UNL     1      45.329   5.909  13.263  0.00  0.00    +0.000 A 
BRANCH   6   9
ATOM      9  C   UNL     1      43.633   4.417  10.176  0.00  0.00    +0.000 C 
BRANCH   9  10
ATOM     10  N   UNL     1      44.257   3.534   9.219  0.00  0.00    +0.000 N 
ATOM     11  C   UNL     1      45.277   3.986   8.406  0.00  0.00    +0.000 C 
ATOM     12  O   UNL     1      45.705   5.139   8.466  0.00  0.00    +0.000 OA
ATOM     13  H   UNL     1      43.987   2.559   9.219  0.00  0.00    +0.000 HD
BRANCH  11  14
ATOM     14  C   UNL     1      45.852   2.925   7.468  0.00  0.00    +0.000 C 
ATOM     15  C   UNL     1      46.215   1.642   8.231  0.00  0.00    +0.000 C 
ATOM     16  C   UNL     1      46.948   0.650   7.337  0.00  0.00    +0.000 C 
ATOM     17  O   UNL     1      48.092   1.255   6.737  0.00  0.00    +0.000 OA
ATOM     18  C   UNL     1      47.744   2.358   5.907  0.00  0.00    +0.000 C 
ATOM     19  C   UNL     1      47.083   3.456   6.726  0.00  0.00    +0.000 C 
ENDBRANCH  11  14
ENDBRANCH   9  10
ENDBRANCH   6   9
ENDBRANCH   2   3
BRANCH   2  20
ATOM     20  N   UNL     1      48.225   5.770  14.509  0.00  0.00    +0.000 N 
ATOM     21  C   UNL     1      48.875   6.564  15.424  0.00  0.00    +0.000 C 
ATOM     22  O   UNL     1      48.504   6.661  16.591  0.00  0.00    +0.000 OA
ATOM     23  H   UNL     1      48.483   5.809  13.529  0.00  0.00    +0.000 HD
BRANCH  21  24
ATOM     24  C   UNL     1      50.078   7.258  14.953  0.00  0.00    +0.000 A 
ATOM     25  C   UNL     1      51.229   7.262  15.731  0.00  0.00    +0.000 A 
ATOM     26  S   UNL     1      52.530   8.110  15.021  0.00  0.00    +0.000 S 
ATOM     27  C   UNL     1      51.589   8.536  13.673  0.00  0.00    +0.000 A 
ATOM     28  N   UNL     1      52.097   9.308  12.676  0.00  0.00    +0.000 NA
ATOM     29  C   UNL     1      51.261   9.580  11.730  0.00  0.00    +0.000 A 
ATOM     30  N   UNL     1      49.966   9.136  11.678  0.00  0.00    +0.000 N 
ATOM     31  C   UNL     1      49.426   8.307  12.634  0.00  0.00    +0.000 A 
ATOM     32  O   UNL     1      48.301   7.843  12.501  0.00  0.00    +0.000 OA
ATOM     33  C   UNL     1      50.312   8.007  13.741  0.00  0.00    +0.000 A 
ATOM     34  H   UNL     1      49.370   9.354  10.899  0.00  0.00    +0.000 HD
ENDBRANCH  21  24
ENDBRANCH   2  20
TORSDOF 6
ENDMDL
MODEL 5
REMARK VINA RESULT:    -8.251      3.252      4.680
REMARK INTER + INTRA:         -11.866
REMARK INTER:                 -11.173
REMARK INTRA:                  -0.693
REMARK UNBOUND:                -0.721
REMARK  Name = 
REMARK  7 active torsions:
REMARK  status: ('A' for Active; 'I' for Inactive)
REMARK    1  A    between atoms: C_1  and  C_2
REMARK    2  A    between atoms: C_2  and  N_3
REMARK    3  A    between atoms: C_2  and  C_16
REMARK    4  A    between atoms: C_4  and  C_6
REMARK    5  A    between atoms: C_19  and  C_20
REMARK    6  A    between atoms: C_20  and  N_21
REMARK    7  A    between atoms: C_22  and  C_24
REMARK                            x       y       z     vdW  Elec       q    Type
REMARK                         _______ _______ _______ _____ _____    ______ ____
ROOT
ATOM      1  C   UNL     1      47.708   3.600  14.952  0.00  0.00    +0.000 C 
ATOM      2  C   UNL     1      46.770   4.810  14.905  0.00  0.00    +0.000 C 
ENDROOT
BRANCH   2   3
ATOM      3  C   UNL     1      45.832   4.752  13.707  0.00  0.00    +0.000 A 
ATOM      4  C   UNL     1      45.793   3.580  12.939  0.00  0.00    +0.000 A 
ATOM      5  C   UNL     1      45.047   3.511  11.757  0.00  0.00    +0.000 A 
ATOM      6  C   UNL     1      44.312   4.615  11.310  0.00  0.00    +0.000 A 
ATOM      7  C   UNL     1      44.280   5.761  12.115  0.00  0.00    +0.000 A 
ATOM      8  C   UNL     1      45.033   5.835  13.299  0.00  0.00    +0.000 A 
BRANCH   6   9
ATOM      9  C   UNL     1      43.608   4.577   9.979  0.00  0.00    +0.000 C 
BRANCH   9  10
ATOM     10  N   UNL     1      44.219   3.661   9.046  0.00  0.00    +0.000 N 
ATOM     11  C   UNL     1      45.334   4.034   8.322  0.00  0.00    +0.000 C 
ATOM     12  O   UNL     1      45.859   5.141   8.447  0.00  0.00    +0.000 OA
ATOM     13  H   UNL     1      43.863   2.715   8.998  0.00  0.00    +0.000 HD
BRANCH  11  14
ATOM     14  C   UNL     1      45.880   2.945   7.399  0.00  0.00    +0.000 C 
ATOM     15  C   UNL     1      46.251   1.679   8.186  0.00  0.00    +0.000 C 
ATOM     16  C   UNL     1      46.956   0.659   7.301  0.00  0.00    +0.000 C 
ATOM     17  O   UNL     1      48.090   1.239   6.660  0.00  0.00    +0.000 OA
ATOM     18  C   UNL     1      47.731   2.324   5.810  0.00  0.00    +0.000 C 
ATOM     19  C   UNL     1      47.097   3.447   6.615  0.00  0.00    +0.000 C 
ENDBRANCH  11  14
ENDBRANCH   9  10
ENDBRANCH   6   9
ENDBRANCH   2   3
BRANCH   2  20
ATOM     20  N   UNL     1      47.518   6.049  14.951  0.00  0.00    +0.000 N 
ATOM     21  C   UNL     1      48.341   6.445  13.923  0.00  0.00    +0.000 C 
ATOM     22  O   UNL     1      48.536   5.749  12.931  0.00  0.00    +0.000 OA
ATOM     23  H   UNL     1      47.477   6.591  15.806  0.00  0.00    +0.000 HD
BRANCH  21  24
ATOM     24  C   UNL     1      48.942   7.778  14.042  0.00  0.00    +0.000 A 
ATOM     25  C   UNL     1      50.108   7.953  14.778  0.00  0.00    +0.000 A 
ATOM     26  S   UNL     1      50.665   9.566  14.799  0.00  0.00    +0.000 S 
ATOM     27  C   UNL     1      49.349  10.092  13.863  0.00  0.00    +0.000 A 
ATOM     28  N   UNL     1      49.196  11.403  13.538  0.00  0.00    +0.000 NA
ATOM     29  C   UNL     1      48.134  11.664  12.851  0.00  0.00    +0.000 A 
ATOM     30  N   UNL     1      47.217  10.732  12.441  0.00  0.00    +0.000 N 
ATOM     31  C   UNL     1      47.360   9.389  12.698  0.00  0.00    +0.000 A 
ATOM     32  O   UNL     1      46.579   8.571  12.226  0.00  0.00    +0.000 OA
ATOM     33  C   UNL     1      48.515   9.047  13.505  0.00  0.00    +0.000 A 
ATOM     34  H   UNL     1      46.425  10.990  11.880  0.00  0.00    +0.000 HD
ENDBRANCH  21  24
ENDBRANCH   2  20
TORSDOF 6
ENDMDL
MODEL 6
REMARK VINA RESULT:    -8.058      2.851      4.621
REMARK INTER + INTRA:         -11.606
REMARK INTER:                 -10.419
REMARK INTRA:                  -1.188
REMARK UNBOUND:                -0.721
REMARK  Name = 
REMARK  7 active torsions:
REMARK  status: ('A' for Active; 'I' for Inactive)
REMARK    1  A    between atoms: C_1  and  C_2
REMARK    2  A    between atoms: C_2  and  N_3
REMARK    3  A    between atoms: C_2  and  C_16
REMARK    4  A    between atoms: C_4  and  C_6
REMARK    5  A    between atoms: C_19  and  C_20
REMARK    6  A    between atoms: C_20  and  N_21
REMARK    7  A    between atoms: C_22  and  C_24
REMARK                            x       y       z     vdW  Elec       q    Type
REMARK                         _______ _______ _______ _____ _____    ______ ____
ROOT
ATOM      1  C   UNL     1      47.483   4.206  15.911  0.00  0.00    +0.000 C 
ATOM      2  C   UNL     1      47.300   5.457  15.047  0.00  0.00    +0.000 C 
ENDROOT
BRANCH   2   3
ATOM      3  C   UNL     1      46.538   5.152  13.764  0.00  0.00    +0.000 A 
ATOM      4  C   UNL     1      46.080   6.223  12.982  0.00  0.00    +0.000 A 
ATOM      5  C   UNL     1      45.268   6.009  11.863  0.00  0.00    +0.000 A 
ATOM      6  C   UNL     1      44.894   4.714  11.488  0.00  0.00    +0.000 A 
ATOM      7  C   UNL     1      45.415   3.635  12.215  0.00  0.00    +0.000 A 
ATOM      8  C   UNL     1      46.225   3.847  13.344  0.00  0.00    +0.000 A 
BRANCH   6   9
ATOM      9  C   UNL     1      43.925   4.495  10.356  0.00  0.00    +0.000 C 
BRANCH   9  10
ATOM     10  N   UNL     1      44.438   3.605   9.342  0.00  0.00    +0.000 N 
ATOM     11  C   UNL     1      45.394   4.037   8.445  0.00  0.00    +0.000 C 
ATOM     12  O   UNL     1      45.857   5.178   8.476  0.00  0.00    +0.000 OA
ATOM     13  H   UNL     1      44.143   2.637   9.359  0.00  0.00    +0.000 HD
BRANCH  11  14
ATOM     14  C   UNL     1      45.856   2.970   7.452  0.00  0.00    +0.000 C 
ATOM     15  C   UNL     1      46.318   1.696   8.176  0.00  0.00    +0.000 C 
ATOM     16  C   UNL     1      46.941   0.698   7.207  0.00  0.00    +0.000 C 
ATOM     17  O   UNL     1      47.998   1.303   6.466  0.00  0.00    +0.000 OA
ATOM     18  C   UNL     1      47.545   2.397   5.675  0.00  0.00    +0.000 C 
ATOM     19  C   UNL     1      46.983   3.499   6.560  0.00  0.00    +0.000 C 
ENDBRANCH  11  14
ENDBRANCH   9  10
ENDBRANCH   6   9
ENDBRANCH   2   3
BRANCH   2  20
ATOM     20  N   UNL     1      48.571   6.099  14.785  0.00  0.00    +0.000 N 
ATOM     21  C   UNL     1      49.140   6.984  15.670  0.00  0.00    +0.000 C 
ATOM     22  O   UNL     1      48.582   7.325  16.709  0.00  0.00    +0.000 OA
ATOM     23  H   UNL     1      49.002   5.935  13.882  0.00  0.00    +0.000 HD
BRANCH  21  24
ATOM     24  C   UNL     1      50.486   7.466  15.340  0.00  0.00    +0.000 A 
ATOM     25  C   UNL     1      51.500   7.404  16.288  0.00  0.00    +0.000 A 
ATOM     26  S   UNL     1      52.997   8.001  15.726  0.00  0.00    +0.000 S 
ATOM     27  C   UNL     1      52.333   8.402  14.215  0.00  0.00    +0.000 A 
ATOM     28  N   UNL     1      53.085   8.996  13.251  0.00  0.00    +0.000 NA
ATOM     29  C   UNL     1      52.443   9.274  12.166  0.00  0.00    +0.000 A 
ATOM     30  N   UNL     1      51.119   8.996  11.945  0.00  0.00    +0.000 N 
ATOM     31  C   UNL     1      50.335   8.346  12.868  0.00  0.00    +0.000 A 
ATOM     32  O   UNL     1      49.186   8.017  12.598  0.00  0.00    +0.000 OA
ATOM     33  C   UNL     1      50.997   8.051  14.123  0.00  0.00    +0.000 A 
ATOM     34  H   UNL     1      50.680   9.207  11.066  0.00  0.00    +0.000 HD
ENDBRANCH  21  24
ENDBRANCH   2  20
TORSDOF 6
ENDMDL
MODEL 7
REMARK VINA RESULT:    -8.046      2.200      2.634
REMARK INTER + INTRA:         -11.590
REMARK INTER:                 -10.316
REMARK INTRA:                  -1.274
REMARK UNBOUND:                -0.721
REMARK  Name = 
REMARK  7 active torsions:
REMARK  status: ('A' for Active; 'I' for Inactive)
REMARK    1  A    between atoms: C_1  and  C_2
REMARK    2  A    between atoms: C_2  and  N_3
REMARK    3  A    between atoms: C_2  and  C_16
REMARK    4  A    between atoms: C_4  and  C_6
REMARK    5  A    between atoms: C_19  and  C_20
REMARK    6  A    between atoms: C_20  and  N_21
REMARK    7  A    between atoms: C_22  and  C_24
REMARK                            x       y       z     vdW  Elec       q    Type
REMARK                         _______ _______ _______ _____ _____    ______ ____
ROOT
ATOM      1  C   UNL     1      47.716   3.139  15.416  0.00  0.00    +0.000 C 
ATOM      2  C   UNL     1      47.139   4.555  15.503  0.00  0.00    +0.000 C 
ENDROOT
BRANCH   2   3
ATOM      3  C   UNL     1      46.692   5.067  14.140  0.00  0.00    +0.000 A 
ATOM      4  C   UNL     1      45.497   4.576  13.595  0.00  0.00    +0.000 A 
ATOM      5  C   UNL     1      45.098   4.912  12.297  0.00  0.00    +0.000 A 
ATOM      6  C   UNL     1      45.884   5.756  11.504  0.00  0.00    +0.000 A 
ATOM      7  C   UNL     1      47.037   6.317  12.071  0.00  0.00    +0.000 A 
ATOM      8  C   UNL     1      47.443   5.975  13.372  0.00  0.00    +0.000 A 
BRANCH   6   9
ATOM      9  C   UNL     1      45.514   6.021  10.068  0.00  0.00    +0.000 C 
BRANCH   9  10
ATOM     10  N   UNL     1      45.964   4.982   9.172  0.00  0.00    +0.000 N 
ATOM     11  C   UNL     1      45.096   3.997   8.746  0.00  0.00    +0.000 C 
ATOM     12  O   UNL     1      43.915   3.965   9.093  0.00  0.00    +0.000 OA
ATOM     13  H   UNL     1      46.902   5.044   8.798  0.00  0.00    +0.000 HD
BRANCH  11  14
ATOM     14  C   UNL     1      45.714   2.988   7.778  0.00  0.00    +0.000 C 
ATOM     15  C   UNL     1      46.000   1.648   8.475  0.00  0.00    +0.000 C 
ATOM     16  C   UNL     1      46.774   0.701   7.567  0.00  0.00    +0.000 C 
ATOM     17  O   UNL     1      47.967   1.318   7.087  0.00  0.00    +0.000 OA
ATOM     18  C   UNL     1      47.697   2.481   6.312  0.00  0.00    +0.000 C 
ATOM     19  C   UNL     1      47.003   3.538   7.158  0.00  0.00    +0.000 C 
ENDBRANCH  11  14
ENDBRANCH   9  10
ENDBRANCH   6   9
ENDBRANCH   2   3
BRANCH   2  20
ATOM     20  N   UNL     1      48.071   5.458  16.144  0.00  0.00    +0.000 N 
ATOM     21  C   UNL     1      48.061   5.679  17.501  0.00  0.00    +0.000 C 
ATOM     22  O   UNL     1      47.228   5.167  18.244  0.00  0.00    +0.000 OA
ATOM     23  H   UNL     1      48.694   5.991  15.547  0.00  0.00    +0.000 HD
BRANCH  21  24
ATOM     24  C   UNL     1      49.136   6.521  18.036  0.00  0.00    +0.000 A 
ATOM     25  C   UNL     1      48.834   7.732  18.647  0.00  0.00    +0.000 A 
ATOM     26  S   UNL     1      50.208   8.571  19.215  0.00  0.00    +0.000 S 
ATOM     27  C   UNL     1      51.254   7.368  18.628  0.00  0.00    +0.000 A 
ATOM     28  N   UNL     1      52.602   7.484  18.757  0.00  0.00    +0.000 NA
ATOM     29  C   UNL     1      53.276   6.513  18.237  0.00  0.00    +0.000 A 
ATOM     30  N   UNL     1      52.725   5.423  17.614  0.00  0.00    +0.000 N 
ATOM     31  C   UNL     1      51.367   5.236  17.511  0.00  0.00    +0.000 A 
ATOM     32  O   UNL     1      50.909   4.200  17.044  0.00  0.00    +0.000 OA
ATOM     33  C   UNL     1      50.566   6.321  18.041  0.00  0.00    +0.000 A 
ATOM     34  H   UNL     1      53.300   4.681  17.256  0.00  0.00    +0.000 HD
ENDBRANCH  21  24
ENDBRANCH   2  20
TORSDOF 6
ENDMDL
MODEL 8
REMARK VINA RESULT:    -7.928      2.822      3.668
REMARK INTER + INTRA:         -11.429
REMARK INTER:                 -10.497
REMARK INTRA:                  -0.933
REMARK UNBOUND:                -0.721
REMARK  Name = 
REMARK  7 active torsions:
REMARK  status: ('A' for Active; 'I' for Inactive)
REMARK    1  A    between atoms: C_1  and  C_2
REMARK    2  A    between atoms: C_2  and  N_3
REMARK    3  A    between atoms: C_2  and  C_16
REMARK    4  A    between atoms: C_4  and  C_6
REMARK    5  A    between atoms: C_19  and  C_20
REMARK    6  A    between atoms: C_20  and  N_21
REMARK    7  A    between atoms: C_22  and  C_24
REMARK                            x       y       z     vdW  Elec       q    Type
REMARK                         _______ _______ _______ _____ _____    ______ ____
ROOT
ATOM      1  C   UNL     1      47.543   4.035  15.830  0.00  0.00    +0.000 C 
ATOM      2  C   UNL     1      47.280   5.327  15.050  0.00  0.00    +0.000 C 
ENDROOT
BRANCH   2   3
ATOM      3  C   UNL     1      46.526   5.061  13.754  0.00  0.00    +0.000 A 
ATOM      4  C   UNL     1      46.116   6.154  12.978  0.00  0.00    +0.000 A 
ATOM      5  C   UNL     1      45.312   5.980  11.845  0.00  0.00    +0.000 A 
ATOM      6  C   UNL     1      44.899   4.702  11.452  0.00  0.00    +0.000 A 
ATOM      7  C   UNL     1      45.374   3.599  12.174  0.00  0.00    +0.000 A 
ATOM      8  C   UNL     1      46.174   3.772  13.316  0.00  0.00    +0.000 A 
BRANCH   6   9
ATOM      9  C   UNL     1      43.939   4.528  10.304  0.00  0.00    +0.000 C 
BRANCH   9  10
ATOM     10  N   UNL     1      44.439   3.638   9.283  0.00  0.00    +0.000 N 
ATOM     11  C   UNL     1      45.415   4.058   8.402  0.00  0.00    +0.000 C 
ATOM     12  O   UNL     1      45.907   5.186   8.452  0.00  0.00    +0.000 OA
ATOM     13  H   UNL     1      44.120   2.679   9.284  0.00  0.00    +0.000 HD
BRANCH  11  14
ATOM     14  C   UNL     1      45.859   2.993   7.399  0.00  0.00    +0.000 C 
ATOM     15  C   UNL     1      46.372   1.732   8.113  0.00  0.00    +0.000 C 
ATOM     16  C   UNL     1      46.977   0.741   7.128  0.00  0.00    +0.000 C 
ATOM     17  O   UNL     1      47.995   1.360   6.344  0.00  0.00    +0.000 OA
ATOM     18  C   UNL     1      47.492   2.439   5.564  0.00  0.00    +0.000 C 
ATOM     19  C   UNL     1      46.943   3.537   6.462  0.00  0.00    +0.000 C 
ENDBRANCH  11  14
ENDBRANCH   9  10
ENDBRANCH   6   9
ENDBRANCH   2   3
BRANCH   2  20
ATOM     20  N   UNL     1      48.509   6.057  14.824  0.00  0.00    +0.000 N 
ATOM     21  C   UNL     1      49.051   6.890  15.774  0.00  0.00    +0.000 C 
ATOM     22  O   UNL     1      48.499   7.108  16.849  0.00  0.00    +0.000 OA
ATOM     23  H   UNL     1      48.928   5.997  13.903  0.00  0.00    +0.000 HD
BRANCH  21  24
ATOM     24  C   UNL     1      50.361   7.472  15.464  0.00  0.00    +0.000 A 
ATOM     25  C   UNL     1      50.449   8.596  14.652  0.00  0.00    +0.000 A 
ATOM     26  S   UNL     1      52.050   9.138  14.408  0.00  0.00    +0.000 S 
ATOM     27  C   UNL     1      52.681   7.867  15.342  0.00  0.00    +0.000 A 
ATOM     28  N   UNL     1      54.022   7.720  15.514  0.00  0.00    +0.000 NA
ATOM     29  C   UNL     1      54.361   6.692  16.219  0.00  0.00    +0.000 A 
ATOM     30  N   UNL     1      53.482   5.806  16.785  0.00  0.00    +0.000 N 
ATOM     31  C   UNL     1      52.118   5.947  16.685  0.00  0.00    +0.000 A 
ATOM     32  O   UNL     1      51.362   5.200  17.293  0.00  0.00    +0.000 OA
ATOM     33  C   UNL     1      51.685   7.062  15.866  0.00  0.00    +0.000 A 
ATOM     34  H   UNL     1      53.805   5.041  17.352  0.00  0.00    +0.000 HD
ENDBRANCH  21  24
ENDBRANCH   2  20
TORSDOF 6
ENDMDL
MODEL 9
REMARK VINA RESULT:    -7.791      3.206      3.966
REMARK INTER + INTRA:         -11.245
REMARK INTER:                 -10.044
REMARK INTRA:                  -1.201
REMARK UNBOUND:                -0.721
REMARK  Name = 
REMARK  7 active torsions:
REMARK  status: ('A' for Active; 'I' for Inactive)
REMARK    1  A    between atoms: C_1  and  C_2
REMARK    2  A    between atoms: C_2  and  N_3
REMARK    3  A    between atoms: C_2  and  C_16
REMARK    4  A    between atoms: C_4  and  C_6
REMARK    5  A    between atoms: C_19  and  C_20
REMARK    6  A    between atoms: C_20  and  N_21
REMARK    7  A    between atoms: C_22  and  C_24
REMARK                            x       y       z     vdW  Elec       q    Type
REMARK                         _______ _______ _______ _____ _____    ______ ____
ROOT
ATOM      1  C   UNL     1      46.952   3.589  17.220  0.00  0.00    +0.000 C 
ATOM      2  C   UNL     1      47.787   4.711  16.594  0.00  0.00    +0.000 C 
ENDROOT
BRANCH   2   3
ATOM      3  C   UNL     1      47.365   4.997  15.159  0.00  0.00    +0.000 A 
ATOM      4  C   UNL     1      47.832   6.164  14.540  0.00  0.00    +0.000 A 
ATOM      5  C   UNL     1      47.380   6.545  13.271  0.00  0.00    +0.000 A 
ATOM      6  C   UNL     1      46.447   5.762  12.581  0.00  0.00    +0.000 A 
ATOM      7  C   UNL     1      46.039   4.552  13.157  0.00  0.00    +0.000 A 
ATOM      8  C   UNL     1      46.487   4.171  14.434  0.00  0.00    +0.000 A 
BRANCH   6   9
ATOM      9  C   UNL     1      45.874   6.234  11.270  0.00  0.00    +0.000 C 
BRANCH   9  10
ATOM     10  N   UNL     1      45.979   5.246  10.223  0.00  0.00    +0.000 N 
ATOM     11  C   UNL     1      44.859   4.574   9.775  0.00  0.00    +0.000 C 
ATOM     12  O   UNL     1      43.736   4.790  10.231  0.00  0.00    +0.000 OA
ATOM     13  H   UNL     1      46.874   5.122   9.769  0.00  0.00    +0.000 HD
BRANCH  11  14
ATOM     14  C   UNL     1      45.130   3.582   8.644  0.00  0.00    +0.000 C 
ATOM     15  C   UNL     1      45.508   2.197   9.194  0.00  0.00    +0.000 C 
ATOM     16  C   UNL     1      45.948   1.256   8.079  0.00  0.00    +0.000 C 
ATOM     17  O   UNL     1      47.005   1.833   7.314  0.00  0.00    +0.000 OA
ATOM     18  C   UNL     1      46.610   3.045   6.680  0.00  0.00    +0.000 C 
ATOM     19  C   UNL     1      46.236   4.093   7.716  0.00  0.00    +0.000 C 
ENDBRANCH  11  14
ENDBRANCH   9  10
ENDBRANCH   6   9
ENDBRANCH   2   3
BRANCH   2  20
ATOM     20  N   UNL     1      49.202   4.425  16.697  0.00  0.00    +0.000 N 
ATOM     21  C   UNL     1      49.944   4.788  17.797  0.00  0.00    +0.000 C 
ATOM     22  O   UNL     1      49.465   5.422  18.732  0.00  0.00    +0.000 OA
ATOM     23  H   UNL     1      49.658   4.011  15.892  0.00  0.00    +0.000 HD
BRANCH  21  24
ATOM     24  C   UNL     1      51.337   4.329  17.828  0.00  0.00    +0.000 A 
ATOM     25  C   UNL     1      52.364   5.239  18.049  0.00  0.00    +0.000 A 
ATOM     26  S   UNL     1      53.916   4.526  18.060  0.00  0.00    +0.000 S 
ATOM     27  C   UNL     1      53.273   2.989  17.727  0.00  0.00    +0.000 A 
ATOM     28  N   UNL     1      54.081   1.907  17.571  0.00  0.00    +0.000 NA
ATOM     29  C   UNL     1      53.460   0.811  17.290  0.00  0.00    +0.000 A 
ATOM     30  N   UNL     1      52.101   0.690  17.167  0.00  0.00    +0.000 N 
ATOM     31  C   UNL     1      51.241   1.744  17.371  0.00  0.00    +0.000 A 
ATOM     32  O   UNL     1      50.028   1.577  17.359  0.00  0.00    +0.000 OA
ATOM     33  C   UNL     1      51.891   3.009  17.647  0.00  0.00    +0.000 A 
ATOM     34  H   UNL     1      51.670  -0.198  16.977  0.00  0.00    +0.000 HD
ENDBRANCH  21  24
ENDBRANCH   2  20
TORSDOF 6
ENDMDL
