MODEL 1
REMARK VINA RESULT:    -7.338      0.000      0.000
REMARK INTER + INTRA:         -10.601
REMARK INTER:                  -9.697
REMARK INTRA:                  -0.905
REMARK UNBOUND:                -0.905
REMARK  Name = 
REMARK  7 active torsions:
REMARK  status: ('A' for Active; 'I' for Inactive)
REMARK    1  A    between atoms: C_1  and  C_2
REMARK    2  A    between atoms: C_2  and  O_3
REMARK    3  A    between atoms: C_2  and  C_23
REMARK    4  A    between atoms: O_3  and  C_4
REMARK    5  A    between atoms: C_9  and  C_10
REMARK    6  A    between atoms: C_14  and  N_15
REMARK    7  A    between atoms: C_23  and  O_25
REMARK                            x       y       z     vdW  Elec       q    Type
REMARK                         _______ _______ _______ _____ _____    ______ ____
ROOT
ATOM      1  C   UNL     1      47.910   5.636  14.877  0.00  0.00    +0.000 A 
ATOM      2  C   UNL     1      48.272   6.931  14.569  0.00  0.00    +0.000 A 
ATOM      3  C   UNL     1      47.618   7.564  13.515  0.00  0.00    +0.000 A 
ATOM      4  C   UNL     1      46.662   6.863  12.791  0.00  0.00    +0.000 A 
ATOM      5  F   UNL     1      46.069   7.475  11.758  0.00  0.00    +0.000 F 
ATOM      6  C   UNL     1      46.357   5.551  13.146  0.00  0.00    +0.000 A 
ATOM      7  N   UNL     1      46.959   4.952  14.217  0.00  0.00    +0.000 NA
ENDROOT
BRANCH   6   8
ATOM      8  C   UNL     1      45.406   4.690  12.414  0.00  0.00    +0.000 A 
ATOM      9  C   UNL     1      44.175   4.336  12.990  0.00  0.00    +0.000 A 
ATOM     10  C   UNL     1      43.268   3.532  12.305  0.00  0.00    +0.000 A 
ATOM     11  C   UNL     1      43.574   3.080  11.022  0.00  0.00    +0.000 A 
ATOM     12  C   UNL     1      44.777   3.415  10.387  0.00  0.00    +0.000 A 
ATOM     13  C   UNL     1      45.676   4.213  11.117  0.00  0.00    +0.000 A 
BRANCH  12  14
ATOM     14  N   UNL     1      45.056   3.006   9.100  0.00  0.00    +0.000 N 
ATOM     15  C   UNL     1      45.174   1.593   8.715  0.00  0.00    +0.000 C 
ATOM     16  C   UNL     1      46.506   1.351   7.970  0.00  0.00    +0.000 C 
ATOM     17  N   UNL     1      46.685   2.237   6.801  0.00  0.00    +0.000 NA
ATOM     18  C   UNL     1      46.577   3.641   7.249  0.00  0.00    +0.000 C 
ATOM     19  C   UNL     1      45.266   3.968   8.008  0.00  0.00    +0.000 C 
ATOM     20  H   UNL     1      45.917   2.057   6.153  0.00  0.00    +0.000 HD
ENDBRANCH  12  14
ENDBRANCH   6   8
BRANCH   1  21
ATOM     21  O   UNL     1      48.538   5.033  15.943  0.00  0.00    +0.000 OA
BRANCH  21  23
ATOM     22  C   UNL     1      48.403   2.758  16.687  0.00  0.00    +0.000 C 
ATOM     23  C   UNL     1      47.734   4.133  16.711  0.00  0.00    +0.000 C 
BRANCH  23  24
ATOM     24  C   UNL     1      47.635   4.647  18.151  0.00  0.00    +0.000 C 
ATOM     25  O   UNL     1      48.511   4.549  18.999  0.00  0.00    +0.000 OA
BRANCH  24  26
ATOM     26  O   UNL     1      46.440   5.226  18.432  0.00  0.00    +0.000 OA
ATOM     27  H   UNL     1      45.722   4.908  17.849  0.00  0.00    +0.000 HD
ENDBRANCH  24  26
ENDBRANCH  23  24
ENDBRANCH  21  23
ENDBRANCH   1  21
TORSDOF 6
ENDMDL
MODEL 2
REMARK VINA RESULT:    -7.153      4.744      7.723
REMARK INTER + INTRA:         -10.357
REMARK INTER:                  -9.361
REMARK INTRA:                  -0.996
REMARK UNBOUND:                -0.905
REMARK  Name = 
REMARK  7 active torsions:
REMARK  status: ('A' for Active; 'I' for Inactive)
REMARK    1  A    between atoms: C_1  and  C_2
REMARK    2  A    between atoms: C_2  and  O_3
REMARK    3  A    between atoms: C_2  and  C_23
REMARK    4  A    between atoms: O_3  and  C_4
REMARK    5  A    between atoms: C_9  and  C_10
REMARK    6  A    between atoms: C_14  and  N_15
REMARK    7  A    between atoms: C_23  and  O_25
REMARK                            x       y       z     vdW  Elec       q    Type
REMARK                         _______ _______ _______ _____ _____    ______ ____
ROOT
ATOM      1  C   UNL     1      44.535   3.297   9.775  0.00  0.00    +0.000 A 
ATOM      2  C   UNL     1      43.880   2.420  10.615  0.00  0.00    +0.000 A 
ATOM      3  C   UNL     1      43.601   2.837  11.914  0.00  0.00    +0.000 A 
ATOM      4  C   UNL     1      44.025   4.093  12.329  0.00  0.00    +0.000 A 
ATOM      5  F   UNL     1      43.781   4.463  13.592  0.00  0.00    +0.000 F 
ATOM      6  C   UNL     1      44.698   4.921  11.433  0.00  0.00    +0.000 A 
ATOM      7  N   UNL     1      44.919   4.532  10.142  0.00  0.00    +0.000 NA
ENDROOT
BRANCH   6   8
ATOM      8  C   UNL     1      45.247   6.248  11.778  0.00  0.00    +0.000 A 
ATOM      9  C   UNL     1      46.474   6.358  12.453  0.00  0.00    +0.000 A 
ATOM     10  C   UNL     1      47.005   7.603  12.775  0.00  0.00    +0.000 A 
ATOM     11  C   UNL     1      46.322   8.764  12.412  0.00  0.00    +0.000 A 
ATOM     12  C   UNL     1      45.105   8.719  11.721  0.00  0.00    +0.000 A 
ATOM     13  C   UNL     1      44.590   7.443  11.429  0.00  0.00    +0.000 A 
BRANCH  12  14
ATOM     14  N   UNL     1      44.455   9.868  11.321  0.00  0.00    +0.000 N 
ATOM     15  C   UNL     1      43.140   9.860  10.668  0.00  0.00    +0.000 C 
ATOM     16  C   UNL     1      43.189  10.676   9.356  0.00  0.00    +0.000 C 
ATOM     17  N   UNL     1      43.675  12.058   9.553  0.00  0.00    +0.000 NA
ATOM     18  C   UNL     1      45.006  12.005  10.193  0.00  0.00    +0.000 C 
ATOM     19  C   UNL     1      45.044  11.202  11.518  0.00  0.00    +0.000 C 
ATOM     20  H   UNL     1      43.037  12.524  10.199  0.00  0.00    +0.000 HD
ENDBRANCH  12  14
ENDBRANCH   6   8
BRANCH   1  21
ATOM     21  O   UNL     1      44.774   2.887   8.483  0.00  0.00    +0.000 OA
BRANCH  21  23
ATOM     22  C   UNL     1      46.239   1.050   8.007  0.00  0.00    +0.000 C 
ATOM     23  C   UNL     1      46.133   2.567   8.173  0.00  0.00    +0.000 C 
BRANCH  23  24
ATOM     24  C   UNL     1      46.534   3.270   6.872  0.00  0.00    +0.000 C 
ATOM     25  O   UNL     1      46.531   2.758   5.762  0.00  0.00    +0.000 OA
BRANCH  24  26
ATOM     26  O   UNL     1      46.930   4.555   7.058  0.00  0.00    +0.000 OA
ATOM     27  H   UNL     1      47.466   4.894   6.315  0.00  0.00    +0.000 HD
ENDBRANCH  24  26
ENDBRANCH  23  24
ENDBRANCH  21  23
ENDBRANCH   1  21
TORSDOF 6
ENDMDL
MODEL 3
REMARK VINA RESULT:    -7.081      4.298      7.633
REMARK INTER + INTRA:         -10.262
REMARK INTER:                  -9.155
REMARK INTRA:                  -1.107
REMARK UNBOUND:                -0.905
REMARK  Name = 
REMARK  7 active torsions:
REMARK  status: ('A' for Active; 'I' for Inactive)
REMARK    1  A    between atoms: C_1  and  C_2
REMARK    2  A    between atoms: C_2  and  O_3
REMARK    3  A    between atoms: C_2  and  C_23
REMARK    4  A    between atoms: O_3  and  C_4
REMARK    5  A    between atoms: C_9  and  C_10
REMARK    6  A    between atoms: C_14  and  N_15
REMARK    7  A    between atoms: C_23  and  O_25
REMARK                            x       y       z     vdW  Elec       q    Type
REMARK                         _______ _______ _______ _____ _____    ______ ____
ROOT
ATOM      1  C   UNL     1      44.657   3.115   9.611  0.00  0.00    +0.000 A 
ATOM      2  C   UNL     1      43.874   2.333  10.435  0.00  0.00    +0.000 A 
ATOM      3  C   UNL     1      43.540   2.830  11.692  0.00  0.00    +0.000 A 
ATOM      4  C   UNL     1      44.038   4.066  12.087  0.00  0.00    +0.000 A 
ATOM      5  F   UNL     1      43.738   4.511  13.313  0.00  0.00    +0.000 F 
ATOM      6  C   UNL     1      44.839   4.795  11.210  0.00  0.00    +0.000 A 
ATOM      7  N   UNL     1      45.117   4.331   9.956  0.00  0.00    +0.000 NA
ENDROOT
BRANCH   6   8
ATOM      8  C   UNL     1      45.473   6.087  11.542  0.00  0.00    +0.000 A 
ATOM      9  C   UNL     1      44.726   7.276  11.515  0.00  0.00    +0.000 A 
ATOM     10  C   UNL     1      45.311   8.498  11.834  0.00  0.00    +0.000 A 
ATOM     11  C   UNL     1      46.655   8.548  12.202  0.00  0.00    +0.000 A 
ATOM     12  C   UNL     1      47.447   7.394  12.267  0.00  0.00    +0.000 A 
ATOM     13  C   UNL     1      46.826   6.181  11.919  0.00  0.00    +0.000 A 
BRANCH  12  14
ATOM     14  N   UNL     1      48.763   7.440  12.677  0.00  0.00    +0.000 N 
ATOM     15  C   UNL     1      49.167   7.367  14.087  0.00  0.00    +0.000 C 
ATOM     16  C   UNL     1      50.104   8.546  14.437  0.00  0.00    +0.000 C 
ATOM     17  N   UNL     1      51.283   8.631  13.551  0.00  0.00    +0.000 NA
ATOM     18  C   UNL     1      50.818   8.723  12.151  0.00  0.00    +0.000 C 
ATOM     19  C   UNL     1      49.870   7.575  11.718  0.00  0.00    +0.000 C 
ATOM     20  H   UNL     1      51.809   7.762  13.647  0.00  0.00    +0.000 HD
ENDBRANCH  12  14
ENDBRANCH   6   8
BRANCH   1  21
ATOM     21  O   UNL     1      44.950   2.629   8.358  0.00  0.00    +0.000 OA
BRANCH  21  23
ATOM     22  C   UNL     1      46.564   0.953   7.778  0.00  0.00    +0.000 C 
ATOM     23  C   UNL     1      46.340   2.436   8.074  0.00  0.00    +0.000 C 
BRANCH  23  24
ATOM     24  C   UNL     1      46.729   3.283   6.858  0.00  0.00    +0.000 C 
ATOM     25  O   UNL     1      46.904   2.855   5.726  0.00  0.00    +0.000 OA
BRANCH  24  26
ATOM     26  O   UNL     1      46.894   4.597   7.151  0.00  0.00    +0.000 OA
ATOM     27  H   UNL     1      47.735   4.957   6.805  0.00  0.00    +0.000 HD
ENDBRANCH  24  26
ENDBRANCH  23  24
ENDBRANCH  21  23
ENDBRANCH   1  21
TORSDOF 6
ENDMDL
MODEL 4
REMARK VINA RESULT:    -7.015      2.624      3.993
REMARK INTER + INTRA:         -10.175
REMARK INTER:                  -9.381
REMARK INTRA:                  -0.794
REMARK UNBOUND:                -0.905
REMARK  Name = 
REMARK  7 active torsions:
REMARK  status: ('A' for Active; 'I' for Inactive)
REMARK    1  A    between atoms: C_1  and  C_2
REMARK    2  A    between atoms: C_2  and  O_3
REMARK    3  A    between atoms: C_2  and  C_23
REMARK    4  A    between atoms: O_3  and  C_4
REMARK    5  A    between atoms: C_9  and  C_10
REMARK    6  A    between atoms: C_14  and  N_15
REMARK    7  A    between atoms: C_23  and  O_25
REMARK                            x       y       z     vdW  Elec       q    Type
REMARK                         _______ _______ _______ _____ _____    ______ ____
ROOT
ATOM      1  C   UNL     1      49.690   5.709  16.996  0.00  0.00    +0.000 A 
ATOM      2  C   UNL     1      50.334   6.840  17.456  0.00  0.00    +0.000 A 
ATOM      3  C   UNL     1      50.184   8.021  16.735  0.00  0.00    +0.000 A 
ATOM      4  C   UNL     1      49.434   8.012  15.566  0.00  0.00    +0.000 A 
ATOM      5  F   UNL     1      49.331   9.148  14.865  0.00  0.00    +0.000 F 
ATOM      6  C   UNL     1      48.825   6.830  15.150  0.00  0.00    +0.000 A 
ATOM      7  N   UNL     1      48.926   5.686  15.890  0.00  0.00    +0.000 NA
ENDROOT
BRANCH   6   8
ATOM      8  C   UNL     1      48.058   6.685  13.896  0.00  0.00    +0.000 A 
ATOM      9  C   UNL     1      48.472   7.342  12.726  0.00  0.00    +0.000 A 
ATOM     10  C   UNL     1      47.761   7.205  11.538  0.00  0.00    +0.000 A 
ATOM     11  C   UNL     1      46.628   6.394  11.496  0.00  0.00    +0.000 A 
ATOM     12  C   UNL     1      46.177   5.697  12.624  0.00  0.00    +0.000 A 
ATOM     13  C   UNL     1      46.910   5.874  13.812  0.00  0.00    +0.000 A 
BRANCH  12  14
ATOM     14  N   UNL     1      45.084   4.857  12.569  0.00  0.00    +0.000 N 
ATOM     15  C   UNL     1      45.179   3.442  12.190  0.00  0.00    +0.000 C 
ATOM     16  C   UNL     1      44.173   3.122  11.061  0.00  0.00    +0.000 C 
ATOM     17  N   UNL     1      42.783   3.488  11.404  0.00  0.00    +0.000 NA
ATOM     18  C   UNL     1      42.743   4.923  11.756  0.00  0.00    +0.000 C 
ATOM     19  C   UNL     1      43.727   5.328  12.883  0.00  0.00    +0.000 C 
ATOM     20  H   UNL     1      42.515   2.956  12.233  0.00  0.00    +0.000 HD
ENDBRANCH  12  14
ENDBRANCH   6   8
BRANCH   1  21
ATOM     21  O   UNL     1      49.816   4.556  17.737  0.00  0.00    +0.000 OA
BRANCH  21  23
ATOM     22  C   UNL     1      50.209   2.239  17.264  0.00  0.00    +0.000 C 
ATOM     23  C   UNL     1      49.204   3.389  17.180  0.00  0.00    +0.000 C 
BRANCH  23  24
ATOM     24  C   UNL     1      47.943   3.049  17.979  0.00  0.00    +0.000 C 
ATOM     25  O   UNL     1      46.820   2.927  17.511  0.00  0.00    +0.000 OA
BRANCH  24  26
ATOM     26  O   UNL     1      48.173   2.909  19.309  0.00  0.00    +0.000 OA
ATOM     27  H   UNL     1      47.418   2.506  19.782  0.00  0.00    +0.000 HD
ENDBRANCH  24  26
ENDBRANCH  23  24
ENDBRANCH  21  23
ENDBRANCH   1  21
TORSDOF 6
ENDMDL
MODEL 5
REMARK VINA RESULT:    -6.985      3.798      7.817
REMARK INTER + INTRA:         -10.135
REMARK INTER:                  -9.266
REMARK INTRA:                  -0.869
REMARK UNBOUND:                -0.905
REMARK  Name = 
REMARK  7 active torsions:
REMARK  status: ('A' for Active; 'I' for Inactive)
REMARK    1  A    between atoms: C_1  and  C_2
REMARK    2  A    between atoms: C_2  and  O_3
REMARK    3  A    between atoms: C_2  and  C_23
REMARK    4  A    between atoms: O_3  and  C_4
REMARK    5  A    between atoms: C_9  and  C_10
REMARK    6  A    between atoms: C_14  and  N_15
REMARK    7  A    between atoms: C_23  and  O_25
REMARK                            x       y       z     vdW  Elec       q    Type
REMARK                         _______ _______ _______ _____ _____    ______ ____
ROOT
ATOM      1  C   UNL     1      44.930   4.527   9.658  0.00  0.00    +0.000 A 
ATOM      2  C   UNL     1      43.588   4.450   9.968  0.00  0.00    +0.000 A 
ATOM      3  C   UNL     1      43.168   4.946  11.200  0.00  0.00    +0.000 A 
ATOM      4  C   UNL     1      44.110   5.456  12.084  0.00  0.00    +0.000 A 
ATOM      5  F   UNL     1      43.694   5.893  13.278  0.00  0.00    +0.000 F 
ATOM      6  C   UNL     1      45.453   5.486  11.712  0.00  0.00    +0.000 A 
ATOM      7  N   UNL     1      45.855   5.053  10.480  0.00  0.00    +0.000 NA
ENDROOT
BRANCH   6   8
ATOM      8  C   UNL     1      46.549   5.947  12.589  0.00  0.00    +0.000 A 
ATOM      9  C   UNL     1      47.350   7.037  12.216  0.00  0.00    +0.000 A 
ATOM     10  C   UNL     1      48.379   7.485  13.039  0.00  0.00    +0.000 A 
ATOM     11  C   UNL     1      48.614   6.856  14.261  0.00  0.00    +0.000 A 
ATOM     12  C   UNL     1      47.836   5.776  14.697  0.00  0.00    +0.000 A 
ATOM     13  C   UNL     1      46.818   5.340  13.831  0.00  0.00    +0.000 A 
BRANCH  12  14
ATOM     14  N   UNL     1      48.040   5.185  15.927  0.00  0.00    +0.000 N 
ATOM     15  C   UNL     1      48.966   5.723  16.931  0.00  0.00    +0.000 C 
ATOM     16  C   UNL     1      49.942   4.621  17.404  0.00  0.00    +0.000 C 
ATOM     17  N   UNL     1      49.253   3.416  17.909  0.00  0.00    +0.000 NA
ATOM     18  C   UNL     1      48.352   2.907  16.853  0.00  0.00    +0.000 C 
ATOM     19  C   UNL     1      47.339   3.954  16.322  0.00  0.00    +0.000 C 
ATOM     20  H   UNL     1      48.675   3.696  18.702  0.00  0.00    +0.000 HD
ENDBRANCH  12  14
ENDBRANCH   6   8
BRANCH   1  21
ATOM     21  O   UNL     1      45.328   4.067   8.424  0.00  0.00    +0.000 OA
BRANCH  21  23
ATOM     22  C   UNL     1      45.444   1.677   8.561  0.00  0.00    +0.000 C 
ATOM     23  C   UNL     1      46.248   2.971   8.435  0.00  0.00    +0.000 C 
BRANCH  23  24
ATOM     24  C   UNL     1      47.049   2.971   7.129  0.00  0.00    +0.000 C 
ATOM     25  O   UNL     1      47.965   2.206   6.861  0.00  0.00    +0.000 OA
BRANCH  24  26
ATOM     26  O   UNL     1      46.663   3.943   6.264  0.00  0.00    +0.000 OA
ATOM     27  H   UNL     1      47.388   4.231   5.674  0.00  0.00    +0.000 HD
ENDBRANCH  24  26
ENDBRANCH  23  24
ENDBRANCH  21  23
ENDBRANCH   1  21
TORSDOF 6
ENDMDL
MODEL 6
REMARK VINA RESULT:    -6.908      1.985      3.237
REMARK INTER + INTRA:         -10.034
REMARK INTER:                  -8.971
REMARK INTRA:                  -1.063
REMARK UNBOUND:                -0.905
REMARK  Name = 
REMARK  7 active torsions:
REMARK  status: ('A' for Active; 'I' for Inactive)
REMARK    1  A    between atoms: C_1  and  C_2
REMARK    2  A    between atoms: C_2  and  O_3
REMARK    3  A    between atoms: C_2  and  C_23
REMARK    4  A    between atoms: O_3  and  C_4
REMARK    5  A    between atoms: C_9  and  C_10
REMARK    6  A    between atoms: C_14  and  N_15
REMARK    7  A    between atoms: C_23  and  O_25
REMARK                            x       y       z     vdW  Elec       q    Type
REMARK                         _______ _______ _______ _____ _____    ______ ____
ROOT
ATOM      1  C   UNL     1      48.865   6.455  15.764  0.00  0.00    +0.000 A 
ATOM      2  C   UNL     1      50.131   6.907  15.455  0.00  0.00    +0.000 A 
ATOM      3  C   UNL     1      50.301   7.638  14.282  0.00  0.00    +0.000 A 
ATOM      4  C   UNL     1      49.209   7.848  13.449  0.00  0.00    +0.000 A 
ATOM      5  F   UNL     1      49.398   8.520  12.307  0.00  0.00    +0.000 F 
ATOM      6  C   UNL     1      47.961   7.348  13.815  0.00  0.00    +0.000 A 
ATOM      7  N   UNL     1      47.786   6.681  14.995  0.00  0.00    +0.000 NA
ENDROOT
BRANCH   6   8
ATOM      8  C   UNL     1      46.745   7.457  12.984  0.00  0.00    +0.000 A 
ATOM      9  C   UNL     1      46.191   8.713  12.691  0.00  0.00    +0.000 A 
ATOM     10  C   UNL     1      45.050   8.827  11.901  0.00  0.00    +0.000 A 
ATOM     11  C   UNL     1      44.453   7.681  11.377  0.00  0.00    +0.000 A 
ATOM     12  C   UNL     1      44.970   6.402  11.617  0.00  0.00    +0.000 A 
ATOM     13  C   UNL     1      46.112   6.325  12.435  0.00  0.00    +0.000 A 
BRANCH  12  14
ATOM     14  N   UNL     1      44.404   5.274  11.059  0.00  0.00    +0.000 N 
ATOM     15  C   UNL     1      43.141   4.693  11.531  0.00  0.00    +0.000 C 
ATOM     16  C   UNL     1      43.323   3.187  11.827  0.00  0.00    +0.000 C 
ATOM     17  N   UNL     1      43.857   2.431  10.675  0.00  0.00    +0.000 NA
ATOM     18  C   UNL     1      45.135   3.046  10.256  0.00  0.00    +0.000 C 
ATOM     19  C   UNL     1      45.039   4.560   9.941  0.00  0.00    +0.000 C 
ATOM     20  H   UNL     1      43.197   2.530   9.904  0.00  0.00    +0.000 HD
ENDBRANCH  12  14
ENDBRANCH   6   8
BRANCH   1  21
ATOM     21  O   UNL     1      48.703   5.766  16.944  0.00  0.00    +0.000 OA
BRANCH  21  23
ATOM     22  C   UNL     1      49.612   3.618  17.499  0.00  0.00    +0.000 C 
ATOM     23  C   UNL     1      48.463   4.360  16.815  0.00  0.00    +0.000 C 
BRANCH  23  24
ATOM     24  C   UNL     1      47.133   4.011  17.489  0.00  0.00    +0.000 C 
ATOM     25  O   UNL     1      46.569   2.928  17.422  0.00  0.00    +0.000 OA
BRANCH  24  26
ATOM     26  O   UNL     1      46.592   5.048  18.176  0.00  0.00    +0.000 OA
ATOM     27  H   UNL     1      46.331   5.790  17.595  0.00  0.00    +0.000 HD
ENDBRANCH  24  26
ENDBRANCH  23  24
ENDBRANCH  21  23
ENDBRANCH   1  21
TORSDOF 6
ENDMDL
MODEL 7
REMARK VINA RESULT:    -6.707      4.415      5.865
REMARK INTER + INTRA:          -9.768
REMARK INTER:                  -8.798
REMARK INTRA:                  -0.970
REMARK UNBOUND:                -0.905
REMARK  Name = 
REMARK  7 active torsions:
REMARK  status: ('A' for Active; 'I' for Inactive)
REMARK    1  A    between atoms: C_1  and  C_2
REMARK    2  A    between atoms: C_2  and  O_3
REMARK    3  A    between atoms: C_2  and  C_23
REMARK    4  A    between atoms: O_3  and  C_4
REMARK    5  A    between atoms: C_9  and  C_10
REMARK    6  A    between atoms: C_14  and  N_15
REMARK    7  A    between atoms: C_23  and  O_25
REMARK                            x       y       z     vdW  Elec       q    Type
REMARK                         _______ _______ _______ _____ _____    ______ ____
ROOT
ATOM      1  C   UNL     1      44.779   9.264  11.707  0.00  0.00    +0.000 A 
ATOM      2  C   UNL     1      45.815   9.607  12.550  0.00  0.00    +0.000 A 
ATOM      3  C   UNL     1      46.586   8.584  13.095  0.00  0.00    +0.000 A 
ATOM      4  C   UNL     1      46.262   7.264  12.809  0.00  0.00    +0.000 A 
ATOM      5  F   UNL     1      46.990   6.292  13.371  0.00  0.00    +0.000 F 
ATOM      6  C   UNL     1      45.190   6.988  11.962  0.00  0.00    +0.000 A 
ATOM      7  N   UNL     1      44.471   7.996  11.382  0.00  0.00    +0.000 NA
ENDROOT
BRANCH   6   8
ATOM      8  C   UNL     1      44.716   5.629  11.635  0.00  0.00    +0.000 A 
ATOM      9  C   UNL     1      43.838   4.952  12.498  0.00  0.00    +0.000 A 
ATOM     10  C   UNL     1      43.378   3.674  12.195  0.00  0.00    +0.000 A 
ATOM     11  C   UNL     1      43.779   3.056  11.011  0.00  0.00    +0.000 A 
ATOM     12  C   UNL     1      44.637   3.686  10.102  0.00  0.00    +0.000 A 
ATOM     13  C   UNL     1      45.095   4.969  10.450  0.00  0.00    +0.000 A 
BRANCH  12  14
ATOM     14  N   UNL     1      44.994   3.091   8.909  0.00  0.00    +0.000 N 
ATOM     15  C   UNL     1      45.065   1.636   8.729  0.00  0.00    +0.000 C 
ATOM     16  C   UNL     1      46.437   1.236   8.140  0.00  0.00    +0.000 C 
ATOM     17  N   UNL     1      46.755   1.942   6.882  0.00  0.00    +0.000 NA
ATOM     18  C   UNL     1      46.689   3.398   7.127  0.00  0.00    +0.000 C 
ATOM     19  C   UNL     1      45.342   3.883   7.720  0.00  0.00    +0.000 C 
ATOM     20  H   UNL     1      46.032   1.708   6.201  0.00  0.00    +0.000 HD
ENDBRANCH  12  14
ENDBRANCH   6   8
BRANCH   1  21
ATOM     21  O   UNL     1      44.047  10.285  11.146  0.00  0.00    +0.000 OA
BRANCH  21  23
ATOM     22  C   UNL     1      41.657  10.137  11.010  0.00  0.00    +0.000 C 
ATOM     23  C   UNL     1      42.978   9.884  10.282  0.00  0.00    +0.000 C 
BRANCH  23  24
ATOM     24  C   UNL     1      43.037  10.706   8.991  0.00  0.00    +0.000 C 
ATOM     25  O   UNL     1      43.890  10.597   8.121  0.00  0.00    +0.000 OA
BRANCH  24  26
ATOM     26  O   UNL     1      42.038  11.619   8.891  0.00  0.00    +0.000 OA
ATOM     27  H   UNL     1      41.326  11.471   9.545  0.00  0.00    +0.000 HD
ENDBRANCH  24  26
ENDBRANCH  23  24
ENDBRANCH  21  23
ENDBRANCH   1  21
TORSDOF 6
ENDMDL
MODEL 8
REMARK VINA RESULT:    -6.587      4.626      7.295
REMARK INTER + INTRA:          -9.609
REMARK INTER:                  -8.801
REMARK INTRA:                  -0.808
REMARK UNBOUND:                -0.905
REMARK  Name = 
REMARK  7 active torsions:
REMARK  status: ('A' for Active; 'I' for Inactive)
REMARK    1  A    between atoms: C_1  and  C_2
REMARK    2  A    between atoms: C_2  and  O_3
REMARK    3  A    between atoms: C_2  and  C_23
REMARK    4  A    between atoms: O_3  and  C_4
REMARK    5  A    between atoms: C_9  and  C_10
REMARK    6  A    between atoms: C_14  and  N_15
REMARK    7  A    between atoms: C_23  and  O_25
REMARK                            x       y       z     vdW  Elec       q    Type
REMARK                         _______ _______ _______ _____ _____    ______ ____
ROOT
ATOM      1  C   UNL     1      45.361   4.115  11.820  0.00  0.00    +0.000 A 
ATOM      2  C   UNL     1      45.978   3.366  12.800  0.00  0.00    +0.000 A 
ATOM      3  C   UNL     1      46.759   4.030  13.742  0.00  0.00    +0.000 A 
ATOM      4  C   UNL     1      46.925   5.405  13.638  0.00  0.00    +0.000 A 
ATOM      5  F   UNL     1      47.710   6.023  14.529  0.00  0.00    +0.000 F 
ATOM      6  C   UNL     1      46.287   6.098  12.610  0.00  0.00    +0.000 A 
ATOM      7  N   UNL     1      45.474   5.451  11.722  0.00  0.00    +0.000 NA
ENDROOT
BRANCH   6   8
ATOM      8  C   UNL     1      46.438   7.546  12.364  0.00  0.00    +0.000 A 
ATOM      9  C   UNL     1      47.701   8.155  12.441  0.00  0.00    +0.000 A 
ATOM     10  C   UNL     1      47.856   9.517  12.202  0.00  0.00    +0.000 A 
ATOM     11  C   UNL     1      46.747  10.293  11.865  0.00  0.00    +0.000 A 
ATOM     12  C   UNL     1      45.465   9.739  11.753  0.00  0.00    +0.000 A 
ATOM     13  C   UNL     1      45.345   8.363  12.020  0.00  0.00    +0.000 A 
BRANCH  12  14
ATOM     14  N   UNL     1      44.378  10.499  11.374  0.00  0.00    +0.000 N 
ATOM     15  C   UNL     1      43.127   9.914  10.873  0.00  0.00    +0.000 C 
ATOM     16  C   UNL     1      42.735  10.564   9.526  0.00  0.00    +0.000 C 
ATOM     17  N   UNL     1      42.641  12.037   9.600  0.00  0.00    +0.000 NA
ATOM     18  C   UNL     1      43.929  12.570  10.089  0.00  0.00    +0.000 C 
ATOM     19  C   UNL     1      44.397  11.968  11.438  0.00  0.00    +0.000 C 
ATOM     20  H   UNL     1      41.926  12.269  10.289  0.00  0.00    +0.000 HD
ENDBRANCH  12  14
ENDBRANCH   6   8
BRANCH   1  21
ATOM     21  O   UNL     1      44.563   3.452  10.916  0.00  0.00    +0.000 OA
BRANCH  21  23
ATOM     22  C   UNL     1      44.546   1.791   9.187  0.00  0.00    +0.000 C 
ATOM     23  C   UNL     1      45.189   3.087   9.682  0.00  0.00    +0.000 C 
BRANCH  23  24
ATOM     24  C   UNL     1      44.977   4.207   8.658  0.00  0.00    +0.000 C 
ATOM     25  O   UNL     1      45.851   4.698   7.957  0.00  0.00    +0.000 OA
BRANCH  24  26
ATOM     26  O   UNL     1      43.695   4.647   8.603  0.00  0.00    +0.000 OA
ATOM     27  H   UNL     1      43.159   4.163   7.944  0.00  0.00    +0.000 HD
ENDBRANCH  24  26
ENDBRANCH  23  24
ENDBRANCH  21  23
ENDBRANCH   1  21
TORSDOF 6
ENDMDL
MODEL 9
REMARK VINA RESULT:    -6.575      1.749      2.436
REMARK INTER + INTRA:          -9.594
REMARK INTER:                  -8.601
REMARK INTRA:                  -0.993
REMARK UNBOUND:                -0.905
REMARK  Name = 
REMARK  7 active torsions:
REMARK  status: ('A' for Active; 'I' for Inactive)
REMARK    1  A    between atoms: C_1  and  C_2
REMARK    2  A    between atoms: C_2  and  O_3
REMARK    3  A    between atoms: C_2  and  C_23
REMARK    4  A    between atoms: O_3  and  C_4
REMARK    5  A    between atoms: C_9  and  C_10
REMARK    6  A    between atoms: C_14  and  N_15
REMARK    7  A    between atoms: C_23  and  O_25
REMARK                            x       y       z     vdW  Elec       q    Type
REMARK                         _______ _______ _______ _____ _____    ______ ____
ROOT
ATOM      1  C   UNL     1      46.805   7.979  13.508  0.00  0.00    +0.000 A 
ATOM      2  C   UNL     1      46.344   9.180  13.010  0.00  0.00    +0.000 A 
ATOM      3  C   UNL     1      45.270   9.157  12.125  0.00  0.00    +0.000 A 
ATOM      4  C   UNL     1      44.732   7.934  11.743  0.00  0.00    +0.000 A 
ATOM      5  F   UNL     1      43.724   7.929  10.862  0.00  0.00    +0.000 F 
ATOM      6  C   UNL     1      45.259   6.757  12.271  0.00  0.00    +0.000 A 
ATOM      7  N   UNL     1      46.275   6.786  13.185  0.00  0.00    +0.000 NA
ENDROOT
BRANCH   6   8
ATOM      8  C   UNL     1      44.810   5.402  11.894  0.00  0.00    +0.000 A 
ATOM      9  C   UNL     1      44.002   4.650  12.762  0.00  0.00    +0.000 A 
ATOM     10  C   UNL     1      43.567   3.375  12.412  0.00  0.00    +0.000 A 
ATOM     11  C   UNL     1      43.921   2.836  11.176  0.00  0.00    +0.000 A 
ATOM     12  C   UNL     1      44.708   3.545  10.259  0.00  0.00    +0.000 A 
ATOM     13  C   UNL     1      45.145   4.822  10.655  0.00  0.00    +0.000 A 
BRANCH  12  14
ATOM     14  N   UNL     1      45.018   3.029   9.018  0.00  0.00    +0.000 N 
ATOM     15  C   UNL     1      45.104   1.588   8.748  0.00  0.00    +0.000 C 
ATOM     16  C   UNL     1      46.453   1.250   8.073  0.00  0.00    +0.000 C 
ATOM     17  N   UNL     1      46.699   2.036   6.846  0.00  0.00    +0.000 NA
ATOM     18  C   UNL     1      46.621   3.473   7.181  0.00  0.00    +0.000 C 
ATOM     19  C   UNL     1      45.296   3.897   7.864  0.00  0.00    +0.000 C 
ATOM     20  H   UNL     1      45.949   1.828   6.187  0.00  0.00    +0.000 HD
ENDBRANCH  12  14
ENDBRANCH   6   8
BRANCH   1  21
ATOM     21  O   UNL     1      47.844   8.017  14.410  0.00  0.00    +0.000 OA
BRANCH  21  23
ATOM     22  C   UNL     1      50.128   7.593  13.816  0.00  0.00    +0.000 C 
ATOM     23  C   UNL     1      48.813   6.971  14.288  0.00  0.00    +0.000 C 
BRANCH  23  24
ATOM     24  C   UNL     1      49.006   6.299  15.651  0.00  0.00    +0.000 C 
ATOM     25  O   UNL     1      49.709   6.725  16.556  0.00  0.00    +0.000 OA
BRANCH  24  26
ATOM     26  O   UNL     1      48.324   5.133  15.774  0.00  0.00    +0.000 OA
ATOM     27  H   UNL     1      48.708   4.413  15.235  0.00  0.00    +0.000 HD
ENDBRANCH  24  26
ENDBRANCH  23  24
ENDBRANCH  21  23
ENDBRANCH   1  21
TORSDOF 6
ENDMDL
