MODEL 1
REMARK VINA RESULT:    -8.645      0.000      0.000
REMARK INTER + INTRA:         -13.969
REMARK INTER:                 -12.688
REMARK INTRA:                  -1.280
REMARK UNBOUND:                -1.280
REMARK  Name = 
REMARK  10 active torsions:
REMARK  status: ('A' for Active; 'I' for Inactive)
REMARK    1  A    between atoms: C_1  and  O_2
REMARK    2  A    between atoms: O_2  and  C_3
REMARK    3  A    between atoms: C_5  and  O_6
REMARK    4  A    between atoms: O_6  and  C_7
REMARK    5  A    between atoms: C_12  and  C_13
REMARK    6  A    between atoms: C_13  and  C_14
REMARK    7  A    between atoms: C_13  and  C_15
REMARK    8  A    between atoms: C_15  and  O_16
REMARK    9  A    between atoms: O_16  and  C_17
REMARK   10  A    between atoms: C_20  and  C_21
REMARK                            x       y       z     vdW  Elec       q    Type
REMARK                         _______ _______ _______ _____ _____    ______ ____
ROOT
ATOM      1  C   UNL     1      43.570   4.497  12.607  0.00  0.00    +0.000 C 
ATOM      2  C   UNL     1      42.562   5.433  11.928  0.00  0.00    +0.000 C 
ENDROOT
BRANCH   1   7
ATOM      3  C   UNL     1      46.325   7.176  12.690  0.00  0.00    +0.000 A 
ATOM      4  C   UNL     1      47.247   6.592  13.560  0.00  0.00    +0.000 A 
ATOM      5  C   UNL     1      47.036   5.296  14.024  0.00  0.00    +0.000 A 
ATOM      6  C   UNL     1      45.866   4.613  13.679  0.00  0.00    +0.000 A 
ATOM      7  C   UNL     1      44.889   5.211  12.867  0.00  0.00    +0.000 A 
ATOM      8  C   UNL     1      45.152   6.491  12.351  0.00  0.00    +0.000 A 
BRANCH   3  10
ATOM      9  C   UNL     1      45.227   9.183  12.093  0.00  0.00    +0.000 C 
ATOM     10  O   UNL     1      46.439   8.437  12.161  0.00  0.00    +0.000 OA
ENDBRANCH   3  10
BRANCH   5  11
ATOM     11  O   UNL     1      47.890   4.624  14.869  0.00  0.00    +0.000 OA
BRANCH  11  12
ATOM     12  C   UNL     1      47.337   3.812  15.931  0.00  0.00    +0.000 C 
ATOM     13  C   UNL     1      47.344   4.415  17.354  0.00  0.00    +0.000 C 
ATOM     14  C   UNL     1      47.987   3.131  17.890  0.00  0.00    +0.000 C 
ATOM     15  C   UNL     1      48.288   2.704  16.448  0.00  0.00    +0.000 C 
ENDBRANCH  11  12
ENDBRANCH   5  11
ENDBRANCH   1   7
BRANCH   1  16
ATOM     16  C   UNL     1      43.763   3.200  11.806  0.00  0.00    +0.000 C 
BRANCH  16  17
ATOM     17  O   UNL     1      43.383   3.409  10.438  0.00  0.00    +0.000 OA
BRANCH  17  18
ATOM     18  C   UNL     1      44.368   3.229   9.503  0.00  0.00    +0.000 A 
ATOM     19  C   UNL     1      44.989   4.250   8.785  0.00  0.00    +0.000 A 
ATOM     20  C   UNL     1      46.000   3.952   7.870  0.00  0.00    +0.000 A 
ATOM     21  C   UNL     1      46.410   2.634   7.668  0.00  0.00    +0.000 A 
ATOM     22  C   UNL     1      45.773   1.600   8.368  0.00  0.00    +0.000 A 
ATOM     23  C   UNL     1      44.756   1.902   9.280  0.00  0.00    +0.000 A 
BRANCH  21  24
ATOM     24  C   UNL     1      47.497   2.389   6.685  0.00  0.00    +0.000 C 
ATOM     25  N   UNL     1      47.463   3.085   5.512  0.00  0.00    +0.000 N 
ATOM     26  O   UNL     1      48.373   1.552   6.890  0.00  0.00    +0.000 OA
ATOM     27  H   UNL     1      46.659   3.616   5.208  0.00  0.00    +0.000 HD
ATOM     28  H   UNL     1      48.145   2.818   4.814  0.00  0.00    +0.000 HD
ENDBRANCH  21  24
ENDBRANCH  17  18
ENDBRANCH  16  17
ENDBRANCH   1  16
TORSDOF 8
ENDMDL
MODEL 2
REMARK VINA RESULT:    -8.375      0.733      4.100
REMARK INTER + INTRA:         -13.573
REMARK INTER:                 -12.355
REMARK INTRA:                  -1.217
REMARK UNBOUND:                -1.280
REMARK  Name = 
REMARK  10 active torsions:
REMARK  status: ('A' for Active; 'I' for Inactive)
REMARK    1  A    between atoms: C_1  and  O_2
REMARK    2  A    between atoms: O_2  and  C_3
REMARK    3  A    between atoms: C_5  and  O_6
REMARK    4  A    between atoms: O_6  and  C_7
REMARK    5  A    between atoms: C_12  and  C_13
REMARK    6  A    between atoms: C_13  and  C_14
REMARK    7  A    between atoms: C_13  and  C_15
REMARK    8  A    between atoms: C_15  and  O_16
REMARK    9  A    between atoms: O_16  and  C_17
REMARK   10  A    between atoms: C_20  and  C_21
REMARK                            x       y       z     vdW  Elec       q    Type
REMARK                         _______ _______ _______ _____ _____    ______ ____
ROOT
ATOM      1  C   UNL     1      43.464   4.325  12.527  0.00  0.00    +0.000 C 
ATOM      2  C   UNL     1      42.459   5.368  12.017  0.00  0.00    +0.000 C 
ENDROOT
BRANCH   1   7
ATOM      3  C   UNL     1      46.951   4.935  14.024  0.00  0.00    +0.000 A 
ATOM      4  C   UNL     1      47.331   6.104  13.363  0.00  0.00    +0.000 A 
ATOM      5  C   UNL     1      46.424   6.754  12.529  0.00  0.00    +0.000 A 
ATOM      6  C   UNL     1      45.164   6.193  12.296  0.00  0.00    +0.000 A 
ATOM      7  C   UNL     1      44.790   4.978  12.891  0.00  0.00    +0.000 A 
ATOM      8  C   UNL     1      45.691   4.374  13.784  0.00  0.00    +0.000 A 
BRANCH   3  10
ATOM      9  C   UNL     1      47.321   4.179  16.233  0.00  0.00    +0.000 C 
ATOM     10  O   UNL     1      47.755   4.223  14.877  0.00  0.00    +0.000 OA
ENDBRANCH   3  10
BRANCH   5  11
ATOM     11  O   UNL     1      46.692   7.919  11.846  0.00  0.00    +0.000 OA
BRANCH  11  12
ATOM     12  C   UNL     1      46.360   9.187  12.457  0.00  0.00    +0.000 C 
ATOM     13  C   UNL     1      45.022   9.840  12.038  0.00  0.00    +0.000 C 
ATOM     14  C   UNL     1      45.758  11.157  11.761  0.00  0.00    +0.000 C 
ATOM     15  C   UNL     1      47.092  10.404  11.839  0.00  0.00    +0.000 C 
ENDBRANCH  11  12
ENDBRANCH   5  11
ENDBRANCH   1   7
BRANCH   1  16
ATOM     16  C   UNL     1      43.641   3.176  11.523  0.00  0.00    +0.000 C 
BRANCH  16  17
ATOM     17  O   UNL     1      43.563   3.681  10.182  0.00  0.00    +0.000 OA
BRANCH  17  18
ATOM     18  C   UNL     1      44.564   3.295   9.331  0.00  0.00    +0.000 A 
ATOM     19  C   UNL     1      45.001   1.984   9.148  0.00  0.00    +0.000 A 
ATOM     20  C   UNL     1      46.018   1.702   8.234  0.00  0.00    +0.000 A 
ATOM     21  C   UNL     1      46.604   2.724   7.486  0.00  0.00    +0.000 A 
ATOM     22  C   UNL     1      46.187   4.048   7.682  0.00  0.00    +0.000 A 
ATOM     23  C   UNL     1      45.172   4.326   8.604  0.00  0.00    +0.000 A 
BRANCH  21  24
ATOM     24  C   UNL     1      47.675   2.352   6.525  0.00  0.00    +0.000 C 
ATOM     25  N   UNL     1      47.771   3.072   5.369  0.00  0.00    +0.000 N 
ATOM     26  O   UNL     1      48.422   1.399   6.731  0.00  0.00    +0.000 OA
ATOM     27  H   UNL     1      47.056   3.715   5.059  0.00  0.00    +0.000 HD
ATOM     28  H   UNL     1      48.430   2.730   4.683  0.00  0.00    +0.000 HD
ENDBRANCH  21  24
ENDBRANCH  17  18
ENDBRANCH  16  17
ENDBRANCH   1  16
TORSDOF 8
ENDMDL
MODEL 3
REMARK VINA RESULT:    -7.668      1.715      3.909
REMARK INTER + INTRA:         -12.534
REMARK INTER:                 -11.298
REMARK INTRA:                  -1.236
REMARK UNBOUND:                -1.280
REMARK  Name = 
REMARK  10 active torsions:
REMARK  status: ('A' for Active; 'I' for Inactive)
REMARK    1  A    between atoms: C_1  and  O_2
REMARK    2  A    between atoms: O_2  and  C_3
REMARK    3  A    between atoms: C_5  and  O_6
REMARK    4  A    between atoms: O_6  and  C_7
REMARK    5  A    between atoms: C_12  and  C_13
REMARK    6  A    between atoms: C_13  and  C_14
REMARK    7  A    between atoms: C_13  and  C_15
REMARK    8  A    between atoms: C_15  and  O_16
REMARK    9  A    between atoms: O_16  and  C_17
REMARK   10  A    between atoms: C_20  and  C_21
REMARK                            x       y       z     vdW  Elec       q    Type
REMARK                         _______ _______ _______ _____ _____    ______ ____
ROOT
ATOM      1  C   UNL     1      44.416   4.532  12.113  0.00  0.00    +0.000 C 
ATOM      2  C   UNL     1      43.362   4.292  13.202  0.00  0.00    +0.000 C 
ENDROOT
BRANCH   1   7
ATOM      3  C   UNL     1      47.503   5.244  14.289  0.00  0.00    +0.000 A 
ATOM      4  C   UNL     1      48.086   6.306  13.597  0.00  0.00    +0.000 A 
ATOM      5  C   UNL     1      47.428   6.864  12.504  0.00  0.00    +0.000 A 
ATOM      6  C   UNL     1      46.223   6.310  12.056  0.00  0.00    +0.000 A 
ATOM      7  C   UNL     1      45.660   5.193  12.691  0.00  0.00    +0.000 A 
ATOM      8  C   UNL     1      46.301   4.688  13.835  0.00  0.00    +0.000 A 
BRANCH   3  10
ATOM      9  C   UNL     1      47.122   4.147  16.349  0.00  0.00    +0.000 C 
ATOM     10  O   UNL     1      48.054   4.628  15.385  0.00  0.00    +0.000 OA
ENDBRANCH   3  10
BRANCH   5  11
ATOM     11  O   UNL     1      47.906   7.922  11.764  0.00  0.00    +0.000 OA
BRANCH  11  12
ATOM     12  C   UNL     1      48.869   8.822  12.362  0.00  0.00    +0.000 C 
ATOM     13  C   UNL     1      48.316   9.919  13.301  0.00  0.00    +0.000 C 
ATOM     14  C   UNL     1      49.115  10.975  12.527  0.00  0.00    +0.000 C 
ATOM     15  C   UNL     1      49.363   9.946  11.419  0.00  0.00    +0.000 C 
ENDBRANCH  11  12
ENDBRANCH   5  11
ENDBRANCH   1   7
BRANCH   1  16
ATOM     16  C   UNL     1      43.836   5.326  10.932  0.00  0.00    +0.000 C 
BRANCH  16  17
ATOM     17  O   UNL     1      43.417   4.425   9.896  0.00  0.00    +0.000 OA
BRANCH  17  18
ATOM     18  C   UNL     1      44.416   3.836   9.168  0.00  0.00    +0.000 A 
ATOM     19  C   UNL     1      45.348   4.517   8.386  0.00  0.00    +0.000 A 
ATOM     20  C   UNL     1      46.340   3.814   7.701  0.00  0.00    +0.000 A 
ATOM     21  C   UNL     1      46.420   2.424   7.796  0.00  0.00    +0.000 A 
ATOM     22  C   UNL     1      45.472   1.730   8.560  0.00  0.00    +0.000 A 
ATOM     23  C   UNL     1      44.475   2.438   9.240  0.00  0.00    +0.000 A 
BRANCH  21  24
ATOM     24  C   UNL     1      47.506   1.739   7.048  0.00  0.00    +0.000 C 
ATOM     25  N   UNL     1      48.495   2.513   6.511  0.00  0.00    +0.000 N 
ATOM     26  O   UNL     1      47.497   0.524   6.869  0.00  0.00    +0.000 OA
ATOM     27  H   UNL     1      48.435   3.519   6.446  0.00  0.00    +0.000 HD
ATOM     28  H   UNL     1      49.158   2.038   5.912  0.00  0.00    +0.000 HD
ENDBRANCH  21  24
ENDBRANCH  17  18
ENDBRANCH  16  17
ENDBRANCH   1  16
TORSDOF 8
ENDMDL
MODEL 4
REMARK VINA RESULT:    -7.477      1.825      2.176
REMARK INTER + INTRA:         -12.254
REMARK INTER:                 -11.077
REMARK INTRA:                  -1.177
REMARK UNBOUND:                -1.280
REMARK  Name = 
REMARK  10 active torsions:
REMARK  status: ('A' for Active; 'I' for Inactive)
REMARK    1  A    between atoms: C_1  and  O_2
REMARK    2  A    between atoms: O_2  and  C_3
REMARK    3  A    between atoms: C_5  and  O_6
REMARK    4  A    between atoms: O_6  and  C_7
REMARK    5  A    between atoms: C_12  and  C_13
REMARK    6  A    between atoms: C_13  and  C_14
REMARK    7  A    between atoms: C_13  and  C_15
REMARK    8  A    between atoms: C_15  and  O_16
REMARK    9  A    between atoms: O_16  and  C_17
REMARK   10  A    between atoms: C_20  and  C_21
REMARK                            x       y       z     vdW  Elec       q    Type
REMARK                         _______ _______ _______ _____ _____    ______ ____
ROOT
ATOM      1  C   UNL     1      44.934   4.882  12.108  0.00  0.00    +0.000 C 
ATOM      2  C   UNL     1      43.939   4.786  13.273  0.00  0.00    +0.000 C 
ENDROOT
BRANCH   1   7
ATOM      3  C   UNL     1      48.016   7.174  12.254  0.00  0.00    +0.000 A 
ATOM      4  C   UNL     1      48.521   6.872  13.520  0.00  0.00    +0.000 A 
ATOM      5  C   UNL     1      47.940   5.855  14.272  0.00  0.00    +0.000 A 
ATOM      6  C   UNL     1      46.806   5.190  13.791  0.00  0.00    +0.000 A 
ATOM      7  C   UNL     1      46.237   5.532  12.554  0.00  0.00    +0.000 A 
ATOM      8  C   UNL     1      46.879   6.511  11.779  0.00  0.00    +0.000 A 
BRANCH   3  10
ATOM      9  C   UNL     1      49.794   8.661  11.788  0.00  0.00    +0.000 C 
ATOM     10  O   UNL     1      48.518   8.144  11.423  0.00  0.00    +0.000 OA
ENDBRANCH   3  10
BRANCH   5  11
ATOM     11  O   UNL     1      48.370   5.467  15.521  0.00  0.00    +0.000 OA
BRANCH  11  12
ATOM     12  C   UNL     1      49.344   6.282  16.216  0.00  0.00    +0.000 C 
ATOM     13  C   UNL     1      50.082   5.631  17.408  0.00  0.00    +0.000 C 
ATOM     14  C   UNL     1      49.737   6.845  18.278  0.00  0.00    +0.000 C 
ATOM     15  C   UNL     1      48.732   7.297  17.212  0.00  0.00    +0.000 C 
ENDBRANCH  11  12
ENDBRANCH   5  11
ENDBRANCH   1   7
BRANCH   1  16
ATOM     16  C   UNL     1      44.316   5.597  10.897  0.00  0.00    +0.000 C 
BRANCH  16  17
ATOM     17  O   UNL     1      43.728   4.635  10.009  0.00  0.00    +0.000 OA
BRANCH  17  18
ATOM     18  C   UNL     1      44.600   3.906   9.245  0.00  0.00    +0.000 A 
ATOM     19  C   UNL     1      45.476   4.437   8.299  0.00  0.00    +0.000 A 
ATOM     20  C   UNL     1      46.340   3.599   7.592  0.00  0.00    +0.000 A 
ATOM     21  C   UNL     1      46.345   2.224   7.826  0.00  0.00    +0.000 A 
ATOM     22  C   UNL     1      45.451   1.679   8.757  0.00  0.00    +0.000 A 
ATOM     23  C   UNL     1      44.582   2.522   9.459  0.00  0.00    +0.000 A 
BRANCH  21  24
ATOM     24  C   UNL     1      47.296   1.392   7.043  0.00  0.00    +0.000 C 
ATOM     25  N   UNL     1      48.385   2.010   6.500  0.00  0.00    +0.000 N 
ATOM     26  O   UNL     1      47.091   0.198   6.841  0.00  0.00    +0.000 OA
ATOM     27  H   UNL     1      48.485   3.014   6.454  0.00  0.00    +0.000 HD
ATOM     28  H   UNL     1      48.954   1.449   5.879  0.00  0.00    +0.000 HD
ENDBRANCH  21  24
ENDBRANCH  17  18
ENDBRANCH  16  17
ENDBRANCH   1  16
TORSDOF 8
ENDMDL
MODEL 5
REMARK VINA RESULT:    -7.304      2.914      7.773
REMARK INTER + INTRA:         -11.999
REMARK INTER:                 -10.960
REMARK INTRA:                  -1.039
REMARK UNBOUND:                -1.280
REMARK  Name = 
REMARK  10 active torsions:
REMARK  status: ('A' for Active; 'I' for Inactive)
REMARK    1  A    between atoms: C_1  and  O_2
REMARK    2  A    between atoms: O_2  and  C_3
REMARK    3  A    between atoms: C_5  and  O_6
REMARK    4  A    between atoms: O_6  and  C_7
REMARK    5  A    between atoms: C_12  and  C_13
REMARK    6  A    between atoms: C_13  and  C_14
REMARK    7  A    between atoms: C_13  and  C_15
REMARK    8  A    between atoms: C_15  and  O_16
REMARK    9  A    between atoms: O_16  and  C_17
REMARK   10  A    between atoms: C_20  and  C_21
REMARK                            x       y       z     vdW  Elec       q    Type
REMARK                         _______ _______ _______ _____ _____    ______ ____
ROOT
ATOM      1  C   UNL     1      46.340   7.035  11.356  0.00  0.00    +0.000 C 
ATOM      2  C   UNL     1      45.366   7.726  12.319  0.00  0.00    +0.000 C 
ENDROOT
BRANCH   1   7
ATOM      3  C   UNL     1      43.986   4.095  10.591  0.00  0.00    +0.000 A 
ATOM      4  C   UNL     1      44.320   3.815   9.266  0.00  0.00    +0.000 A 
ATOM      5  C   UNL     1      45.376   4.491   8.661  0.00  0.00    +0.000 A 
ATOM      6  C   UNL     1      46.049   5.502   9.357  0.00  0.00    +0.000 A 
ATOM      7  C   UNL     1      45.677   5.851  10.664  0.00  0.00    +0.000 A 
ATOM      8  C   UNL     1      44.657   5.110  11.283  0.00  0.00    +0.000 A 
BRANCH   3  10
ATOM      9  C   UNL     1      43.398   2.596  12.324  0.00  0.00    +0.000 C 
ATOM     10  O   UNL     1      42.976   3.480  11.290  0.00  0.00    +0.000 OA
ENDBRANCH   3  10
BRANCH   5  11
ATOM     11  O   UNL     1      45.797   4.279   7.367  0.00  0.00    +0.000 OA
BRANCH  11  12
ATOM     12  C   UNL     1      46.936   3.420   7.128  0.00  0.00    +0.000 C 
ATOM     13  C   UNL     1      47.051   2.781   5.725  0.00  0.00    +0.000 C 
ATOM     14  C   UNL     1      47.254   1.406   6.374  0.00  0.00    +0.000 C 
ATOM     15  C   UNL     1      46.793   1.993   7.713  0.00  0.00    +0.000 C 
ENDBRANCH  11  12
ENDBRANCH   5  11
ENDBRANCH   1   7
BRANCH   1  16
ATOM     16  C   UNL     1      47.644   6.636  12.063  0.00  0.00    +0.000 C 
BRANCH  16  17
ATOM     17  O   UNL     1      47.682   7.210  13.378  0.00  0.00    +0.000 OA
BRANCH  17  18
ATOM     18  C   UNL     1      47.820   6.330  14.418  0.00  0.00    +0.000 A 
ATOM     19  C   UNL     1      48.652   6.515  15.521  0.00  0.00    +0.000 A 
ATOM     20  C   UNL     1      48.696   5.560  16.538  0.00  0.00    +0.000 A 
ATOM     21  C   UNL     1      47.904   4.413  16.469  0.00  0.00    +0.000 A 
ATOM     22  C   UNL     1      47.084   4.207  15.351  0.00  0.00    +0.000 A 
ATOM     23  C   UNL     1      47.048   5.165  14.332  0.00  0.00    +0.000 A 
BRANCH  21  24
ATOM     24  C   UNL     1      47.994   3.440  17.589  0.00  0.00    +0.000 C 
ATOM     25  N   UNL     1      46.931   2.609  17.798  0.00  0.00    +0.000 N 
ATOM     26  O   UNL     1      48.966   3.411  18.340  0.00  0.00    +0.000 OA
ATOM     27  H   UNL     1      46.034   2.738  17.352  0.00  0.00    +0.000 HD
ATOM     28  H   UNL     1      46.967   2.038  18.632  0.00  0.00    +0.000 HD
ENDBRANCH  21  24
ENDBRANCH  17  18
ENDBRANCH  16  17
ENDBRANCH   1  16
TORSDOF 8
ENDMDL
MODEL 6
REMARK VINA RESULT:    -6.513      2.894      4.601
REMARK INTER + INTRA:         -10.839
REMARK INTER:                  -9.686
REMARK INTRA:                  -1.153
REMARK UNBOUND:                -1.280
REMARK  Name = 
REMARK  10 active torsions:
REMARK  status: ('A' for Active; 'I' for Inactive)
REMARK    1  A    between atoms: C_1  and  O_2
REMARK    2  A    between atoms: O_2  and  C_3
REMARK    3  A    between atoms: C_5  and  O_6
REMARK    4  A    between atoms: O_6  and  C_7
REMARK    5  A    between atoms: C_12  and  C_13
REMARK    6  A    between atoms: C_13  and  C_14
REMARK    7  A    between atoms: C_13  and  C_15
REMARK    8  A    between atoms: C_15  and  O_16
REMARK    9  A    between atoms: O_16  and  C_17
REMARK   10  A    between atoms: C_20  and  C_21
REMARK                            x       y       z     vdW  Elec       q    Type
REMARK                         _______ _______ _______ _____ _____    ______ ____
ROOT
ATOM      1  C   UNL     1      46.208   5.375  12.040  0.00  0.00    +0.000 C 
ATOM      2  C   UNL     1      45.396   4.751  13.183  0.00  0.00    +0.000 C 
ENDROOT
BRANCH   1   7
ATOM      3  C   UNL     1      48.556   7.270  14.421  0.00  0.00    +0.000 A 
ATOM      4  C   UNL     1      49.356   7.968  13.516  0.00  0.00    +0.000 A 
ATOM      5  C   UNL     1      49.067   7.920  12.155  0.00  0.00    +0.000 A 
ATOM      6  C   UNL     1      48.024   7.111  11.692  0.00  0.00    +0.000 A 
ATOM      7  C   UNL     1      47.256   6.341  12.578  0.00  0.00    +0.000 A 
ATOM      8  C   UNL     1      47.516   6.458  13.953  0.00  0.00    +0.000 A 
BRANCH   3  10
ATOM      9  C   UNL     1      48.443   8.482  16.448  0.00  0.00    +0.000 C 
ATOM     10  O   UNL     1      48.740   7.259  15.781  0.00  0.00    +0.000 OA
ENDBRANCH   3  10
BRANCH   5  11
ATOM     11  O   UNL     1      49.782   8.584  11.183  0.00  0.00    +0.000 OA
BRANCH  11  12
ATOM     12  C   UNL     1      51.221   8.441  11.145  0.00  0.00    +0.000 C 
ATOM     13  C   UNL     1      52.003   9.446  10.267  0.00  0.00    +0.000 C 
ATOM     14  C   UNL     1      52.743   8.279   9.602  0.00  0.00    +0.000 C 
ATOM     15  C   UNL     1      51.726   7.310  10.217  0.00  0.00    +0.000 C 
ENDBRANCH  11  12
ENDBRANCH   5  11
ENDBRANCH   1   7
BRANCH   1  16
ATOM     16  C   UNL     1      45.296   6.035  10.995  0.00  0.00    +0.000 C 
BRANCH  16  17
ATOM     17  O   UNL     1      44.504   5.035  10.337  0.00  0.00    +0.000 OA
BRANCH  17  18
ATOM     18  C   UNL     1      45.162   4.236   9.441  0.00  0.00    +0.000 A 
ATOM     19  C   UNL     1      45.062   2.847   9.380  0.00  0.00    +0.000 A 
ATOM     20  C   UNL     1      45.763   2.133   8.407  0.00  0.00    +0.000 A 
ATOM     21  C   UNL     1      46.564   2.798   7.477  0.00  0.00    +0.000 A 
ATOM     22  C   UNL     1      46.689   4.192   7.547  0.00  0.00    +0.000 A 
ATOM     23  C   UNL     1      45.989   4.903   8.528  0.00  0.00    +0.000 A 
BRANCH  21  24
ATOM     24  C   UNL     1      47.276   1.977   6.463  0.00  0.00    +0.000 C 
ATOM     25  N   UNL     1      47.948   2.632   5.472  0.00  0.00    +0.000 N 
ATOM     26  O   UNL     1      47.225   0.750   6.477  0.00  0.00    +0.000 OA
ATOM     27  H   UNL     1      47.842   3.621   5.294  0.00  0.00    +0.000 HD
ATOM     28  H   UNL     1      48.326   2.056   4.732  0.00  0.00    +0.000 HD
ENDBRANCH  21  24
ENDBRANCH  17  18
ENDBRANCH  16  17
ENDBRANCH   1  16
TORSDOF 8
ENDMDL
MODEL 7
REMARK VINA RESULT:    -6.157      3.728      7.641
REMARK INTER + INTRA:         -10.317
REMARK INTER:                  -8.013
REMARK INTRA:                  -2.304
REMARK UNBOUND:                -1.280
REMARK  Name = 
REMARK  10 active torsions:
REMARK  status: ('A' for Active; 'I' for Inactive)
REMARK    1  A    between atoms: C_1  and  O_2
REMARK    2  A    between atoms: O_2  and  C_3
REMARK    3  A    between atoms: C_5  and  O_6
REMARK    4  A    between atoms: O_6  and  C_7
REMARK    5  A    between atoms: C_12  and  C_13
REMARK    6  A    between atoms: C_13  and  C_14
REMARK    7  A    between atoms: C_13  and  C_15
REMARK    8  A    between atoms: C_15  and  O_16
REMARK    9  A    between atoms: O_16  and  C_17
REMARK   10  A    between atoms: C_20  and  C_21
REMARK                            x       y       z     vdW  Elec       q    Type
REMARK                         _______ _______ _______ _____ _____    ______ ____
ROOT
ATOM      1  C   UNL     1      47.823   7.648  12.876  0.00  0.00    +0.000 C 
ATOM      2  C   UNL     1      47.008   8.780  13.519  0.00  0.00    +0.000 C 
ENDROOT
BRANCH   1   7
ATOM      3  C   UNL     1      45.346   4.834  12.033  0.00  0.00    +0.000 A 
ATOM      4  C   UNL     1      45.810   3.807  12.855  0.00  0.00    +0.000 A 
ATOM      5  C   UNL     1      46.840   4.055  13.759  0.00  0.00    +0.000 A 
ATOM      6  C   UNL     1      47.457   5.310  13.786  0.00  0.00    +0.000 A 
ATOM      7  C   UNL     1      47.056   6.334  12.914  0.00  0.00    +0.000 A 
ATOM      8  C   UNL     1      45.969   6.087  12.059  0.00  0.00    +0.000 A 
BRANCH   3  10
ATOM      9  C   UNL     1      44.524   3.702  10.126  0.00  0.00    +0.000 C 
ATOM     10  O   UNL     1      44.330   4.705  11.119  0.00  0.00    +0.000 OA
ENDBRANCH   3  10
BRANCH   5  11
ATOM     11  O   UNL     1      47.358   3.118  14.624  0.00  0.00    +0.000 OA
BRANCH  11  12
ATOM     12  C   UNL     1      47.945   3.559  15.871  0.00  0.00    +0.000 C 
ATOM     13  C   UNL     1      48.746   2.511  16.680  0.00  0.00    +0.000 C 
ATOM     14  C   UNL     1      47.945   2.877  17.935  0.00  0.00    +0.000 C 
ATOM     15  C   UNL     1      46.948   3.638  17.053  0.00  0.00    +0.000 C 
ENDBRANCH  11  12
ENDBRANCH   5  11
ENDBRANCH   1   7
BRANCH   1  16
ATOM     16  C   UNL     1      49.215   7.525  13.513  0.00  0.00    +0.000 C 
BRANCH  16  17
ATOM     17  O   UNL     1      49.224   8.167  14.797  0.00  0.00    +0.000 OA
BRANCH  17  18
ATOM     18  C   UNL     1      49.536   7.372  15.868  0.00  0.00    +0.000 A 
ATOM     19  C   UNL     1      50.653   6.542  15.953  0.00  0.00    +0.000 A 
ATOM     20  C   UNL     1      50.885   5.791  17.106  0.00  0.00    +0.000 A 
ATOM     21  C   UNL     1      50.011   5.866  18.191  0.00  0.00    +0.000 A 
ATOM     22  C   UNL     1      48.873   6.679  18.104  0.00  0.00    +0.000 A 
ATOM     23  C   UNL     1      48.641   7.426  16.943  0.00  0.00    +0.000 A 
BRANCH  21  24
ATOM     24  C   UNL     1      50.322   5.046  19.391  0.00  0.00    +0.000 C 
ATOM     25  N   UNL     1      51.331   4.132  19.292  0.00  0.00    +0.000 N 
ATOM     26  O   UNL     1      49.666   5.142  20.424  0.00  0.00    +0.000 OA
ATOM     27  H   UNL     1      51.751   3.866  18.413  0.00  0.00    +0.000 HD
ATOM     28  H   UNL     1      51.448   3.509  20.080  0.00  0.00    +0.000 HD
ENDBRANCH  21  24
ENDBRANCH  17  18
ENDBRANCH  16  17
ENDBRANCH   1  16
TORSDOF 8
ENDMDL
MODEL 8
REMARK VINA RESULT:    -5.887      3.798      6.246
REMARK INTER + INTRA:          -9.921
REMARK INTER:                  -8.476
REMARK INTRA:                  -1.445
REMARK UNBOUND:                -1.280
REMARK  Name = 
REMARK  10 active torsions:
REMARK  status: ('A' for Active; 'I' for Inactive)
REMARK    1  A    between atoms: C_1  and  O_2
REMARK    2  A    between atoms: O_2  and  C_3
REMARK    3  A    between atoms: C_5  and  O_6
REMARK    4  A    between atoms: O_6  and  C_7
REMARK    5  A    between atoms: C_12  and  C_13
REMARK    6  A    between atoms: C_13  and  C_14
REMARK    7  A    between atoms: C_13  and  C_15
REMARK    8  A    between atoms: C_15  and  O_16
REMARK    9  A    between atoms: O_16  and  C_17
REMARK   10  A    between atoms: C_20  and  C_21
REMARK                            x       y       z     vdW  Elec       q    Type
REMARK                         _______ _______ _______ _____ _____    ______ ____
ROOT
ATOM      1  C   UNL     1      48.829   7.955  14.540  0.00  0.00    +0.000 C 
ATOM      2  C   UNL     1      49.023   9.470  14.687  0.00  0.00    +0.000 C 
ENDROOT
BRANCH   1   7
ATOM      3  C   UNL     1      51.607   6.714  16.888  0.00  0.00    +0.000 A 
ATOM      4  C   UNL     1      50.872   5.966  17.809  0.00  0.00    +0.000 A 
ATOM      5  C   UNL     1      49.508   5.768  17.608  0.00  0.00    +0.000 A 
ATOM      6  C   UNL     1      48.865   6.381  16.528  0.00  0.00    +0.000 A 
ATOM      7  C   UNL     1      49.572   7.200  15.634  0.00  0.00    +0.000 A 
ATOM      8  C   UNL     1      50.959   7.330  15.811  0.00  0.00    +0.000 A 
BRANCH   3  10
ATOM      9  C   UNL     1      53.794   6.013  16.324  0.00  0.00    +0.000 C 
ATOM     10  O   UNL     1      52.954   6.960  16.978  0.00  0.00    +0.000 OA
ENDBRANCH   3  10
BRANCH   5  11
ATOM     11  O   UNL     1      48.697   5.034  18.445  0.00  0.00    +0.000 OA
BRANCH  11  12
ATOM     12  C   UNL     1      48.507   3.624  18.185  0.00  0.00    +0.000 C 
ATOM     13  C   UNL     1      49.603   2.906  17.363  0.00  0.00    +0.000 C 
ATOM     14  C   UNL     1      48.525   2.332  16.436  0.00  0.00    +0.000 C 
ATOM     15  C   UNL     1      47.514   3.315  17.038  0.00  0.00    +0.000 C 
ENDBRANCH  11  12
ENDBRANCH   5  11
ENDBRANCH   1   7
BRANCH   1  16
ATOM     16  C   UNL     1      49.219   7.471  13.135  0.00  0.00    +0.000 C 
BRANCH  16  17
ATOM     17  O   UNL     1      48.802   6.109  12.955  0.00  0.00    +0.000 OA
BRANCH  17  18
ATOM     18  C   UNL     1      47.451   5.895  12.888  0.00  0.00    +0.000 A 
ATOM     19  C   UNL     1      46.744   4.979  13.667  0.00  0.00    +0.000 A 
ATOM     20  C   UNL     1      45.360   4.861  13.531  0.00  0.00    +0.000 A 
ATOM     21  C   UNL     1      44.664   5.659  12.623  0.00  0.00    +0.000 A 
ATOM     22  C   UNL     1      45.370   6.564  11.818  0.00  0.00    +0.000 A 
ATOM     23  C   UNL     1      46.759   6.676  11.954  0.00  0.00    +0.000 A 
BRANCH  21  24
ATOM     24  C   UNL     1      43.191   5.486  12.534  0.00  0.00    +0.000 C 
ATOM     25  N   UNL     1      42.512   6.260  11.638  0.00  0.00    +0.000 N 
ATOM     26  O   UNL     1      42.588   4.713  13.274  0.00  0.00    +0.000 OA
ATOM     27  H   UNL     1      42.926   7.052  11.167  0.00  0.00    +0.000 HD
ATOM     28  H   UNL     1      41.502   6.208  11.677  0.00  0.00    +0.000 HD
ENDBRANCH  21  24
ENDBRANCH  17  18
ENDBRANCH  16  17
ENDBRANCH   1  16
TORSDOF 8
ENDMDL
MODEL 9
REMARK VINA RESULT:    -5.836      3.096      5.502
REMARK INTER + INTRA:          -9.846
REMARK INTER:                  -8.585
REMARK INTRA:                  -1.261
REMARK UNBOUND:                -1.280
REMARK  Name = 
REMARK  10 active torsions:
REMARK  status: ('A' for Active; 'I' for Inactive)
REMARK    1  A    between atoms: C_1  and  O_2
REMARK    2  A    between atoms: O_2  and  C_3
REMARK    3  A    between atoms: C_5  and  O_6
REMARK    4  A    between atoms: O_6  and  C_7
REMARK    5  A    between atoms: C_12  and  C_13
REMARK    6  A    between atoms: C_13  and  C_14
REMARK    7  A    between atoms: C_13  and  C_15
REMARK    8  A    between atoms: C_15  and  O_16
REMARK    9  A    between atoms: O_16  and  C_17
REMARK   10  A    between atoms: C_20  and  C_21
REMARK                            x       y       z     vdW  Elec       q    Type
REMARK                         _______ _______ _______ _____ _____    ______ ____
ROOT
ATOM      1  C   UNL     1      48.845   8.335  14.528  0.00  0.00    +0.000 C 
ATOM      2  C   UNL     1      50.095   7.936  13.732  0.00  0.00    +0.000 C 
ENDROOT
BRANCH   1   7
ATOM      3  C   UNL     1      48.400   7.515  18.256  0.00  0.00    +0.000 A 
ATOM      4  C   UNL     1      48.412   6.120  18.232  0.00  0.00    +0.000 A 
ATOM      5  C   UNL     1      48.677   5.451  17.040  0.00  0.00    +0.000 A 
ATOM      6  C   UNL     1      48.856   6.176  15.857  0.00  0.00    +0.000 A 
ATOM      7  C   UNL     1      48.771   7.576  15.846  0.00  0.00    +0.000 A 
ATOM      8  C   UNL     1      48.573   8.237  17.070  0.00  0.00    +0.000 A 
BRANCH   3  10
ATOM      9  C   UNL     1      48.102   9.682  19.154  0.00  0.00    +0.000 C 
ATOM     10  O   UNL     1      48.164   8.276  19.374  0.00  0.00    +0.000 OA
ENDBRANCH   3  10
BRANCH   5  11
ATOM     11  O   UNL     1      48.729   4.081  16.911  0.00  0.00    +0.000 OA
BRANCH  11  12
ATOM     12  C   UNL     1      49.653   3.330  17.733  0.00  0.00    +0.000 C 
ATOM     13  C   UNL     1      51.117   3.828  17.780  0.00  0.00    +0.000 C 
ATOM     14  C   UNL     1      51.604   2.408  17.464  0.00  0.00    +0.000 C 
ATOM     15  C   UNL     1      50.170   2.023  17.082  0.00  0.00    +0.000 C 
ENDBRANCH  11  12
ENDBRANCH   5  11
ENDBRANCH   1   7
BRANCH   1  16
ATOM     16  C   UNL     1      47.567   8.168  13.692  0.00  0.00    +0.000 C 
BRANCH  16  17
ATOM     17  O   UNL     1      47.829   7.324  12.561  0.00  0.00    +0.000 OA
BRANCH  17  18
ATOM     18  C   UNL     1      46.955   6.289  12.363  0.00  0.00    +0.000 A 
ATOM     19  C   UNL     1      46.739   5.240  13.256  0.00  0.00    +0.000 A 
ATOM     20  C   UNL     1      45.803   4.247  12.961  0.00  0.00    +0.000 A 
ATOM     21  C   UNL     1      45.067   4.294  11.776  0.00  0.00    +0.000 A 
ATOM     22  C   UNL     1      45.296   5.332  10.863  0.00  0.00    +0.000 A 
ATOM     23  C   UNL     1      46.240   6.322  11.160  0.00  0.00    +0.000 A 
BRANCH  21  24
ATOM     24  C   UNL     1      44.082   3.209  11.529  0.00  0.00    +0.000 C 
ATOM     25  N   UNL     1      43.763   2.389  12.573  0.00  0.00    +0.000 N 
ATOM     26  O   UNL     1      43.604   3.015  10.414  0.00  0.00    +0.000 OA
ATOM     27  H   UNL     1      44.283   2.370  13.439  0.00  0.00    +0.000 HD
ATOM     28  H   UNL     1      43.181   1.591  12.353  0.00  0.00    +0.000 HD
ENDBRANCH  21  24
ENDBRANCH  17  18
ENDBRANCH  16  17
ENDBRANCH   1  16
TORSDOF 8
ENDMDL
