MODEL 1
REMARK VINA RESULT:    -8.125      0.000      0.000
REMARK INTER + INTRA:         -13.269
REMARK INTER:                 -11.925
REMARK INTRA:                  -1.344
REMARK UNBOUND:                -1.344
REMARK  Name = 
REMARK  10 active torsions:
REMARK  status: ('A' for Active; 'I' for Inactive)
REMARK    1  A    between atoms: C_1  and  C_2
REMARK    2  A    between atoms: C_2  and  C_3
REMARK    3  A    between atoms: C_2  and  N_10
REMARK    4  A    between atoms: C_3  and  C_4
REMARK    5  A    between atoms: N_10  and  C_11
REMARK    6  A    between atoms: N_10  and  C_12
REMARK    7  A    between atoms: C_12  and  C_13
REMARK    8  A    between atoms: C_16  and  C_17
REMARK    9  A    between atoms: C_17  and  N_18
REMARK   10  A    between atoms: C_19  and  C_21
REMARK                            x       y       z     vdW  Elec       q    Type
REMARK                         _______ _______ _______ _____ _____    ______ ____
ROOT
ATOM      1  C   UNL     1      46.841   4.473  14.154  0.00  0.00    +0.000 A 
ATOM      2  C   UNL     1      47.461   5.717  14.039  0.00  0.00    +0.000 A 
ATOM      3  C   UNL     1      48.243   6.201  15.078  0.00  0.00    +0.000 A 
ATOM      4  C   UNL     1      48.308   5.491  16.270  0.00  0.00    +0.000 A 
ATOM      5  C   UNL     1      47.670   4.259  16.315  0.00  0.00    +0.000 A 
ATOM      6  N   UNL     1      46.954   3.737  15.291  0.00  0.00    +0.000 NA
ENDROOT
BRANCH   1   7
ATOM      7  C   UNL     1      45.882   3.952  13.085  0.00  0.00    +0.000 C 
BRANCH   7   8
ATOM      8  N   UNL     1      44.707   4.787  12.695  0.00  0.00    +0.000 NA
ATOM      9  C   UNL     1      43.459   4.023  12.757  0.00  0.00    +0.000 C 
BRANCH   8  11
ATOM     10  C   UNL     1      44.520   6.902  11.302  0.00  0.00    +0.000 C 
ATOM     11  C   UNL     1      44.895   5.405  11.343  0.00  0.00    +0.000 C 
BRANCH  11  12
ATOM     12  C   UNL     1      44.136   4.686  10.182  0.00  0.00    +0.000 C 
BRANCH  12  13
ATOM     13  C   UNL     1      44.998   3.845   9.272  0.00  0.00    +0.000 A 
ATOM     14  C   UNL     1      45.074   2.460   9.406  0.00  0.00    +0.000 A 
ATOM     15  C   UNL     1      45.799   1.724   8.476  0.00  0.00    +0.000 A 
ATOM     16  C   UNL     1      46.461   2.390   7.455  0.00  0.00    +0.000 A 
ATOM     17  C   UNL     1      46.377   3.770   7.417  0.00  0.00    +0.000 A 
ATOM     18  N   UNL     1      45.664   4.508   8.296  0.00  0.00    +0.000 NA
ENDBRANCH  12  13
ENDBRANCH  11  12
ENDBRANCH   8  11
ENDBRANCH   7   8
ENDBRANCH   1   7
BRANCH   4  19
ATOM     19  C   UNL     1      49.028   6.050  17.453  0.00  0.00    +0.000 C 
BRANCH  19  20
ATOM     20  N   UNL     1      50.062   5.163  17.903  0.00  0.00    +0.000 N 
ATOM     21  C   UNL     1      51.329   5.252  17.394  0.00  0.00    +0.000 C 
ATOM     22  O   UNL     1      51.638   6.100  16.561  0.00  0.00    +0.000 OA
ATOM     23  H   UNL     1      49.773   4.316  18.385  0.00  0.00    +0.000 HD
BRANCH  21  24
ATOM     24  C   UNL     1      52.312   4.320  17.948  0.00  0.00    +0.000 A 
ATOM     25  C   UNL     1      53.412   4.817  18.642  0.00  0.00    +0.000 A 
ATOM     26  S   UNL     1      54.423   3.602  19.270  0.00  0.00    +0.000 S 
ATOM     27  C   UNL     1      53.457   2.370  18.602  0.00  0.00    +0.000 A 
ATOM     28  N   UNL     1      53.786   1.060  18.755  0.00  0.00    +0.000 NA
ATOM     29  C   UNL     1      52.976   0.235  18.181  0.00  0.00    +0.000 A 
ATOM     30  N   UNL     1      51.863   0.600  17.469  0.00  0.00    +0.000 N 
ATOM     31  C   UNL     1      51.479   1.910  17.302  0.00  0.00    +0.000 A 
ATOM     32  O   UNL     1      50.462   2.202  16.684  0.00  0.00    +0.000 OA
ATOM     33  C   UNL     1      52.364   2.881  17.924  0.00  0.00    +0.000 A 
ATOM     34  H   UNL     1      51.264  -0.096  17.052  0.00  0.00    +0.000 HD
ENDBRANCH  21  24
ENDBRANCH  19  20
ENDBRANCH   4  19
TORSDOF 8
ENDMDL
MODEL 2
REMARK VINA RESULT:    -7.341      3.057      3.779
REMARK INTER + INTRA:         -12.117
REMARK INTER:                 -12.122
REMARK INTRA:                   0.005
REMARK UNBOUND:                -1.344
REMARK  Name = 
REMARK  10 active torsions:
REMARK  status: ('A' for Active; 'I' for Inactive)
REMARK    1  A    between atoms: C_1  and  C_2
REMARK    2  A    between atoms: C_2  and  C_3
REMARK    3  A    between atoms: C_2  and  N_10
REMARK    4  A    between atoms: C_3  and  C_4
REMARK    5  A    between atoms: N_10  and  C_11
REMARK    6  A    between atoms: N_10  and  C_12
REMARK    7  A    between atoms: C_12  and  C_13
REMARK    8  A    between atoms: C_16  and  C_17
REMARK    9  A    between atoms: C_17  and  N_18
REMARK   10  A    between atoms: C_19  and  C_21
REMARK                            x       y       z     vdW  Elec       q    Type
REMARK                         _______ _______ _______ _____ _____    ______ ____
ROOT
ATOM      1  C   UNL     1      44.719   4.688  12.787  0.00  0.00    +0.000 A 
ATOM      2  C   UNL     1      44.983   6.034  12.534  0.00  0.00    +0.000 A 
ATOM      3  C   UNL     1      46.206   6.580  12.893  0.00  0.00    +0.000 A 
ATOM      4  C   UNL     1      47.115   5.808  13.606  0.00  0.00    +0.000 A 
ATOM      5  C   UNL     1      46.791   4.476  13.821  0.00  0.00    +0.000 A 
ATOM      6  N   UNL     1      45.629   3.904  13.423  0.00  0.00    +0.000 NA
ENDROOT
BRANCH   1   7
ATOM      7  C   UNL     1      43.347   4.073  12.512  0.00  0.00    +0.000 C 
BRANCH   7   8
ATOM      8  N   UNL     1      43.206   3.081  11.404  0.00  0.00    +0.000 NA
ATOM      9  C   UNL     1      43.234   1.705  11.905  0.00  0.00    +0.000 C 
BRANCH   8  11
ATOM     10  C   UNL     1      43.955   4.510   9.443  0.00  0.00    +0.000 C 
ATOM     11  C   UNL     1      44.244   3.290  10.344  0.00  0.00    +0.000 C 
BRANCH  11  12
ATOM     12  C   UNL     1      44.493   2.056   9.418  0.00  0.00    +0.000 C 
BRANCH  12  13
ATOM     13  C   UNL     1      45.601   2.223   8.406  0.00  0.00    +0.000 A 
ATOM     14  C   UNL     1      45.858   3.449   7.795  0.00  0.00    +0.000 A 
ATOM     15  C   UNL     1      46.955   3.572   6.950  0.00  0.00    +0.000 A 
ATOM     16  C   UNL     1      47.749   2.461   6.706  0.00  0.00    +0.000 A 
ATOM     17  C   UNL     1      47.400   1.268   7.313  0.00  0.00    +0.000 A 
ATOM     18  N   UNL     1      46.352   1.124   8.152  0.00  0.00    +0.000 NA
ENDBRANCH  12  13
ENDBRANCH  11  12
ENDBRANCH   8  11
ENDBRANCH   7   8
ENDBRANCH   1   7
BRANCH   4  19
ATOM     19  C   UNL     1      48.381   6.405  14.126  0.00  0.00    +0.000 C 
BRANCH  19  20
ATOM     20  N   UNL     1      48.332   6.574  15.551  0.00  0.00    +0.000 N 
ATOM     21  C   UNL     1      49.483   6.595  16.291  0.00  0.00    +0.000 C 
ATOM     22  O   UNL     1      50.593   6.499  15.772  0.00  0.00    +0.000 OA
ATOM     23  H   UNL     1      47.443   6.402  16.011  0.00  0.00    +0.000 HD
BRANCH  21  24
ATOM     24  C   UNL     1      49.319   6.806  17.729  0.00  0.00    +0.000 A 
ATOM     25  C   UNL     1      49.416   8.094  18.248  0.00  0.00    +0.000 A 
ATOM     26  S   UNL     1      49.143   8.172  19.926  0.00  0.00    +0.000 S 
ATOM     27  C   UNL     1      48.930   6.486  20.029  0.00  0.00    +0.000 A 
ATOM     28  N   UNL     1      48.682   5.883  21.221  0.00  0.00    +0.000 NA
ATOM     29  C   UNL     1      48.561   4.599  21.155  0.00  0.00    +0.000 A 
ATOM     30  N   UNL     1      48.664   3.862  20.004  0.00  0.00    +0.000 N 
ATOM     31  C   UNL     1      48.897   4.429  18.772  0.00  0.00    +0.000 A 
ATOM     32  O   UNL     1      48.955   3.745  17.758  0.00  0.00    +0.000 OA
ATOM     33  C   UNL     1      49.048   5.874  18.794  0.00  0.00    +0.000 A 
ATOM     34  H   UNL     1      48.550   2.860  20.019  0.00  0.00    +0.000 HD
ENDBRANCH  21  24
ENDBRANCH  19  20
ENDBRANCH   4  19
TORSDOF 8
ENDMDL
MODEL 3
REMARK VINA RESULT:    -7.136      3.721      4.841
REMARK INTER + INTRA:         -11.817
REMARK INTER:                 -11.606
REMARK INTRA:                  -0.211
REMARK UNBOUND:                -1.344
REMARK  Name = 
REMARK  10 active torsions:
REMARK  status: ('A' for Active; 'I' for Inactive)
REMARK    1  A    between atoms: C_1  and  C_2
REMARK    2  A    between atoms: C_2  and  C_3
REMARK    3  A    between atoms: C_2  and  N_10
REMARK    4  A    between atoms: C_3  and  C_4
REMARK    5  A    between atoms: N_10  and  C_11
REMARK    6  A    between atoms: N_10  and  C_12
REMARK    7  A    between atoms: C_12  and  C_13
REMARK    8  A    between atoms: C_16  and  C_17
REMARK    9  A    between atoms: C_17  and  N_18
REMARK   10  A    between atoms: C_19  and  C_21
REMARK                            x       y       z     vdW  Elec       q    Type
REMARK                         _______ _______ _______ _____ _____    ______ ____
ROOT
ATOM      1  C   UNL     1      44.778   5.108  12.624  0.00  0.00    +0.000 A 
ATOM      2  C   UNL     1      45.269   6.372  12.299  0.00  0.00    +0.000 A 
ATOM      3  C   UNL     1      46.490   6.793  12.805  0.00  0.00    +0.000 A 
ATOM      4  C   UNL     1      47.158   5.995  13.725  0.00  0.00    +0.000 A 
ATOM      5  C   UNL     1      46.616   4.748  14.001  0.00  0.00    +0.000 A 
ATOM      6  N   UNL     1      45.458   4.289  13.469  0.00  0.00    +0.000 NA
ENDROOT
BRANCH   1   7
ATOM      7  C   UNL     1      43.389   4.648  12.181  0.00  0.00    +0.000 C 
BRANCH   7   8
ATOM      8  N   UNL     1      43.272   3.472  11.269  0.00  0.00    +0.000 NA
ATOM      9  C   UNL     1      43.309   2.209  12.009  0.00  0.00    +0.000 C 
BRANCH   8  11
ATOM     10  C   UNL     1      44.109   4.634   9.171  0.00  0.00    +0.000 C 
ATOM     11  C   UNL     1      44.320   3.500  10.197  0.00  0.00    +0.000 C 
BRANCH  11  12
ATOM     12  C   UNL     1      44.488   2.162   9.409  0.00  0.00    +0.000 C 
BRANCH  12  13
ATOM     13  C   UNL     1      45.605   2.148   8.393  0.00  0.00    +0.000 A 
ATOM     14  C   UNL     1      45.966   3.292   7.685  0.00  0.00    +0.000 A 
ATOM     15  C   UNL     1      47.068   3.249   6.839  0.00  0.00    +0.000 A 
ATOM     16  C   UNL     1      47.763   2.057   6.693  0.00  0.00    +0.000 A 
ATOM     17  C   UNL     1      47.313   0.953   7.395  0.00  0.00    +0.000 A 
ATOM     18  N   UNL     1      46.258   0.971   8.236  0.00  0.00    +0.000 NA
ENDBRANCH  12  13
ENDBRANCH  11  12
ENDBRANCH   8  11
ENDBRANCH   7   8
ENDBRANCH   1   7
BRANCH   4  19
ATOM     19  C   UNL     1      48.404   6.478  14.392  0.00  0.00    +0.000 C 
BRANCH  19  20
ATOM     20  N   UNL     1      48.170   6.789  15.774  0.00  0.00    +0.000 N 
ATOM     21  C   UNL     1      48.681   5.994  16.764  0.00  0.00    +0.000 C 
ATOM     22  O   UNL     1      49.374   5.010  16.517  0.00  0.00    +0.000 OA
ATOM     23  H   UNL     1      47.410   7.429  15.986  0.00  0.00    +0.000 HD
BRANCH  21  24
ATOM     24  C   UNL     1      48.409   6.422  18.136  0.00  0.00    +0.000 A 
ATOM     25  C   UNL     1      47.685   5.588  18.984  0.00  0.00    +0.000 A 
ATOM     26  S   UNL     1      47.509   6.208  20.558  0.00  0.00    +0.000 S 
ATOM     27  C   UNL     1      48.352   7.631  20.156  0.00  0.00    +0.000 A 
ATOM     28  N   UNL     1      48.540   8.617  21.071  0.00  0.00    +0.000 NA
ATOM     29  C   UNL     1      49.179   9.647  20.625  0.00  0.00    +0.000 A 
ATOM     30  N   UNL     1      49.650   9.780  19.344  0.00  0.00    +0.000 N 
ATOM     31  C   UNL     1      49.499   8.803  18.388  0.00  0.00    +0.000 A 
ATOM     32  O   UNL     1      49.957   8.940  17.260  0.00  0.00    +0.000 OA
ATOM     33  C   UNL     1      48.779   7.624  18.840  0.00  0.00    +0.000 A 
ATOM     34  H   UNL     1      50.151  10.608  19.061  0.00  0.00    +0.000 HD
ENDBRANCH  21  24
ENDBRANCH  19  20
ENDBRANCH   4  19
TORSDOF 8
ENDMDL
MODEL 4
REMARK VINA RESULT:    -7.094      4.230      9.221
REMARK INTER + INTRA:         -11.756
REMARK INTER:                 -10.025
REMARK INTRA:                  -1.730
REMARK UNBOUND:                -1.344
REMARK  Name = 
REMARK  10 active torsions:
REMARK  status: ('A' for Active; 'I' for Inactive)
REMARK    1  A    between atoms: C_1  and  C_2
REMARK    2  A    between atoms: C_2  and  C_3
REMARK    3  A    between atoms: C_2  and  N_10
REMARK    4  A    between atoms: C_3  and  C_4
REMARK    5  A    between atoms: N_10  and  C_11
REMARK    6  A    between atoms: N_10  and  C_12
REMARK    7  A    between atoms: C_12  and  C_13
REMARK    8  A    between atoms: C_16  and  C_17
REMARK    9  A    between atoms: C_17  and  N_18
REMARK   10  A    between atoms: C_19  and  C_21
REMARK                            x       y       z     vdW  Elec       q    Type
REMARK                         _______ _______ _______ _____ _____    ______ ____
ROOT
ATOM      1  C   UNL     1      48.920   8.052  16.089  0.00  0.00    +0.000 A 
ATOM      2  C   UNL     1      48.837   6.798  15.484  0.00  0.00    +0.000 A 
ATOM      3  C   UNL     1      48.481   6.695  14.147  0.00  0.00    +0.000 A 
ATOM      4  C   UNL     1      48.099   7.836  13.454  0.00  0.00    +0.000 A 
ATOM      5  C   UNL     1      48.208   9.051  14.114  0.00  0.00    +0.000 A 
ATOM      6  N   UNL     1      48.615   9.183  15.400  0.00  0.00    +0.000 NA
ENDROOT
BRANCH   1   7
ATOM      7  C   UNL     1      49.197   8.206  17.584  0.00  0.00    +0.000 C 
BRANCH   7   8
ATOM      8  N   UNL     1      48.131   7.837  18.562  0.00  0.00    +0.000 NA
ATOM      9  C   UNL     1      47.344   9.004  18.967  0.00  0.00    +0.000 C 
BRANCH   8  11
ATOM     10  C   UNL     1      50.240   7.049  19.736  0.00  0.00    +0.000 C 
ATOM     11  C   UNL     1      48.698   7.128  19.753  0.00  0.00    +0.000 C 
BRANCH  11  12
ATOM     12  C   UNL     1      48.145   5.685  19.983  0.00  0.00    +0.000 C 
BRANCH  12  13
ATOM     13  C   UNL     1      48.198   4.775  18.779  0.00  0.00    +0.000 A 
ATOM     14  C   UNL     1      49.340   4.041  18.464  0.00  0.00    +0.000 A 
ATOM     15  C   UNL     1      49.301   3.140  17.406  0.00  0.00    +0.000 A 
ATOM     16  C   UNL     1      48.134   3.018  16.665  0.00  0.00    +0.000 A 
ATOM     17  C   UNL     1      47.058   3.817  17.010  0.00  0.00    +0.000 A 
ATOM     18  N   UNL     1      47.063   4.686  18.043  0.00  0.00    +0.000 NA
ENDBRANCH  12  13
ENDBRANCH  11  12
ENDBRANCH   8  11
ENDBRANCH   7   8
ENDBRANCH   1   7
BRANCH   4  19
ATOM     19  C   UNL     1      47.580   7.742  12.057  0.00  0.00    +0.000 C 
BRANCH  19  20
ATOM     20  N   UNL     1      46.898   6.498  11.835  0.00  0.00    +0.000 N 
ATOM     21  C   UNL     1      45.531   6.440  11.841  0.00  0.00    +0.000 C 
ATOM     22  O   UNL     1      44.837   7.441  12.008  0.00  0.00    +0.000 OA
ATOM     23  H   UNL     1      47.438   5.645  11.948  0.00  0.00    +0.000 HD
BRANCH  21  24
ATOM     24  C   UNL     1      44.942   5.129  11.572  0.00  0.00    +0.000 A 
ATOM     25  C   UNL     1      44.230   4.478  12.575  0.00  0.00    +0.000 A 
ATOM     26  S   UNL     1      43.562   2.993  12.080  0.00  0.00    +0.000 S 
ATOM     27  C   UNL     1      44.234   3.143  10.523  0.00  0.00    +0.000 A 
ATOM     28  N   UNL     1      44.056   2.175   9.587  0.00  0.00    +0.000 NA
ATOM     29  C   UNL     1      44.637   2.409   8.458  0.00  0.00    +0.000 A 
ATOM     30  N   UNL     1      45.380   3.527   8.179  0.00  0.00    +0.000 N 
ATOM     31  C   UNL     1      45.574   4.541   9.087  0.00  0.00    +0.000 A 
ATOM     32  O   UNL     1      46.220   5.541   8.796  0.00  0.00    +0.000 OA
ATOM     33  C   UNL     1      44.945   4.321  10.378  0.00  0.00    +0.000 A 
ATOM     34  H   UNL     1      45.801   3.655   7.271  0.00  0.00    +0.000 HD
ENDBRANCH  21  24
ENDBRANCH  19  20
ENDBRANCH   4  19
TORSDOF 8
ENDMDL
MODEL 5
REMARK VINA RESULT:    -7.023      3.747     10.053
REMARK INTER + INTRA:         -11.652
REMARK INTER:                  -9.600
REMARK INTRA:                  -2.051
REMARK UNBOUND:                -1.344
REMARK  Name = 
REMARK  10 active torsions:
REMARK  status: ('A' for Active; 'I' for Inactive)
REMARK    1  A    between atoms: C_1  and  C_2
REMARK    2  A    between atoms: C_2  and  C_3
REMARK    3  A    between atoms: C_2  and  N_10
REMARK    4  A    between atoms: C_3  and  C_4
REMARK    5  A    between atoms: N_10  and  C_11
REMARK    6  A    between atoms: N_10  and  C_12
REMARK    7  A    between atoms: C_12  and  C_13
REMARK    8  A    between atoms: C_16  and  C_17
REMARK    9  A    between atoms: C_17  and  N_18
REMARK   10  A    between atoms: C_19  and  C_21
REMARK                            x       y       z     vdW  Elec       q    Type
REMARK                         _______ _______ _______ _____ _____    ______ ____
ROOT
ATOM      1  C   UNL     1      51.280   4.669  17.849  0.00  0.00    +0.000 A 
ATOM      2  C   UNL     1      50.919   3.322  17.830  0.00  0.00    +0.000 A 
ATOM      3  C   UNL     1      49.671   2.945  17.355  0.00  0.00    +0.000 A 
ATOM      4  C   UNL     1      48.749   3.925  17.010  0.00  0.00    +0.000 A 
ATOM      5  C   UNL     1      49.175   5.245  17.048  0.00  0.00    +0.000 A 
ATOM      6  N   UNL     1      50.410   5.633  17.447  0.00  0.00    +0.000 NA
ENDROOT
BRANCH   1   7
ATOM      7  C   UNL     1      52.597   5.138  18.467  0.00  0.00    +0.000 C 
BRANCH   7   8
ATOM      8  N   UNL     1      52.617   6.407  19.254  0.00  0.00    +0.000 NA
ATOM      9  C   UNL     1      53.574   7.369  18.703  0.00  0.00    +0.000 C 
BRANCH   8  11
ATOM     10  C   UNL     1      53.307   4.692  20.996  0.00  0.00    +0.000 C 
ATOM     11  C   UNL     1      52.887   6.149  20.706  0.00  0.00    +0.000 C 
BRANCH  11  12
ATOM     12  C   UNL     1      51.708   6.510  21.666  0.00  0.00    +0.000 C 
BRANCH  12  13
ATOM     13  C   UNL     1      50.328   6.204  21.136  0.00  0.00    +0.000 A 
ATOM     14  C   UNL     1      49.793   4.918  21.179  0.00  0.00    +0.000 A 
ATOM     15  C   UNL     1      48.480   4.711  20.774  0.00  0.00    +0.000 A 
ATOM     16  C   UNL     1      47.742   5.787  20.302  0.00  0.00    +0.000 A 
ATOM     17  C   UNL     1      48.358   7.024  20.245  0.00  0.00    +0.000 A 
ATOM     18  N   UNL     1      49.626   7.256  20.649  0.00  0.00    +0.000 NA
ENDBRANCH  12  13
ENDBRANCH  11  12
ENDBRANCH   8  11
ENDBRANCH   7   8
ENDBRANCH   1   7
BRANCH   4  19
ATOM     19  C   UNL     1      47.353   3.558  16.626  0.00  0.00    +0.000 C 
BRANCH  19  20
ATOM     20  N   UNL     1      46.802   4.501  15.695  0.00  0.00    +0.000 N 
ATOM     21  C   UNL     1      46.782   4.228  14.354  0.00  0.00    +0.000 C 
ATOM     22  O   UNL     1      47.205   3.168  13.899  0.00  0.00    +0.000 OA
ATOM     23  H   UNL     1      46.686   5.459  16.014  0.00  0.00    +0.000 HD
BRANCH  21  24
ATOM     24  C   UNL     1      46.167   5.244  13.500  0.00  0.00    +0.000 A 
ATOM     25  C   UNL     1      46.850   6.430  13.245  0.00  0.00    +0.000 A 
ATOM     26  S   UNL     1      46.022   7.475  12.188  0.00  0.00    +0.000 S 
ATOM     27  C   UNL     1      44.704   6.406  12.067  0.00  0.00    +0.000 A 
ATOM     28  N   UNL     1      43.616   6.716  11.314  0.00  0.00    +0.000 NA
ATOM     29  C   UNL     1      42.684   5.823  11.329  0.00  0.00    +0.000 A 
ATOM     30  N   UNL     1      42.740   4.645  12.027  0.00  0.00    +0.000 N 
ATOM     31  C   UNL     1      43.826   4.279  12.788  0.00  0.00    +0.000 A 
ATOM     32  O   UNL     1      43.857   3.205  13.377  0.00  0.00    +0.000 OA
ATOM     33  C   UNL     1      44.902   5.256  12.810  0.00  0.00    +0.000 A 
ATOM     34  H   UNL     1      41.980   3.983  11.988  0.00  0.00    +0.000 HD
ENDBRANCH  21  24
ENDBRANCH  19  20
ENDBRANCH   4  19
TORSDOF 8
ENDMDL
MODEL 6
REMARK VINA RESULT:    -6.660      3.982      9.059
REMARK INTER + INTRA:         -11.118
REMARK INTER:                  -9.004
REMARK INTRA:                  -2.114
REMARK UNBOUND:                -1.344
REMARK  Name = 
REMARK  10 active torsions:
REMARK  status: ('A' for Active; 'I' for Inactive)
REMARK    1  A    between atoms: C_1  and  C_2
REMARK    2  A    between atoms: C_2  and  C_3
REMARK    3  A    between atoms: C_2  and  N_10
REMARK    4  A    between atoms: C_3  and  C_4
REMARK    5  A    between atoms: N_10  and  C_11
REMARK    6  A    between atoms: N_10  and  C_12
REMARK    7  A    between atoms: C_12  and  C_13
REMARK    8  A    between atoms: C_16  and  C_17
REMARK    9  A    between atoms: C_17  and  N_18
REMARK   10  A    between atoms: C_19  and  C_21
REMARK                            x       y       z     vdW  Elec       q    Type
REMARK                         _______ _______ _______ _____ _____    ______ ____
ROOT
ATOM      1  C   UNL     1      49.363   8.281  18.615  0.00  0.00    +0.000 A 
ATOM      2  C   UNL     1      48.272   9.022  18.163  0.00  0.00    +0.000 A 
ATOM      3  C   UNL     1      47.938   9.016  16.817  0.00  0.00    +0.000 A 
ATOM      4  C   UNL     1      48.765   8.362  15.913  0.00  0.00    +0.000 A 
ATOM      5  C   UNL     1      49.832   7.640  16.430  0.00  0.00    +0.000 A 
ATOM      6  N   UNL     1      50.139   7.579  17.747  0.00  0.00    +0.000 NA
ENDROOT
BRANCH   1   7
ATOM      7  C   UNL     1      49.834   8.347  20.067  0.00  0.00    +0.000 C 
BRANCH   7   8
ATOM      8  N   UNL     1      49.689   7.139  20.932  0.00  0.00    +0.000 NA
ATOM      9  C   UNL     1      50.928   6.360  20.982  0.00  0.00    +0.000 C 
BRANCH   8  11
ATOM     10  C   UNL     1      47.361   6.300  21.503  0.00  0.00    +0.000 C 
ATOM     11  C   UNL     1      48.534   6.288  20.500  0.00  0.00    +0.000 C 
BRANCH  11  12
ATOM     12  C   UNL     1      48.894   4.798  20.198  0.00  0.00    +0.000 C 
BRANCH  12  13
ATOM     13  C   UNL     1      48.454   4.289  18.847  0.00  0.00    +0.000 A 
ATOM     14  C   UNL     1      47.539   4.989  18.061  0.00  0.00    +0.000 A 
ATOM     15  C   UNL     1      47.248   4.530  16.782  0.00  0.00    +0.000 A 
ATOM     16  C   UNL     1      47.849   3.364  16.330  0.00  0.00    +0.000 A 
ATOM     17  C   UNL     1      48.709   2.700  17.187  0.00  0.00    +0.000 A 
ATOM     18  N   UNL     1      49.024   3.134  18.426  0.00  0.00    +0.000 NA
ENDBRANCH  12  13
ENDBRANCH  11  12
ENDBRANCH   8  11
ENDBRANCH   7   8
ENDBRANCH   1   7
BRANCH   4  19
ATOM     19  C   UNL     1      48.512   8.450  14.444  0.00  0.00    +0.000 C 
BRANCH  19  20
ATOM     20  N   UNL     1      47.451   7.571  14.042  0.00  0.00    +0.000 N 
ATOM     21  C   UNL     1      47.709   6.476  13.262  0.00  0.00    +0.000 C 
ATOM     22  O   UNL     1      48.848   6.188  12.900  0.00  0.00    +0.000 OA
ATOM     23  H   UNL     1      46.501   7.923  14.113  0.00  0.00    +0.000 HD
BRANCH  21  24
ATOM     24  C   UNL     1      46.560   5.630  12.940  0.00  0.00    +0.000 A 
ATOM     25  C   UNL     1      46.609   4.269  13.226  0.00  0.00    +0.000 A 
ATOM     26  S   UNL     1      45.172   3.443  12.843  0.00  0.00    +0.000 S 
ATOM     27  C   UNL     1      44.448   4.861  12.241  0.00  0.00    +0.000 A 
ATOM     28  N   UNL     1      43.191   4.842  11.725  0.00  0.00    +0.000 NA
ATOM     29  C   UNL     1      42.775   5.983  11.288  0.00  0.00    +0.000 A 
ATOM     30  N   UNL     1      43.501   7.145  11.320  0.00  0.00    +0.000 N 
ATOM     31  C   UNL     1      44.769   7.218  11.848  0.00  0.00    +0.000 A 
ATOM     32  O   UNL     1      45.381   8.278  11.888  0.00  0.00    +0.000 OA
ATOM     33  C   UNL     1      45.287   5.956  12.348  0.00  0.00    +0.000 A 
ATOM     34  H   UNL     1      43.114   8.007  10.970  0.00  0.00    +0.000 HD
ENDBRANCH  21  24
ENDBRANCH  19  20
ENDBRANCH   4  19
TORSDOF 8
ENDMDL
MODEL 7
REMARK VINA RESULT:    -6.534      1.573      1.988
REMARK INTER + INTRA:         -10.933
REMARK INTER:                 -10.265
REMARK INTRA:                  -0.667
REMARK UNBOUND:                -1.344
REMARK  Name = 
REMARK  10 active torsions:
REMARK  status: ('A' for Active; 'I' for Inactive)
REMARK    1  A    between atoms: C_1  and  C_2
REMARK    2  A    between atoms: C_2  and  C_3
REMARK    3  A    between atoms: C_2  and  N_10
REMARK    4  A    between atoms: C_3  and  C_4
REMARK    5  A    between atoms: N_10  and  C_11
REMARK    6  A    between atoms: N_10  and  C_12
REMARK    7  A    between atoms: C_12  and  C_13
REMARK    8  A    between atoms: C_16  and  C_17
REMARK    9  A    between atoms: C_17  and  N_18
REMARK   10  A    between atoms: C_19  and  C_21
REMARK                            x       y       z     vdW  Elec       q    Type
REMARK                         _______ _______ _______ _____ _____    ______ ____
ROOT
ATOM      1  C   UNL     1      46.933   5.761  12.915  0.00  0.00    +0.000 A 
ATOM      2  C   UNL     1      47.699   6.698  12.222  0.00  0.00    +0.000 A 
ATOM      3  C   UNL     1      48.781   7.306  12.842  0.00  0.00    +0.000 A 
ATOM      4  C   UNL     1      49.022   7.058  14.188  0.00  0.00    +0.000 A 
ATOM      5  C   UNL     1      48.225   6.112  14.816  0.00  0.00    +0.000 A 
ATOM      6  N   UNL     1      47.203   5.459  14.212  0.00  0.00    +0.000 NA
ENDROOT
BRANCH   1   7
ATOM      7  C   UNL     1      45.668   5.152  12.310  0.00  0.00    +0.000 C 
BRANCH   7   8
ATOM      8  N   UNL     1      45.017   5.833  11.153  0.00  0.00    +0.000 NA
ATOM      9  C   UNL     1      44.573   7.184  11.502  0.00  0.00    +0.000 C 
BRANCH   8  11
ATOM     10  C   UNL     1      42.613   5.079  11.471  0.00  0.00    +0.000 C 
ATOM     11  C   UNL     1      43.886   5.020  10.600  0.00  0.00    +0.000 C 
BRANCH  11  12
ATOM     12  C   UNL     1      44.225   3.516  10.344  0.00  0.00    +0.000 C 
BRANCH  12  13
ATOM     13  C   UNL     1      45.176   3.256   9.200  0.00  0.00    +0.000 A 
ATOM     14  C   UNL     1      45.633   1.973   8.904  0.00  0.00    +0.000 A 
ATOM     15  C   UNL     1      46.423   1.775   7.778  0.00  0.00    +0.000 A 
ATOM     16  C   UNL     1      46.768   2.866   6.993  0.00  0.00    +0.000 A 
ATOM     17  C   UNL     1      46.313   4.114   7.380  0.00  0.00    +0.000 A 
ATOM     18  N   UNL     1      45.530   4.333   8.457  0.00  0.00    +0.000 NA
ENDBRANCH  12  13
ENDBRANCH  11  12
ENDBRANCH   8  11
ENDBRANCH   7   8
ENDBRANCH   1   7
BRANCH   4  19
ATOM     19  C   UNL     1      50.092   7.799  14.920  0.00  0.00    +0.000 C 
BRANCH  19  20
ATOM     20  N   UNL     1      51.079   6.902  15.450  0.00  0.00    +0.000 N 
ATOM     21  C   UNL     1      51.465   6.985  16.760  0.00  0.00    +0.000 C 
ATOM     22  O   UNL     1      50.971   7.800  17.535  0.00  0.00    +0.000 OA
ATOM     23  H   UNL     1      51.666   6.409  14.784  0.00  0.00    +0.000 HD
BRANCH  21  24
ATOM     24  C   UNL     1      52.453   6.001  17.203  0.00  0.00    +0.000 A 
ATOM     25  C   UNL     1      53.775   6.395  17.395  0.00  0.00    +0.000 A 
ATOM     26  S   UNL     1      54.779   5.146  17.966  0.00  0.00    +0.000 S 
ATOM     27  C   UNL     1      53.500   4.024  17.936  0.00  0.00    +0.000 A 
ATOM     28  N   UNL     1      53.696   2.727  18.294  0.00  0.00    +0.000 NA
ATOM     29  C   UNL     1      52.645   1.983  18.206  0.00  0.00    +0.000 A 
ATOM     30  N   UNL     1      51.412   2.417  17.792  0.00  0.00    +0.000 N 
ATOM     31  C   UNL     1      51.161   3.722  17.437  0.00  0.00    +0.000 A 
ATOM     32  O   UNL     1      50.040   4.085  17.099  0.00  0.00    +0.000 OA
ATOM     33  C   UNL     1      52.316   4.600  17.512  0.00  0.00    +0.000 A 
ATOM     34  H   UNL     1      50.627   1.786  17.755  0.00  0.00    +0.000 HD
ENDBRANCH  21  24
ENDBRANCH  19  20
ENDBRANCH   4  19
TORSDOF 8
ENDMDL
MODEL 8
REMARK VINA RESULT:    -6.368      3.301      3.661
REMARK INTER + INTRA:         -10.690
REMARK INTER:                  -9.804
REMARK INTRA:                  -0.886
REMARK UNBOUND:                -1.344
REMARK  Name = 
REMARK  10 active torsions:
REMARK  status: ('A' for Active; 'I' for Inactive)
REMARK    1  A    between atoms: C_1  and  C_2
REMARK    2  A    between atoms: C_2  and  C_3
REMARK    3  A    between atoms: C_2  and  N_10
REMARK    4  A    between atoms: C_3  and  C_4
REMARK    5  A    between atoms: N_10  and  C_11
REMARK    6  A    between atoms: N_10  and  C_12
REMARK    7  A    between atoms: C_12  and  C_13
REMARK    8  A    between atoms: C_16  and  C_17
REMARK    9  A    between atoms: C_17  and  N_18
REMARK   10  A    between atoms: C_19  and  C_21
REMARK                            x       y       z     vdW  Elec       q    Type
REMARK                         _______ _______ _______ _____ _____    ______ ____
ROOT
ATOM      1  C   UNL     1      47.046   5.560  13.061  0.00  0.00    +0.000 A 
ATOM      2  C   UNL     1      47.802   6.522  12.390  0.00  0.00    +0.000 A 
ATOM      3  C   UNL     1      48.839   7.170  13.045  0.00  0.00    +0.000 A 
ATOM      4  C   UNL     1      49.042   6.936  14.399  0.00  0.00    +0.000 A 
ATOM      5  C   UNL     1      48.258   5.964  15.004  0.00  0.00    +0.000 A 
ATOM      6  N   UNL     1      47.282   5.272  14.368  0.00  0.00    +0.000 NA
ENDROOT
BRANCH   1   7
ATOM      7  C   UNL     1      45.826   4.904  12.416  0.00  0.00    +0.000 C 
BRANCH   7   8
ATOM      8  N   UNL     1      45.199   5.552  11.226  0.00  0.00    +0.000 NA
ATOM      9  C   UNL     1      44.568   6.827  11.575  0.00  0.00    +0.000 C 
BRANCH   8  11
ATOM     10  C   UNL     1      42.850   4.587  11.251  0.00  0.00    +0.000 C 
ATOM     11  C   UNL     1      44.224   4.635  10.550  0.00  0.00    +0.000 C 
BRANCH  11  12
ATOM     12  C   UNL     1      44.724   3.166  10.370  0.00  0.00    +0.000 C 
BRANCH  12  13
ATOM     13  C   UNL     1      45.411   2.876   9.057  0.00  0.00    +0.000 A 
ATOM     14  C   UNL     1      45.618   3.869   8.102  0.00  0.00    +0.000 A 
ATOM     15  C   UNL     1      46.348   3.572   6.957  0.00  0.00    +0.000 A 
ATOM     16  C   UNL     1      46.825   2.282   6.775  0.00  0.00    +0.000 A 
ATOM     17  C   UNL     1      46.537   1.339   7.746  0.00  0.00    +0.000 A 
ATOM     18  N   UNL     1      45.847   1.605   8.876  0.00  0.00    +0.000 NA
ENDBRANCH  12  13
ENDBRANCH  11  12
ENDBRANCH   8  11
ENDBRANCH   7   8
ENDBRANCH   1   7
BRANCH   4  19
ATOM     19  C   UNL     1      50.059   7.717  15.164  0.00  0.00    +0.000 C 
BRANCH  19  20
ATOM     20  N   UNL     1      50.313   7.128  16.448  0.00  0.00    +0.000 N 
ATOM     21  C   UNL     1      50.141   7.854  17.596  0.00  0.00    +0.000 C 
ATOM     22  O   UNL     1      49.742   9.016  17.578  0.00  0.00    +0.000 OA
ATOM     23  H   UNL     1      50.872   6.280  16.470  0.00  0.00    +0.000 HD
BRANCH  21  24
ATOM     24  C   UNL     1      50.397   7.145  18.850  0.00  0.00    +0.000 A 
ATOM     25  C   UNL     1      51.691   7.096  19.358  0.00  0.00    +0.000 A 
ATOM     26  S   UNL     1      51.805   6.285  20.850  0.00  0.00    +0.000 S 
ATOM     27  C   UNL     1      50.140   5.931  20.850  0.00  0.00    +0.000 A 
ATOM     28  N   UNL     1      49.575   5.220  21.861  0.00  0.00    +0.000 NA
ATOM     29  C   UNL     1      48.309   5.008  21.724  0.00  0.00    +0.000 A 
ATOM     30  N   UNL     1      47.554   5.445  20.667  0.00  0.00    +0.000 N 
ATOM     31  C   UNL     1      48.076   6.183  19.630  0.00  0.00    +0.000 A 
ATOM     32  O   UNL     1      47.368   6.583  18.714  0.00  0.00    +0.000 OA
ATOM     33  C   UNL     1      49.502   6.442  19.734  0.00  0.00    +0.000 A 
ATOM     34  H   UNL     1      46.564   5.255  20.624  0.00  0.00    +0.000 HD
ENDBRANCH  21  24
ENDBRANCH  19  20
ENDBRANCH   4  19
TORSDOF 8
ENDMDL
MODEL 9
REMARK VINA RESULT:    -6.334      4.466      9.357
REMARK INTER + INTRA:         -10.640
REMARK INTER:                  -8.426
REMARK INTRA:                  -2.214
REMARK UNBOUND:                -1.344
REMARK  Name = 
REMARK  10 active torsions:
REMARK  status: ('A' for Active; 'I' for Inactive)
REMARK    1  A    between atoms: C_1  and  C_2
REMARK    2  A    between atoms: C_2  and  C_3
REMARK    3  A    between atoms: C_2  and  N_10
REMARK    4  A    between atoms: C_3  and  C_4
REMARK    5  A    between atoms: N_10  and  C_11
REMARK    6  A    between atoms: N_10  and  C_12
REMARK    7  A    between atoms: C_12  and  C_13
REMARK    8  A    between atoms: C_16  and  C_17
REMARK    9  A    between atoms: C_17  and  N_18
REMARK   10  A    between atoms: C_19  and  C_21
REMARK                            x       y       z     vdW  Elec       q    Type
REMARK                         _______ _______ _______ _____ _____    ______ ____
ROOT
ATOM      1  C   UNL     1      49.199  10.114  17.875  0.00  0.00    +0.000 A 
ATOM      2  C   UNL     1      50.309   9.272  17.944  0.00  0.00    +0.000 A 
ATOM      3  C   UNL     1      50.358   8.123  17.168  0.00  0.00    +0.000 A 
ATOM      4  C   UNL     1      49.248   7.763  16.414  0.00  0.00    +0.000 A 
ATOM      5  C   UNL     1      48.179   8.647  16.388  0.00  0.00    +0.000 A 
ATOM      6  N   UNL     1      48.135   9.806  17.087  0.00  0.00    +0.000 NA
ENDROOT
BRANCH   1   7
ATOM      7  C   UNL     1      49.052  11.327  18.793  0.00  0.00    +0.000 C 
BRANCH   7   8
ATOM      8  N   UNL     1      48.535  11.130  20.179  0.00  0.00    +0.000 NA
ATOM      9  C   UNL     1      49.625  10.953  21.141  0.00  0.00    +0.000 C 
BRANCH   8  11
ATOM     10  C   UNL     1      46.163  10.412  20.736  0.00  0.00    +0.000 C 
ATOM     11  C   UNL     1      47.565   9.989  20.248  0.00  0.00    +0.000 C 
BRANCH  11  12
ATOM     12  C   UNL     1      48.035   8.781  21.120  0.00  0.00    +0.000 C 
BRANCH  12  13
ATOM     13  C   UNL     1      48.249   7.489  20.369  0.00  0.00    +0.000 A 
ATOM     14  C   UNL     1      49.397   6.718  20.547  0.00  0.00    +0.000 A 
ATOM     15  C   UNL     1      49.496   5.486  19.911  0.00  0.00    +0.000 A 
ATOM     16  C   UNL     1      48.464   5.068  19.084  0.00  0.00    +0.000 A 
ATOM     17  C   UNL     1      47.379   5.911  18.921  0.00  0.00    +0.000 A 
ATOM     18  N   UNL     1      47.248   7.103  19.541  0.00  0.00    +0.000 NA
ENDBRANCH  12  13
ENDBRANCH  11  12
ENDBRANCH   8  11
ENDBRANCH   7   8
ENDBRANCH   1   7
BRANCH   4  19
ATOM     19  C   UNL     1      49.216   6.464  15.677  0.00  0.00    +0.000 C 
BRANCH  19  20
ATOM     20  N   UNL     1      48.011   6.328  14.909  0.00  0.00    +0.000 N 
ATOM     21  C   UNL     1      48.044   6.387  13.542  0.00  0.00    +0.000 C 
ATOM     22  O   UNL     1      49.095   6.530  12.921  0.00  0.00    +0.000 OA
ATOM     23  H   UNL     1      47.130   6.464  15.396  0.00  0.00    +0.000 HD
BRANCH  21  24
ATOM     24  C   UNL     1      46.763   6.204  12.859  0.00  0.00    +0.000 A 
ATOM     25  C   UNL     1      46.134   7.300  12.277  0.00  0.00    +0.000 A 
ATOM     26  S   UNL     1      44.687   6.904  11.474  0.00  0.00    +0.000 S 
ATOM     27  C   UNL     1      44.823   5.266  11.913  0.00  0.00    +0.000 A 
ATOM     28  N   UNL     1      43.874   4.362  11.552  0.00  0.00    +0.000 NA
ATOM     29  C   UNL     1      44.094   3.160  11.968  0.00  0.00    +0.000 A 
ATOM     30  N   UNL     1      45.180   2.777  12.711  0.00  0.00    +0.000 N 
ATOM     31  C   UNL     1      46.175   3.650  13.085  0.00  0.00    +0.000 A 
ATOM     32  O   UNL     1      47.148   3.269  13.725  0.00  0.00    +0.000 OA
ATOM     33  C   UNL     1      45.970   5.020  12.647  0.00  0.00    +0.000 A 
ATOM     34  H   UNL     1      45.299   1.817  12.997  0.00  0.00    +0.000 HD
ENDBRANCH  21  24
ENDBRANCH  19  20
ENDBRANCH   4  19
TORSDOF 8
ENDMDL
