MODEL 1
REMARK VINA RESULT:    -8.490      0.000      0.000
REMARK INTER + INTRA:         -11.780
REMARK INTER:                 -10.972
REMARK INTRA:                  -0.808
REMARK UNBOUND:                -0.808
REMARK  Name = 
REMARK  5 active torsions:
REMARK  status: ('A' for Active; 'I' for Inactive)
REMARK    1  A    between atoms: C_2  and  C_4
REMARK    2  A    between atoms: C_8  and  N_9
REMARK    3  A    between atoms: N_9  and  C_10
REMARK    4  A    between atoms: C_10  and  C_11
REMARK    5  A    between atoms: C_16  and  C_17
REMARK                            x       y       z     vdW  Elec       q    Type
REMARK                         _______ _______ _______ _____ _____    ______ ____
ROOT
ATOM      1  C   UNL     1      44.181   4.741  11.059  0.00  0.00    +0.000 C 
ENDROOT
BRANCH   1   2
ATOM      2  C   UNL     1      45.403   5.223  11.799  0.00  0.00    +0.000 A 
ATOM      3  C   UNL     1      46.170   6.280  11.298  0.00  0.00    +0.000 A 
ATOM      4  C   UNL     1      47.287   6.712  12.002  0.00  0.00    +0.000 A 
ATOM      5  F   UNL     1      48.010   7.733  11.522  0.00  0.00    +0.000 F 
ATOM      6  C   UNL     1      47.666   6.111  13.199  0.00  0.00    +0.000 A 
ATOM      7  C   UNL     1      46.928   5.041  13.730  0.00  0.00    +0.000 A 
ATOM      8  C   UNL     1      45.801   4.606  12.998  0.00  0.00    +0.000 A 
BRANCH   7   9
ATOM      9  C   UNL     1      47.310   4.377  14.994  0.00  0.00    +0.000 A 
ATOM     10  C   UNL     1      47.281   5.025  16.230  0.00  0.00    +0.000 A 
ATOM     11  C   UNL     1      47.674   4.332  17.375  0.00  0.00    +0.000 A 
ATOM     12  C   UNL     1      48.082   3.012  17.264  0.00  0.00    +0.000 A 
ATOM     13  C   UNL     1      48.071   2.432  16.010  0.00  0.00    +0.000 A 
ATOM     14  N   UNL     1      47.693   3.079  14.884  0.00  0.00    +0.000 NA
ENDBRANCH   7   9
ENDBRANCH   1   2
BRANCH   1  15
ATOM     15  N   UNL     1      44.420   4.792   9.624  0.00  0.00    +0.000 N 
ATOM     16  H   UNL     1      44.790   5.688   9.312  0.00  0.00    +0.000 HD
BRANCH  15  21
ATOM     17  C   UNL     1      46.468   2.698   7.312  0.00  0.00    +0.000 A 
ATOM     18  C   UNL     1      46.189   1.459   7.866  0.00  0.00    +0.000 A 
ATOM     19  N   UNL     1      45.386   1.288   8.940  0.00  0.00    +0.000 NA
ATOM     20  C   UNL     1      44.826   2.410   9.457  0.00  0.00    +0.000 A 
ATOM     21  C   UNL     1      44.993   3.708   8.957  0.00  0.00    +0.000 A 
ATOM     22  C   UNL     1      45.862   3.832   7.869  0.00  0.00    +0.000 A 
BRANCH  17  24
ATOM     23  N   UNL     1      48.692   2.461   6.361  0.00  0.00    +0.000 N 
ATOM     24  C   UNL     1      47.375   2.769   6.149  0.00  0.00    +0.000 C 
ATOM     25  O   UNL     1      46.966   3.059   5.034  0.00  0.00    +0.000 OA
ATOM     26  H   UNL     1      49.273   2.405   5.535  0.00  0.00    +0.000 HD
ATOM     27  H   UNL     1      49.004   1.964   7.183  0.00  0.00    +0.000 HD
ENDBRANCH  17  24
ENDBRANCH  15  21
ENDBRANCH   1  15
TORSDOF 5
ENDMDL
MODEL 2
REMARK VINA RESULT:    -8.480      2.446      3.932
REMARK INTER + INTRA:         -11.767
REMARK INTER:                 -10.994
REMARK INTRA:                  -0.773
REMARK UNBOUND:                -0.808
REMARK  Name = 
REMARK  5 active torsions:
REMARK  status: ('A' for Active; 'I' for Inactive)
REMARK    1  A    between atoms: C_2  and  C_4
REMARK    2  A    between atoms: C_8  and  N_9
REMARK    3  A    between atoms: N_9  and  C_10
REMARK    4  A    between atoms: C_10  and  C_11
REMARK    5  A    between atoms: C_16  and  C_17
REMARK                            x       y       z     vdW  Elec       q    Type
REMARK                         _______ _______ _______ _____ _____    ______ ____
ROOT
ATOM      1  C   UNL     1      43.641   4.555  10.617  0.00  0.00    +0.000 C 
ENDROOT
BRANCH   1   2
ATOM      2  C   UNL     1      44.834   4.902  11.471  0.00  0.00    +0.000 A 
ATOM      3  C   UNL     1      45.341   3.983  12.396  0.00  0.00    +0.000 A 
ATOM      4  C   UNL     1      46.447   4.321  13.166  0.00  0.00    +0.000 A 
ATOM      5  F   UNL     1      46.934   3.432  14.042  0.00  0.00    +0.000 F 
ATOM      6  C   UNL     1      47.063   5.563  13.040  0.00  0.00    +0.000 A 
ATOM      7  C   UNL     1      46.580   6.516  12.130  0.00  0.00    +0.000 A 
ATOM      8  C   UNL     1      45.449   6.162  11.362  0.00  0.00    +0.000 A 
BRANCH   7   9
ATOM      9  C   UNL     1      47.209   7.845  11.980  0.00  0.00    +0.000 A 
ATOM     10  C   UNL     1      48.565   8.016  11.698  0.00  0.00    +0.000 A 
ATOM     11  C   UNL     1      49.084   9.306  11.589  0.00  0.00    +0.000 A 
ATOM     12  C   UNL     1      48.242  10.394  11.760  0.00  0.00    +0.000 A 
ATOM     13  C   UNL     1      46.909  10.148  12.023  0.00  0.00    +0.000 A 
ATOM     14  N   UNL     1      46.377   8.909  12.132  0.00  0.00    +0.000 NA
ENDBRANCH   7   9
ENDBRANCH   1   2
BRANCH   1  15
ATOM     15  N   UNL     1      44.018   4.568   9.212  0.00  0.00    +0.000 N 
ATOM     16  H   UNL     1      44.316   5.485   8.885  0.00  0.00    +0.000 HD
BRANCH  15  21
ATOM     17  C   UNL     1      46.486   2.618   7.202  0.00  0.00    +0.000 A 
ATOM     18  C   UNL     1      46.328   1.392   7.828  0.00  0.00    +0.000 A 
ATOM     19  N   UNL     1      45.476   1.186   8.857  0.00  0.00    +0.000 NA
ATOM     20  C   UNL     1      44.739   2.255   9.251  0.00  0.00    +0.000 A 
ATOM     21  C   UNL     1      44.775   3.528   8.667  0.00  0.00    +0.000 A 
ATOM     22  C   UNL     1      45.700   3.695   7.632  0.00  0.00    +0.000 A 
BRANCH  17  24
ATOM     23  N   UNL     1      48.773   2.476   6.393  0.00  0.00    +0.000 N 
ATOM     24  C   UNL     1      47.461   2.733   6.099  0.00  0.00    +0.000 C 
ATOM     25  O   UNL     1      47.112   3.014   4.961  0.00  0.00    +0.000 OA
ATOM     26  H   UNL     1      49.407   2.449   5.604  0.00  0.00    +0.000 HD
ATOM     27  H   UNL     1      49.053   1.986   7.230  0.00  0.00    +0.000 HD
ENDBRANCH  17  24
ENDBRANCH  15  21
ENDBRANCH   1  15
TORSDOF 5
ENDMDL
MODEL 3
REMARK VINA RESULT:    -8.443      3.033      7.197
REMARK INTER + INTRA:         -11.719
REMARK INTER:                 -10.911
REMARK INTRA:                  -0.808
REMARK UNBOUND:                -0.808
REMARK  Name = 
REMARK  5 active torsions:
REMARK  status: ('A' for Active; 'I' for Inactive)
REMARK    1  A    between atoms: C_2  and  C_4
REMARK    2  A    between atoms: C_8  and  N_9
REMARK    3  A    between atoms: N_9  and  C_10
REMARK    4  A    between atoms: C_10  and  C_11
REMARK    5  A    between atoms: C_16  and  C_17
REMARK                            x       y       z     vdW  Elec       q    Type
REMARK                         _______ _______ _______ _____ _____    ______ ____
ROOT
ATOM      1  C   UNL     1      43.463   6.473  10.904  0.00  0.00    +0.000 C 
ENDROOT
BRANCH   1   2
ATOM      2  C   UNL     1      43.744   5.013  10.652  0.00  0.00    +0.000 A 
ATOM      3  C   UNL     1      43.185   4.027  11.471  0.00  0.00    +0.000 A 
ATOM      4  C   UNL     1      43.450   2.687  11.215  0.00  0.00    +0.000 A 
ATOM      5  F   UNL     1      42.901   1.748  11.996  0.00  0.00    +0.000 F 
ATOM      6  C   UNL     1      44.270   2.302  10.157  0.00  0.00    +0.000 A 
ATOM      7  C   UNL     1      44.858   3.262   9.318  0.00  0.00    +0.000 A 
ATOM      8  C   UNL     1      44.587   4.619   9.597  0.00  0.00    +0.000 A 
BRANCH   7   9
ATOM      9  C   UNL     1      45.739   2.883   8.192  0.00  0.00    +0.000 A 
ATOM     10  C   UNL     1      46.349   1.632   8.093  0.00  0.00    +0.000 A 
ATOM     11  C   UNL     1      47.180   1.360   7.007  0.00  0.00    +0.000 A 
ATOM     12  C   UNL     1      47.382   2.337   6.044  0.00  0.00    +0.000 A 
ATOM     13  C   UNL     1      46.733   3.547   6.201  0.00  0.00    +0.000 A 
ATOM     14  N   UNL     1      45.920   3.837   7.243  0.00  0.00    +0.000 NA
ENDBRANCH   7   9
ENDBRANCH   1   2
BRANCH   1  15
ATOM     15  N   UNL     1      43.948   6.848  12.224  0.00  0.00    +0.000 N 
ATOM     16  H   UNL     1      43.258   6.701  12.959  0.00  0.00    +0.000 HD
BRANCH  15  21
ATOM     17  C   UNL     1      46.879   5.223  13.865  0.00  0.00    +0.000 A 
ATOM     18  C   UNL     1      47.884   5.880  13.174  0.00  0.00    +0.000 A 
ATOM     19  N   UNL     1      47.646   6.803  12.215  0.00  0.00    +0.000 NA
ATOM     20  C   UNL     1      46.344   7.087  11.962  0.00  0.00    +0.000 A 
ATOM     21  C   UNL     1      45.246   6.526  12.626  0.00  0.00    +0.000 A 
ATOM     22  C   UNL     1      45.547   5.551  13.582  0.00  0.00    +0.000 A 
BRANCH  17  24
ATOM     23  N   UNL     1      47.201   4.604  16.193  0.00  0.00    +0.000 N 
ATOM     24  C   UNL     1      47.254   4.218  14.881  0.00  0.00    +0.000 C 
ATOM     25  O   UNL     1      47.567   3.078  14.570  0.00  0.00    +0.000 OA
ATOM     26  H   UNL     1      47.350   3.873  16.877  0.00  0.00    +0.000 HD
ATOM     27  H   UNL     1      46.696   5.426  16.494  0.00  0.00    +0.000 HD
ENDBRANCH  17  24
ENDBRANCH  15  21
ENDBRANCH   1  15
TORSDOF 5
ENDMDL
MODEL 4
REMARK VINA RESULT:    -8.018      3.321      6.868
REMARK INTER + INTRA:         -11.170
REMARK INTER:                 -10.284
REMARK INTRA:                  -0.886
REMARK UNBOUND:                -0.808
REMARK  Name = 
REMARK  5 active torsions:
REMARK  status: ('A' for Active; 'I' for Inactive)
REMARK    1  A    between atoms: C_2  and  C_4
REMARK    2  A    between atoms: C_8  and  N_9
REMARK    3  A    between atoms: N_9  and  C_10
REMARK    4  A    between atoms: C_10  and  C_11
REMARK    5  A    between atoms: C_16  and  C_17
REMARK                            x       y       z     vdW  Elec       q    Type
REMARK                         _______ _______ _______ _____ _____    ______ ____
ROOT
ATOM      1  C   UNL     1      43.659   6.452  11.094  0.00  0.00    +0.000 C 
ENDROOT
BRANCH   1   2
ATOM      2  C   UNL     1      43.870   4.991  10.787  0.00  0.00    +0.000 A 
ATOM      3  C   UNL     1      43.258   4.002  11.564  0.00  0.00    +0.000 A 
ATOM      4  C   UNL     1      43.461   2.662  11.258  0.00  0.00    +0.000 A 
ATOM      5  F   UNL     1      42.861   1.721  11.999  0.00  0.00    +0.000 F 
ATOM      6  C   UNL     1      44.268   2.279  10.191  0.00  0.00    +0.000 A 
ATOM      7  C   UNL     1      44.907   3.240   9.392  0.00  0.00    +0.000 A 
ATOM      8  C   UNL     1      44.701   4.597   9.722  0.00  0.00    +0.000 A 
BRANCH   7   9
ATOM      9  C   UNL     1      45.777   2.863   8.257  0.00  0.00    +0.000 A 
ATOM     10  C   UNL     1      46.119   3.750   7.235  0.00  0.00    +0.000 A 
ATOM     11  C   UNL     1      46.931   3.310   6.190  0.00  0.00    +0.000 A 
ATOM     12  C   UNL     1      47.386   2.001   6.189  0.00  0.00    +0.000 A 
ATOM     13  C   UNL     1      47.019   1.184   7.240  0.00  0.00    +0.000 A 
ATOM     14  N   UNL     1      46.234   1.584   8.268  0.00  0.00    +0.000 NA
ENDBRANCH   7   9
ENDBRANCH   1   2
BRANCH   1  15
ATOM     15  N   UNL     1      44.309   6.792  12.350  0.00  0.00    +0.000 N 
ATOM     16  H   UNL     1      43.750   6.551  13.167  0.00  0.00    +0.000 HD
BRANCH  15  21
ATOM     17  C   UNL     1      48.027   7.110  12.338  0.00  0.00    +0.000 A 
ATOM     18  C   UNL     1      48.323   6.032  13.157  0.00  0.00    +0.000 A 
ATOM     19  N   UNL     1      47.379   5.233  13.702  0.00  0.00    +0.000 NA
ATOM     20  C   UNL     1      46.090   5.521  13.389  0.00  0.00    +0.000 A 
ATOM     21  C   UNL     1      45.672   6.551  12.537  0.00  0.00    +0.000 A 
ATOM     22  C   UNL     1      46.686   7.370  12.030  0.00  0.00    +0.000 A 
BRANCH  17  24
ATOM     23  N   UNL     1      50.389   7.371  11.824  0.00  0.00    +0.000 N 
ATOM     24  C   UNL     1      49.138   7.929  11.812  0.00  0.00    +0.000 C 
ATOM     25  O   UNL     1      48.950   9.046  11.351  0.00  0.00    +0.000 OA
ATOM     26  H   UNL     1      51.115   7.900  11.357  0.00  0.00    +0.000 HD
ATOM     27  H   UNL     1      50.535   6.379  11.936  0.00  0.00    +0.000 HD
ENDBRANCH  17  24
ENDBRANCH  15  21
ENDBRANCH   1  15
TORSDOF 5
ENDMDL
MODEL 5
REMARK VINA RESULT:    -7.808      1.289      1.459
REMARK INTER + INTRA:         -10.898
REMARK INTER:                 -10.020
REMARK INTRA:                  -0.877
REMARK UNBOUND:                -0.808
REMARK  Name = 
REMARK  5 active torsions:
REMARK  status: ('A' for Active; 'I' for Inactive)
REMARK    1  A    between atoms: C_2  and  C_4
REMARK    2  A    between atoms: C_8  and  N_9
REMARK    3  A    between atoms: N_9  and  C_10
REMARK    4  A    between atoms: C_10  and  C_11
REMARK    5  A    between atoms: C_16  and  C_17
REMARK                            x       y       z     vdW  Elec       q    Type
REMARK                         _______ _______ _______ _____ _____    ______ ____
ROOT
ATOM      1  C   UNL     1      44.225   5.808  11.721  0.00  0.00    +0.000 C 
ENDROOT
BRANCH   1   2
ATOM      2  C   UNL     1      45.626   6.034  12.231  0.00  0.00    +0.000 A 
ATOM      3  C   UNL     1      46.538   6.799  11.496  0.00  0.00    +0.000 A 
ATOM      4  C   UNL     1      47.821   7.001  11.990  0.00  0.00    +0.000 A 
ATOM      5  F   UNL     1      48.685   7.744  11.286  0.00  0.00    +0.000 F 
ATOM      6  C   UNL     1      48.223   6.453  13.204  0.00  0.00    +0.000 A 
ATOM      7  C   UNL     1      47.341   5.672  13.967  0.00  0.00    +0.000 A 
ATOM      8  C   UNL     1      46.044   5.466  13.448  0.00  0.00    +0.000 A 
BRANCH   7   9
ATOM      9  C   UNL     1      47.742   5.070  15.257  0.00  0.00    +0.000 A 
ATOM     10  C   UNL     1      47.108   3.953  15.804  0.00  0.00    +0.000 A 
ATOM     11  C   UNL     1      47.536   3.457  17.034  0.00  0.00    +0.000 A 
ATOM     12  C   UNL     1      48.587   4.080  17.689  0.00  0.00    +0.000 A 
ATOM     13  C   UNL     1      49.176   5.171  17.081  0.00  0.00    +0.000 A 
ATOM     14  N   UNL     1      48.782   5.673  15.887  0.00  0.00    +0.000 NA
ENDBRANCH   7   9
ENDBRANCH   1   2
BRANCH   1  15
ATOM     15  N   UNL     1      44.245   5.652  10.275  0.00  0.00    +0.000 N 
ATOM     16  H   UNL     1      44.678   6.439   9.794  0.00  0.00    +0.000 HD
BRANCH  15  21
ATOM     17  C   UNL     1      45.783   2.990   8.160  0.00  0.00    +0.000 A 
ATOM     18  C   UNL     1      45.214   1.889   8.779  0.00  0.00    +0.000 A 
ATOM     19  N   UNL     1      44.376   1.982   9.835  0.00  0.00    +0.000 NA
ATOM     20  C   UNL     1      44.085   3.235  10.266  0.00  0.00    +0.000 A 
ATOM     21  C   UNL     1      44.559   4.422   9.693  0.00  0.00    +0.000 A 
ATOM     22  C   UNL     1      45.451   4.268   8.627  0.00  0.00    +0.000 A 
BRANCH  17  24
ATOM     23  N   UNL     1      47.016   3.859   6.253  0.00  0.00    +0.000 N 
ATOM     24  C   UNL     1      46.701   2.772   7.024  0.00  0.00    +0.000 C 
ATOM     25  O   UNL     1      47.189   1.674   6.795  0.00  0.00    +0.000 OA
ATOM     26  H   UNL     1      47.732   3.714   5.552  0.00  0.00    +0.000 HD
ATOM     27  H   UNL     1      46.858   4.806   6.567  0.00  0.00    +0.000 HD
ENDBRANCH  17  24
ENDBRANCH  15  21
ENDBRANCH   1  15
TORSDOF 5
ENDMDL
MODEL 6
REMARK VINA RESULT:    -7.572      3.271      7.477
REMARK INTER + INTRA:         -10.594
REMARK INTER:                  -9.691
REMARK INTRA:                  -0.903
REMARK UNBOUND:                -0.808
REMARK  Name = 
REMARK  5 active torsions:
REMARK  status: ('A' for Active; 'I' for Inactive)
REMARK    1  A    between atoms: C_2  and  C_4
REMARK    2  A    between atoms: C_8  and  N_9
REMARK    3  A    between atoms: N_9  and  C_10
REMARK    4  A    between atoms: C_10  and  C_11
REMARK    5  A    between atoms: C_16  and  C_17
REMARK                            x       y       z     vdW  Elec       q    Type
REMARK                         _______ _______ _______ _____ _____    ______ ____
ROOT
ATOM      1  C   UNL     1      46.243   7.618  12.227  0.00  0.00    +0.000 C 
ENDROOT
BRANCH   1   2
ATOM      2  C   UNL     1      45.324   6.594  11.610  0.00  0.00    +0.000 A 
ATOM      3  C   UNL     1      43.978   6.524  11.985  0.00  0.00    +0.000 A 
ATOM      4  C   UNL     1      43.149   5.578  11.397  0.00  0.00    +0.000 A 
ATOM      5  F   UNL     1      41.858   5.525  11.751  0.00  0.00    +0.000 F 
ATOM      6  C   UNL     1      43.631   4.688  10.441  0.00  0.00    +0.000 A 
ATOM      7  C   UNL     1      44.977   4.719  10.045  0.00  0.00    +0.000 A 
ATOM      8  C   UNL     1      45.811   5.679  10.659  0.00  0.00    +0.000 A 
BRANCH   7   9
ATOM      9  C   UNL     1      45.520   3.781   9.039  0.00  0.00    +0.000 A 
ATOM     10  C   UNL     1      46.143   4.206   7.864  0.00  0.00    +0.000 A 
ATOM     11  C   UNL     1      46.613   3.257   6.957  0.00  0.00    +0.000 A 
ATOM     12  C   UNL     1      46.455   1.909   7.241  0.00  0.00    +0.000 A 
ATOM     13  C   UNL     1      45.841   1.563   8.430  0.00  0.00    +0.000 A 
ATOM     14  N   UNL     1      45.378   2.462   9.328  0.00  0.00    +0.000 NA
ENDBRANCH   7   9
ENDBRANCH   1   2
BRANCH   1  15
ATOM     15  N   UNL     1      47.514   6.999  12.570  0.00  0.00    +0.000 N 
ATOM     16  H   UNL     1      48.313   7.465  12.144  0.00  0.00    +0.000 HD
BRANCH  15  21
ATOM     17  C   UNL     1      47.785   4.920  15.657  0.00  0.00    +0.000 A 
ATOM     18  C   UNL     1      48.520   5.805  16.430  0.00  0.00    +0.000 A 
ATOM     19  N   UNL     1      48.924   7.018  15.989  0.00  0.00    +0.000 NA
ATOM     20  C   UNL     1      48.551   7.356  14.730  0.00  0.00    +0.000 A 
ATOM     21  C   UNL     1      47.770   6.569  13.874  0.00  0.00    +0.000 A 
ATOM     22  C   UNL     1      47.411   5.310  14.365  0.00  0.00    +0.000 A 
BRANCH  17  24
ATOM     23  N   UNL     1      47.990   2.498  15.687  0.00  0.00    +0.000 N 
ATOM     24  C   UNL     1      47.412   3.613  16.234  0.00  0.00    +0.000 C 
ATOM     25  O   UNL     1      46.644   3.525  17.182  0.00  0.00    +0.000 OA
ATOM     26  H   UNL     1      47.812   1.625  16.167  0.00  0.00    +0.000 HD
ATOM     27  H   UNL     1      48.814   2.549  15.106  0.00  0.00    +0.000 HD
ENDBRANCH  17  24
ENDBRANCH  15  21
ENDBRANCH   1  15
TORSDOF 5
ENDMDL
MODEL 7
REMARK VINA RESULT:    -7.313      3.558      5.823
REMARK INTER + INTRA:         -10.259
REMARK INTER:                  -9.681
REMARK INTRA:                  -0.577
REMARK UNBOUND:                -0.808
REMARK  Name = 
REMARK  5 active torsions:
REMARK  status: ('A' for Active; 'I' for Inactive)
REMARK    1  A    between atoms: C_2  and  C_4
REMARK    2  A    between atoms: C_8  and  N_9
REMARK    3  A    between atoms: N_9  and  C_10
REMARK    4  A    between atoms: C_10  and  C_11
REMARK    5  A    between atoms: C_16  and  C_17
REMARK                            x       y       z     vdW  Elec       q    Type
REMARK                         _______ _______ _______ _____ _____    ______ ____
ROOT
ATOM      1  C   UNL     1      44.642   5.400  11.083  0.00  0.00    +0.000 C 
ENDROOT
BRANCH   1   2
ATOM      2  C   UNL     1      44.944   6.794  11.570  0.00  0.00    +0.000 A 
ATOM      3  C   UNL     1      45.904   7.010  12.564  0.00  0.00    +0.000 A 
ATOM      4  C   UNL     1      46.172   8.304  12.992  0.00  0.00    +0.000 A 
ATOM      5  F   UNL     1      47.102   8.505  13.935  0.00  0.00    +0.000 F 
ATOM      6  C   UNL     1      45.499   9.397  12.454  0.00  0.00    +0.000 A 
ATOM      7  C   UNL     1      44.521   9.222  11.462  0.00  0.00    +0.000 A 
ATOM      8  C   UNL     1      44.252   7.900  11.045  0.00  0.00    +0.000 A 
BRANCH   7   9
ATOM      9  C   UNL     1      43.784  10.363  10.878  0.00  0.00    +0.000 A 
ATOM     10  C   UNL     1      43.653  10.558   9.502  0.00  0.00    +0.000 A 
ATOM     11  C   UNL     1      42.956  11.670   9.032  0.00  0.00    +0.000 A 
ATOM     12  C   UNL     1      42.402  12.559   9.940  0.00  0.00    +0.000 A 
ATOM     13  C   UNL     1      42.559  12.294  11.287  0.00  0.00    +0.000 A 
ATOM     14  N   UNL     1      43.228  11.222  11.771  0.00  0.00    +0.000 NA
ENDBRANCH   7   9
ENDBRANCH   1   2
BRANCH   1  15
ATOM     15  N   UNL     1      44.895   5.310   9.652  0.00  0.00    +0.000 N 
ATOM     16  H   UNL     1      45.456   6.083   9.297  0.00  0.00    +0.000 HD
BRANCH  15  21
ATOM     17  C   UNL     1      46.505   2.669   7.565  0.00  0.00    +0.000 A 
ATOM     18  C   UNL     1      45.879   1.565   8.122  0.00  0.00    +0.000 A 
ATOM     19  N   UNL     1      44.983   1.650   9.131  0.00  0.00    +0.000 NA
ATOM     20  C   UNL     1      44.691   2.898   9.575  0.00  0.00    +0.000 A 
ATOM     21  C   UNL     1      45.220   4.088   9.060  0.00  0.00    +0.000 A 
ATOM     22  C   UNL     1      46.170   3.942   8.044  0.00  0.00    +0.000 A 
BRANCH  17  24
ATOM     23  N   UNL     1      47.348   3.229   5.355  0.00  0.00    +0.000 N 
ATOM     24  C   UNL     1      47.483   2.458   6.479  0.00  0.00    +0.000 C 
ATOM     25  O   UNL     1      48.398   1.654   6.586  0.00  0.00    +0.000 OA
ATOM     26  H   UNL     1      48.091   3.152   4.672  0.00  0.00    +0.000 HD
ATOM     27  H   UNL     1      46.791   4.072   5.343  0.00  0.00    +0.000 HD
ENDBRANCH  17  24
ENDBRANCH  15  21
ENDBRANCH   1  15
TORSDOF 5
ENDMDL
MODEL 8
REMARK VINA RESULT:    -7.117      3.540      7.926
REMARK INTER + INTRA:         -10.005
REMARK INTER:                  -9.319
REMARK INTRA:                  -0.687
REMARK UNBOUND:                -0.808
REMARK  Name = 
REMARK  5 active torsions:
REMARK  status: ('A' for Active; 'I' for Inactive)
REMARK    1  A    between atoms: C_2  and  C_4
REMARK    2  A    between atoms: C_8  and  N_9
REMARK    3  A    between atoms: N_9  and  C_10
REMARK    4  A    between atoms: C_10  and  C_11
REMARK    5  A    between atoms: C_16  and  C_17
REMARK                            x       y       z     vdW  Elec       q    Type
REMARK                         _______ _______ _______ _____ _____    ______ ____
ROOT
ATOM      1  C   UNL     1      48.585   7.362  13.764  0.00  0.00    +0.000 C 
ENDROOT
BRANCH   1   2
ATOM      2  C   UNL     1      47.299   7.415  12.978  0.00  0.00    +0.000 A 
ATOM      3  C   UNL     1      46.466   8.537  13.047  0.00  0.00    +0.000 A 
ATOM      4  C   UNL     1      45.290   8.567  12.309  0.00  0.00    +0.000 A 
ATOM      5  F   UNL     1      44.504   9.650  12.370  0.00  0.00    +0.000 F 
ATOM      6  C   UNL     1      44.917   7.497  11.500  0.00  0.00    +0.000 A 
ATOM      7  C   UNL     1      45.720   6.349  11.411  0.00  0.00    +0.000 A 
ATOM      8  C   UNL     1      46.907   6.329  12.176  0.00  0.00    +0.000 A 
BRANCH   7   9
ATOM      9  C   UNL     1      45.345   5.194  10.568  0.00  0.00    +0.000 A 
ATOM     10  C   UNL     1      45.643   5.120   9.206  0.00  0.00    +0.000 A 
ATOM     11  C   UNL     1      45.239   4.003   8.476  0.00  0.00    +0.000 A 
ATOM     12  C   UNL     1      44.552   2.984   9.119  0.00  0.00    +0.000 A 
ATOM     13  C   UNL     1      44.305   3.119  10.471  0.00  0.00    +0.000 A 
ATOM     14  N   UNL     1      44.687   4.191  11.204  0.00  0.00    +0.000 NA
ENDBRANCH   7   9
ENDBRANCH   1   2
BRANCH   1  15
ATOM     15  N   UNL     1      48.295   7.381  15.189  0.00  0.00    +0.000 N 
ATOM     16  H   UNL     1      47.327   7.624  15.397  0.00  0.00    +0.000 HD
BRANCH  15  21
ATOM     17  C   UNL     1      48.606   4.374  17.378  0.00  0.00    +0.000 A 
ATOM     18  C   UNL     1      49.982   4.383  17.535  0.00  0.00    +0.000 A 
ATOM     19  N   UNL     1      50.790   5.305  16.963  0.00  0.00    +0.000 NA
ATOM     20  C   UNL     1      50.179   6.265  16.225  0.00  0.00    +0.000 A 
ATOM     21  C   UNL     1      48.797   6.388  16.033  0.00  0.00    +0.000 A 
ATOM     22  C   UNL     1      48.012   5.388  16.616  0.00  0.00    +0.000 A 
BRANCH  17  24
ATOM     23  N   UNL     1      48.217   2.919  19.286  0.00  0.00    +0.000 N 
ATOM     24  C   UNL     1      47.822   3.308  18.034  0.00  0.00    +0.000 C 
ATOM     25  O   UNL     1      46.840   2.813  17.500  0.00  0.00    +0.000 OA
ATOM     26  H   UNL     1      47.603   2.272  19.764  0.00  0.00    +0.000 HD
ATOM     27  H   UNL     1      48.834   3.480  19.855  0.00  0.00    +0.000 HD
ENDBRANCH  17  24
ENDBRANCH  15  21
ENDBRANCH   1  15
TORSDOF 5
ENDMDL
MODEL 9
REMARK VINA RESULT:    -6.974      4.345      7.858
REMARK INTER + INTRA:          -9.820
REMARK INTER:                  -9.011
REMARK INTRA:                  -0.809
REMARK UNBOUND:                -0.808
REMARK  Name = 
REMARK  5 active torsions:
REMARK  status: ('A' for Active; 'I' for Inactive)
REMARK    1  A    between atoms: C_2  and  C_4
REMARK    2  A    between atoms: C_8  and  N_9
REMARK    3  A    between atoms: N_9  and  C_10
REMARK    4  A    between atoms: C_10  and  C_11
REMARK    5  A    between atoms: C_16  and  C_17
REMARK                            x       y       z     vdW  Elec       q    Type
REMARK                         _______ _______ _______ _____ _____    ______ ____
ROOT
ATOM      1  C   UNL     1      46.307   6.936  12.904  0.00  0.00    +0.000 C 
ENDROOT
BRANCH   1   2
ATOM      2  C   UNL     1      45.356   6.136  12.050  0.00  0.00    +0.000 A 
ATOM      3  C   UNL     1      43.979   6.171  12.290  0.00  0.00    +0.000 A 
ATOM      4  C   UNL     1      43.121   5.432  11.485  0.00  0.00    +0.000 A 
ATOM      5  F   UNL     1      41.802   5.480  11.714  0.00  0.00    +0.000 F 
ATOM      6  C   UNL     1      43.604   4.649  10.441  0.00  0.00    +0.000 A 
ATOM      7  C   UNL     1      44.981   4.580  10.173  0.00  0.00    +0.000 A 
ATOM      8  C   UNL     1      45.841   5.328  11.006  0.00  0.00    +0.000 A 
BRANCH   7   9
ATOM      9  C   UNL     1      45.525   3.750   9.077  0.00  0.00    +0.000 A 
ATOM     10  C   UNL     1      45.488   2.355   9.090  0.00  0.00    +0.000 A 
ATOM     11  C   UNL     1      46.038   1.646   8.023  0.00  0.00    +0.000 A 
ATOM     12  C   UNL     1      46.608   2.340   6.967  0.00  0.00    +0.000 A 
ATOM     13  C   UNL     1      46.596   3.721   7.016  0.00  0.00    +0.000 A 
ATOM     14  N   UNL     1      46.068   4.435   8.037  0.00  0.00    +0.000 NA
ENDBRANCH   7   9
ENDBRANCH   1   2
BRANCH   1  15
ATOM     15  N   UNL     1      45.686   8.195  13.288  0.00  0.00    +0.000 N 
ATOM     16  H   UNL     1      45.799   8.411  14.277  0.00  0.00    +0.000 HD
BRANCH  15  21
ATOM     17  C   UNL     1      44.906  11.260  11.307  0.00  0.00    +0.000 A 
ATOM     18  C   UNL     1      46.204  11.640  11.007  0.00  0.00    +0.000 A 
ATOM     19  N   UNL     1      47.293  10.956  11.423  0.00  0.00    +0.000 NA
ATOM     20  C   UNL     1      47.059   9.833  12.148  0.00  0.00    +0.000 A 
ATOM     21  C   UNL     1      45.795   9.323  12.472  0.00  0.00    +0.000 A 
ATOM     22  C   UNL     1      44.705  10.089  12.049  0.00  0.00    +0.000 A 
BRANCH  17  24
ATOM     23  N   UNL     1      42.928  12.601  11.751  0.00  0.00    +0.000 N 
ATOM     24  C   UNL     1      43.790  12.093  10.816  0.00  0.00    +0.000 C 
ATOM     25  O   UNL     1      43.655  12.349   9.628  0.00  0.00    +0.000 OA
ATOM     26  H   UNL     1      42.240  13.260  11.409  0.00  0.00    +0.000 HD
ATOM     27  H   UNL     1      43.160  12.640  12.733  0.00  0.00    +0.000 HD
ENDBRANCH  17  24
ENDBRANCH  15  21
ENDBRANCH   1  15
TORSDOF 5
ENDMDL
