MODEL 1
REMARK VINA RESULT:    -7.721      0.000      0.000
REMARK INTER + INTRA:         -10.080
REMARK INTER:                  -9.526
REMARK INTRA:                  -0.554
REMARK UNBOUND:                -0.554
REMARK  Name = 
REMARK  4 active torsions:
REMARK  status: ('A' for Active; 'I' for Inactive)
REMARK    1  A    between atoms: C_2  and  C_4
REMARK    2  A    between atoms: C_8  and  N_9
REMARK    3  A    between atoms: N_9  and  C_10
REMARK    4  A    between atoms: C_10  and  C_11
REMARK                            x       y       z     vdW  Elec       q    Type
REMARK                         _______ _______ _______ _____ _____    ______ ____
ROOT
ATOM      1  C   UNL     1      46.160   4.543  13.389  0.00  0.00    +0.000 A 
ATOM      2  C   UNL     1      45.768   5.845  13.076  0.00  0.00    +0.000 A 
ATOM      3  C   UNL     1      44.955   6.070  11.965  0.00  0.00    +0.000 A 
ATOM      4  C   UNL     1      44.554   4.994  11.168  0.00  0.00    +0.000 A 
ATOM      5  C   UNL     1      44.990   3.688  11.436  0.00  0.00    +0.000 A 
ATOM      6  C   UNL     1      45.767   3.472  12.576  0.00  0.00    +0.000 A 
ENDROOT
BRANCH   1   8
ATOM      7  N   UNL     1      47.521   3.098  14.749  0.00  0.00    +0.000 NA
ATOM      8  C   UNL     1      47.008   4.274  14.585  0.00  0.00    +0.000 C 
ATOM      9  N   UNL     1      47.221   5.253  15.512  0.00  0.00    +0.000 N 
ATOM     10  H   UNL     1      48.105   3.089  15.587  0.00  0.00    +0.000 HD
ATOM     11  H   UNL     1      47.499   4.928  16.429  0.00  0.00    +0.000 HD
ATOM     12  H   UNL     1      46.493   5.958  15.573  0.00  0.00    +0.000 HD
ENDBRANCH   1   8
BRANCH   5  13
ATOM     13  N   UNL     1      44.553   2.666  10.583  0.00  0.00    +0.000 N 
ATOM     14  H   UNL     1      45.169   1.858  10.651  0.00  0.00    +0.000 HD
BRANCH  13  15
ATOM     15  C   UNL     1      44.308   3.020   9.186  0.00  0.00    +0.000 C 
BRANCH  15  16
ATOM     16  C   UNL     1      45.475   2.578   8.334  0.00  0.00    +0.000 A 
ATOM     17  C   UNL     1      46.196   3.522   7.585  0.00  0.00    +0.000 A 
ATOM     18  C   UNL     1      47.319   3.143   6.852  0.00  0.00    +0.000 A 
ATOM     19  C   UNL     1      47.738   1.815   6.859  0.00  0.00    +0.000 A 
ATOM     20  C   UNL     1      47.029   0.865   7.595  0.00  0.00    +0.000 A 
ATOM     21  C   UNL     1      45.903   1.243   8.329  0.00  0.00    +0.000 A 
ENDBRANCH  15  16
ENDBRANCH  13  15
ENDBRANCH   5  13
TORSDOF 4
ENDMDL
MODEL 2
REMARK VINA RESULT:    -7.473      1.804      3.000
REMARK INTER + INTRA:          -9.774
REMARK INTER:                  -9.224
REMARK INTRA:                  -0.550
REMARK UNBOUND:                -0.554
REMARK  Name = 
REMARK  4 active torsions:
REMARK  status: ('A' for Active; 'I' for Inactive)
REMARK    1  A    between atoms: C_2  and  C_4
REMARK    2  A    between atoms: C_8  and  N_9
REMARK    3  A    between atoms: N_9  and  C_10
REMARK    4  A    between atoms: C_10  and  C_11
REMARK                            x       y       z     vdW  Elec       q    Type
REMARK                         _______ _______ _______ _____ _____    ______ ____
ROOT
ATOM      1  C   UNL     1      44.929   5.914  11.972  0.00  0.00    +0.000 A 
ATOM      2  C   UNL     1      45.650   5.691  13.146  0.00  0.00    +0.000 A 
ATOM      3  C   UNL     1      46.097   4.405  13.444  0.00  0.00    +0.000 A 
ATOM      4  C   UNL     1      45.806   3.349  12.576  0.00  0.00    +0.000 A 
ATOM      5  C   UNL     1      45.031   3.547  11.424  0.00  0.00    +0.000 A 
ATOM      6  C   UNL     1      44.628   4.847  11.115  0.00  0.00    +0.000 A 
ENDROOT
BRANCH   1   8
ATOM      7  N   UNL     1      45.223   8.300  11.870  0.00  0.00    +0.000 NA
ATOM      8  C   UNL     1      44.463   7.285  11.617  0.00  0.00    +0.000 C 
ATOM      9  N   UNL     1      43.235   7.468  11.051  0.00  0.00    +0.000 N 
ATOM     10  H   UNL     1      44.781   9.156  11.530  0.00  0.00    +0.000 HD
ATOM     11  H   UNL     1      42.847   8.398  11.148  0.00  0.00    +0.000 HD
ATOM     12  H   UNL     1      42.546   6.755  11.270  0.00  0.00    +0.000 HD
ENDBRANCH   1   8
BRANCH   5  13
ATOM     13  N   UNL     1      44.774   2.435  10.611  0.00  0.00    +0.000 N 
ATOM     14  H   UNL     1      45.563   1.792  10.626  0.00  0.00    +0.000 HD
BRANCH  13  15
ATOM     15  C   UNL     1      44.338   2.695   9.240  0.00  0.00    +0.000 C 
BRANCH  15  16
ATOM     16  C   UNL     1      45.510   2.559   8.297  0.00  0.00    +0.000 A 
ATOM     17  C   UNL     1      46.194   1.337   8.197  0.00  0.00    +0.000 A 
ATOM     18  C   UNL     1      47.231   1.173   7.280  0.00  0.00    +0.000 A 
ATOM     19  C   UNL     1      47.598   2.228   6.450  0.00  0.00    +0.000 A 
ATOM     20  C   UNL     1      46.931   3.450   6.541  0.00  0.00    +0.000 A 
ATOM     21  C   UNL     1      45.892   3.617   7.460  0.00  0.00    +0.000 A 
ENDBRANCH  15  16
ENDBRANCH  13  15
ENDBRANCH   5  13
TORSDOF 4
ENDMDL
MODEL 3
REMARK VINA RESULT:    -7.385      2.651      6.221
REMARK INTER + INTRA:          -9.666
REMARK INTER:                  -9.087
REMARK INTRA:                  -0.579
REMARK UNBOUND:                -0.554
REMARK  Name = 
REMARK  4 active torsions:
REMARK  status: ('A' for Active; 'I' for Inactive)
REMARK    1  A    between atoms: C_2  and  C_4
REMARK    2  A    between atoms: C_8  and  N_9
REMARK    3  A    between atoms: N_9  and  C_10
REMARK    4  A    between atoms: C_10  and  C_11
REMARK                            x       y       z     vdW  Elec       q    Type
REMARK                         _______ _______ _______ _____ _____    ______ ____
ROOT
ATOM      1  C   UNL     1      46.509   2.572   7.284  0.00  0.00    +0.000 A 
ATOM      2  C   UNL     1      46.281   1.339   7.896  0.00  0.00    +0.000 A 
ATOM      3  C   UNL     1      45.288   1.228   8.868  0.00  0.00    +0.000 A 
ATOM      4  C   UNL     1      44.542   2.352   9.232  0.00  0.00    +0.000 A 
ATOM      5  C   UNL     1      44.800   3.610   8.668  0.00  0.00    +0.000 A 
ATOM      6  C   UNL     1      45.767   3.698   7.665  0.00  0.00    +0.000 A 
ENDROOT
BRANCH   1   8
ATOM      7  N   UNL     1      47.203   3.123   5.046  0.00  0.00    +0.000 NA
ATOM      8  C   UNL     1      47.547   2.712   6.223  0.00  0.00    +0.000 C 
ATOM      9  N   UNL     1      48.846   2.386   6.485  0.00  0.00    +0.000 N 
ATOM     10  H   UNL     1      48.029   3.205   4.453  0.00  0.00    +0.000 HD
ATOM     11  H   UNL     1      49.413   2.177   5.673  0.00  0.00    +0.000 HD
ATOM     12  H   UNL     1      48.980   1.696   7.218  0.00  0.00    +0.000 HD
ENDBRANCH   1   8
BRANCH   5  13
ATOM     13  N   UNL     1      44.016   4.690   9.095  0.00  0.00    +0.000 N 
ATOM     14  H   UNL     1      44.437   5.572   8.807  0.00  0.00    +0.000 HD
BRANCH  13  15
ATOM     15  C   UNL     1      43.639   4.727  10.507  0.00  0.00    +0.000 C 
BRANCH  15  16
ATOM     16  C   UNL     1      44.812   5.196  11.336  0.00  0.00    +0.000 A 
ATOM     17  C   UNL     1      45.119   4.554  12.546  0.00  0.00    +0.000 A 
ATOM     18  C   UNL     1      46.239   4.926  13.287  0.00  0.00    +0.000 A 
ATOM     19  C   UNL     1      47.069   5.945  12.827  0.00  0.00    +0.000 A 
ATOM     20  C   UNL     1      46.775   6.595  11.628  0.00  0.00    +0.000 A 
ATOM     21  C   UNL     1      45.652   6.224  10.885  0.00  0.00    +0.000 A 
ENDBRANCH  15  16
ENDBRANCH  13  15
ENDBRANCH   5  13
TORSDOF 4
ENDMDL
MODEL 4
REMARK VINA RESULT:    -7.280      1.583      1.952
REMARK INTER + INTRA:          -9.537
REMARK INTER:                  -9.018
REMARK INTRA:                  -0.519
REMARK UNBOUND:                -0.554
REMARK  Name = 
REMARK  4 active torsions:
REMARK  status: ('A' for Active; 'I' for Inactive)
REMARK    1  A    between atoms: C_2  and  C_4
REMARK    2  A    between atoms: C_8  and  N_9
REMARK    3  A    between atoms: N_9  and  C_10
REMARK    4  A    between atoms: C_10  and  C_11
REMARK                            x       y       z     vdW  Elec       q    Type
REMARK                         _______ _______ _______ _____ _____    ______ ____
ROOT
ATOM      1  C   UNL     1      45.416   5.604  12.214  0.00  0.00    +0.000 A 
ATOM      2  C   UNL     1      44.396   5.444  13.153  0.00  0.00    +0.000 A 
ATOM      3  C   UNL     1      43.277   4.678  12.829  0.00  0.00    +0.000 A 
ATOM      4  C   UNL     1      43.178   4.093  11.564  0.00  0.00    +0.000 A 
ATOM      5  C   UNL     1      44.167   4.294  10.589  0.00  0.00    +0.000 A 
ATOM      6  C   UNL     1      45.302   5.027  10.943  0.00  0.00    +0.000 A 
ENDROOT
BRANCH   1   8
ATOM      7  N   UNL     1      47.262   7.022  11.603  0.00  0.00    +0.000 NA
ATOM      8  C   UNL     1      46.634   6.396  12.545  0.00  0.00    +0.000 C 
ATOM      9  N   UNL     1      47.097   6.442  13.828  0.00  0.00    +0.000 N 
ATOM     10  H   UNL     1      48.043   7.548  11.998  0.00  0.00    +0.000 HD
ATOM     11  H   UNL     1      48.073   6.693  13.928  0.00  0.00    +0.000 HD
ATOM     12  H   UNL     1      46.861   5.639  14.402  0.00  0.00    +0.000 HD
ENDBRANCH   1   8
BRANCH   5  13
ATOM     13  N   UNL     1      43.988   3.682   9.342  0.00  0.00    +0.000 N 
ATOM     14  H   UNL     1      43.013   3.738   9.054  0.00  0.00    +0.000 HD
BRANCH  13  15
ATOM     15  C   UNL     1      44.504   2.323   9.183  0.00  0.00    +0.000 C 
BRANCH  15  16
ATOM     16  C   UNL     1      45.608   2.313   8.152  0.00  0.00    +0.000 A 
ATOM     17  C   UNL     1      45.836   3.446   7.355  0.00  0.00    +0.000 A 
ATOM     18  C   UNL     1      46.895   3.479   6.450  0.00  0.00    +0.000 A 
ATOM     19  C   UNL     1      47.742   2.380   6.330  0.00  0.00    +0.000 A 
ATOM     20  C   UNL     1      47.525   1.246   7.112  0.00  0.00    +0.000 A 
ATOM     21  C   UNL     1      46.463   1.210   8.019  0.00  0.00    +0.000 A 
ENDBRANCH  15  16
ENDBRANCH  13  15
ENDBRANCH   5  13
TORSDOF 4
ENDMDL
MODEL 5
REMARK VINA RESULT:    -7.051      2.111      2.566
REMARK INTER + INTRA:          -9.254
REMARK INTER:                  -8.810
REMARK INTRA:                  -0.444
REMARK UNBOUND:                -0.554
REMARK  Name = 
REMARK  4 active torsions:
REMARK  status: ('A' for Active; 'I' for Inactive)
REMARK    1  A    between atoms: C_2  and  C_4
REMARK    2  A    between atoms: C_8  and  N_9
REMARK    3  A    between atoms: N_9  and  C_10
REMARK    4  A    between atoms: C_10  and  C_11
REMARK                            x       y       z     vdW  Elec       q    Type
REMARK                         _______ _______ _______ _____ _____    ______ ____
ROOT
ATOM      1  C   UNL     1      44.547   5.227  12.322  0.00  0.00    +0.000 A 
ATOM      2  C   UNL     1      45.393   6.161  12.920  0.00  0.00    +0.000 A 
ATOM      3  C   UNL     1      46.361   6.805  12.150  0.00  0.00    +0.000 A 
ATOM      4  C   UNL     1      46.486   6.499  10.792  0.00  0.00    +0.000 A 
ATOM      5  C   UNL     1      45.683   5.519  10.191  0.00  0.00    +0.000 A 
ATOM      6  C   UNL     1      44.689   4.914  10.964  0.00  0.00    +0.000 A 
ENDROOT
BRANCH   1   8
ATOM      7  N   UNL     1      42.549   5.247  13.663  0.00  0.00    +0.000 NA
ATOM      8  C   UNL     1      43.488   4.544  13.117  0.00  0.00    +0.000 C 
ATOM      9  N   UNL     1      43.520   3.190  13.287  0.00  0.00    +0.000 N 
ATOM     10  H   UNL     1      41.884   4.631  14.133  0.00  0.00    +0.000 HD
ATOM     11  H   UNL     1      43.002   2.840  14.083  0.00  0.00    +0.000 HD
ATOM     12  H   UNL     1      44.442   2.768  13.230  0.00  0.00    +0.000 HD
ENDBRANCH   1   8
BRANCH   5  13
ATOM     13  N   UNL     1      45.877   5.261   8.828  0.00  0.00    +0.000 N 
ATOM     14  H   UNL     1      45.887   6.131   8.298  0.00  0.00    +0.000 HD
BRANCH  13  15
ATOM     15  C   UNL     1      44.996   4.278   8.200  0.00  0.00    +0.000 C 
BRANCH  15  16
ATOM     16  C   UNL     1      45.814   3.124   7.668  0.00  0.00    +0.000 A 
ATOM     17  C   UNL     1      46.619   3.299   6.531  0.00  0.00    +0.000 A 
ATOM     18  C   UNL     1      47.436   2.266   6.071  0.00  0.00    +0.000 A 
ATOM     19  C   UNL     1      47.459   1.047   6.742  0.00  0.00    +0.000 A 
ATOM     20  C   UNL     1      46.661   0.858   7.871  0.00  0.00    +0.000 A 
ATOM     21  C   UNL     1      45.842   1.890   8.333  0.00  0.00    +0.000 A 
ENDBRANCH  15  16
ENDBRANCH  13  15
ENDBRANCH   5  13
TORSDOF 4
ENDMDL
MODEL 6
REMARK VINA RESULT:    -6.721      1.557      1.782
REMARK INTER + INTRA:          -8.847
REMARK INTER:                  -8.424
REMARK INTRA:                  -0.423
REMARK UNBOUND:                -0.554
REMARK  Name = 
REMARK  4 active torsions:
REMARK  status: ('A' for Active; 'I' for Inactive)
REMARK    1  A    between atoms: C_2  and  C_4
REMARK    2  A    between atoms: C_8  and  N_9
REMARK    3  A    between atoms: N_9  and  C_10
REMARK    4  A    between atoms: C_10  and  C_11
REMARK                            x       y       z     vdW  Elec       q    Type
REMARK                         _______ _______ _______ _____ _____    ______ ____
ROOT
ATOM      1  C   UNL     1      46.815   6.543  12.800  0.00  0.00    +0.000 A 
ATOM      2  C   UNL     1      46.052   7.702  12.652  0.00  0.00    +0.000 A 
ATOM      3  C   UNL     1      44.889   7.666  11.885  0.00  0.00    +0.000 A 
ATOM      4  C   UNL     1      44.505   6.477  11.259  0.00  0.00    +0.000 A 
ATOM      5  C   UNL     1      45.293   5.320  11.350  0.00  0.00    +0.000 A 
ATOM      6  C   UNL     1      46.432   5.358  12.157  0.00  0.00    +0.000 A 
ENDROOT
BRANCH   1   8
ATOM      7  N   UNL     1      49.205   6.443  13.066  0.00  0.00    +0.000 NA
ATOM      8  C   UNL     1      48.049   6.548  13.637  0.00  0.00    +0.000 C 
ATOM      9  N   UNL     1      47.958   6.640  14.995  0.00  0.00    +0.000 N 
ATOM     10  H   UNL     1      49.944   6.506  13.768  0.00  0.00    +0.000 HD
ATOM     11  H   UNL     1      48.764   6.304  15.507  0.00  0.00    +0.000 HD
ATOM     12  H   UNL     1      47.093   6.292  15.396  0.00  0.00    +0.000 HD
ENDBRANCH   1   8
BRANCH   5  13
ATOM     13  N   UNL     1      44.846   4.171  10.684  0.00  0.00    +0.000 N 
ATOM     14  H   UNL     1      45.474   3.389  10.862  0.00  0.00    +0.000 HD
BRANCH  13  15
ATOM     15  C   UNL     1      44.557   4.295   9.256  0.00  0.00    +0.000 C 
BRANCH  15  16
ATOM     16  C   UNL     1      45.425   3.337   8.474  0.00  0.00    +0.000 A 
ATOM     17  C   UNL     1      46.285   3.822   7.477  0.00  0.00    +0.000 A 
ATOM     18  C   UNL     1      47.145   2.961   6.796  0.00  0.00    +0.000 A 
ATOM     19  C   UNL     1      47.157   1.603   7.105  0.00  0.00    +0.000 A 
ATOM     20  C   UNL     1      46.304   1.106   8.091  0.00  0.00    +0.000 A 
ATOM     21  C   UNL     1      45.441   1.967   8.773  0.00  0.00    +0.000 A 
ENDBRANCH  15  16
ENDBRANCH  13  15
ENDBRANCH   5  13
TORSDOF 4
ENDMDL
MODEL 7
REMARK VINA RESULT:    -5.812      2.249      3.764
REMARK INTER + INTRA:          -7.725
REMARK INTER:                  -7.339
REMARK INTRA:                  -0.386
REMARK UNBOUND:                -0.554
REMARK  Name = 
REMARK  4 active torsions:
REMARK  status: ('A' for Active; 'I' for Inactive)
REMARK    1  A    between atoms: C_2  and  C_4
REMARK    2  A    between atoms: C_8  and  N_9
REMARK    3  A    between atoms: N_9  and  C_10
REMARK    4  A    between atoms: C_10  and  C_11
REMARK                            x       y       z     vdW  Elec       q    Type
REMARK                         _______ _______ _______ _____ _____    ______ ____
ROOT
ATOM      1  C   UNL     1      47.830   4.567  15.884  0.00  0.00    +0.000 A 
ATOM      2  C   UNL     1      48.633   5.623  16.316  0.00  0.00    +0.000 A 
ATOM      3  C   UNL     1      48.752   6.764  15.524  0.00  0.00    +0.000 A 
ATOM      4  C   UNL     1      48.081   6.835  14.300  0.00  0.00    +0.000 A 
ATOM      5  C   UNL     1      47.319   5.757  13.826  0.00  0.00    +0.000 A 
ATOM      6  C   UNL     1      47.173   4.639  14.649  0.00  0.00    +0.000 A 
ENDROOT
BRANCH   1   8
ATOM      7  N   UNL     1      46.586   3.196  17.423  0.00  0.00    +0.000 NA
ATOM      8  C   UNL     1      47.665   3.347  16.725  0.00  0.00    +0.000 C 
ATOM      9  N   UNL     1      48.653   2.407  16.775  0.00  0.00    +0.000 N 
ATOM     10  H   UNL     1      46.609   2.297  17.905  0.00  0.00    +0.000 HD
ATOM     11  H   UNL     1      48.638   1.805  17.588  0.00  0.00    +0.000 HD
ATOM     12  H   UNL     1      49.589   2.753  16.587  0.00  0.00    +0.000 HD
ENDBRANCH   1   8
BRANCH   5  13
ATOM     13  N   UNL     1      46.687   5.901  12.584  0.00  0.00    +0.000 N 
ATOM     14  H   UNL     1      46.770   6.860  12.251  0.00  0.00    +0.000 HD
BRANCH  13  15
ATOM     15  C   UNL     1      45.307   5.429  12.477  0.00  0.00    +0.000 C 
BRANCH  15  16
ATOM     16  C   UNL     1      45.119   4.695  11.169  0.00  0.00    +0.000 A 
ATOM     17  C   UNL     1      45.581   5.264   9.972  0.00  0.00    +0.000 A 
ATOM     18  C   UNL     1      45.481   4.569   8.767  0.00  0.00    +0.000 A 
ATOM     19  C   UNL     1      44.918   3.296   8.744  0.00  0.00    +0.000 A 
ATOM     20  C   UNL     1      44.450   2.720   9.926  0.00  0.00    +0.000 A 
ATOM     21  C   UNL     1      44.549   3.415  11.133  0.00  0.00    +0.000 A 
ENDBRANCH  15  16
ENDBRANCH  13  15
ENDBRANCH   5  13
TORSDOF 4
ENDMDL
MODEL 8
REMARK VINA RESULT:    -5.796      3.064      6.943
REMARK INTER + INTRA:          -7.706
REMARK INTER:                  -7.315
REMARK INTRA:                  -0.391
REMARK UNBOUND:                -0.554
REMARK  Name = 
REMARK  4 active torsions:
REMARK  status: ('A' for Active; 'I' for Inactive)
REMARK    1  A    between atoms: C_2  and  C_4
REMARK    2  A    between atoms: C_8  and  N_9
REMARK    3  A    between atoms: N_9  and  C_10
REMARK    4  A    between atoms: C_10  and  C_11
REMARK                            x       y       z     vdW  Elec       q    Type
REMARK                         _______ _______ _______ _____ _____    ______ ____
ROOT
ATOM      1  C   UNL     1      45.412   4.327  12.213  0.00  0.00    +0.000 A 
ATOM      2  C   UNL     1      45.451   5.501  11.459  0.00  0.00    +0.000 A 
ATOM      3  C   UNL     1      46.157   6.603  11.940  0.00  0.00    +0.000 A 
ATOM      4  C   UNL     1      46.804   6.529  13.176  0.00  0.00    +0.000 A 
ATOM      5  C   UNL     1      46.724   5.376  13.972  0.00  0.00    +0.000 A 
ATOM      6  C   UNL     1      46.051   4.266  13.458  0.00  0.00    +0.000 A 
ENDROOT
BRANCH   1   8
ATOM      7  N   UNL     1      44.928   2.691  10.515  0.00  0.00    +0.000 NA
ATOM      8  C   UNL     1      44.687   3.126  11.709  0.00  0.00    +0.000 C 
ATOM      9  N   UNL     1      43.758   2.505  12.493  0.00  0.00    +0.000 N 
ATOM     10  H   UNL     1      44.386   1.844  10.340  0.00  0.00    +0.000 HD
ATOM     11  H   UNL     1      43.082   1.938  11.998  0.00  0.00    +0.000 HD
ATOM     12  H   UNL     1      43.310   3.096  13.186  0.00  0.00    +0.000 HD
ENDBRANCH   1   8
BRANCH   5  13
ATOM     13  N   UNL     1      47.391   5.385  15.204  0.00  0.00    +0.000 N 
ATOM     14  H   UNL     1      48.382   5.579  15.071  0.00  0.00    +0.000 HD
BRANCH  13  15
ATOM     15  C   UNL     1      47.197   4.230  16.078  0.00  0.00    +0.000 C 
BRANCH  15  16
ATOM     16  C   UNL     1      48.531   3.763  16.611  0.00  0.00    +0.000 A 
ATOM     17  C   UNL     1      49.398   4.675  17.232  0.00  0.00    +0.000 A 
ATOM     18  C   UNL     1      50.601   4.248  17.793  0.00  0.00    +0.000 A 
ATOM     19  C   UNL     1      50.952   2.901  17.741  0.00  0.00    +0.000 A 
ATOM     20  C   UNL     1      50.102   1.984  17.123  0.00  0.00    +0.000 A 
ATOM     21  C   UNL     1      48.897   2.410  16.559  0.00  0.00    +0.000 A 
ENDBRANCH  15  16
ENDBRANCH  13  15
ENDBRANCH   5  13
TORSDOF 4
ENDMDL
MODEL 9
REMARK VINA RESULT:    -5.552      3.423      5.928
REMARK INTER + INTRA:          -7.405
REMARK INTER:                  -7.063
REMARK INTRA:                  -0.342
REMARK UNBOUND:                -0.554
REMARK  Name = 
REMARK  4 active torsions:
REMARK  status: ('A' for Active; 'I' for Inactive)
REMARK    1  A    between atoms: C_2  and  C_4
REMARK    2  A    between atoms: C_8  and  N_9
REMARK    3  A    between atoms: N_9  and  C_10
REMARK    4  A    between atoms: C_10  and  C_11
REMARK                            x       y       z     vdW  Elec       q    Type
REMARK                         _______ _______ _______ _____ _____    ______ ____
ROOT
ATOM      1  C   UNL     1      48.394   4.047  18.365  0.00  0.00    +0.000 A 
ATOM      2  C   UNL     1      49.102   2.900  18.003  0.00  0.00    +0.000 A 
ATOM      3  C   UNL     1      48.930   2.360  16.730  0.00  0.00    +0.000 A 
ATOM      4  C   UNL     1      48.041   2.959  15.834  0.00  0.00    +0.000 A 
ATOM      5  C   UNL     1      47.278   4.076  16.204  0.00  0.00    +0.000 A 
ATOM      6  C   UNL     1      47.492   4.633  17.467  0.00  0.00    +0.000 A 
ENDROOT
BRANCH   1   8
ATOM      7  N   UNL     1      48.501   3.915  20.766  0.00  0.00    +0.000 NA
ATOM      8  C   UNL     1      48.579   4.660  19.711  0.00  0.00    +0.000 C 
ATOM      9  N   UNL     1      48.806   6.000  19.831  0.00  0.00    +0.000 N 
ATOM     10  H   UNL     1      48.692   4.473  21.599  0.00  0.00    +0.000 HD
ATOM     11  H   UNL     1      48.586   6.398  20.736  0.00  0.00    +0.000 HD
ATOM     12  H   UNL     1      48.438   6.571  19.076  0.00  0.00    +0.000 HD
ENDBRANCH   1   8
BRANCH   5  13
ATOM     13  N   UNL     1      46.400   4.611  15.253  0.00  0.00    +0.000 N 
ATOM     14  H   UNL     1      45.444   4.318  15.444  0.00  0.00    +0.000 HD
BRANCH  13  15
ATOM     15  C   UNL     1      46.736   4.409  13.844  0.00  0.00    +0.000 C 
BRANCH  15  16
ATOM     16  C   UNL     1      45.474   4.400  13.014  0.00  0.00    +0.000 A 
ATOM     17  C   UNL     1      45.170   3.291  12.209  0.00  0.00    +0.000 A 
ATOM     18  C   UNL     1      43.975   3.236  11.493  0.00  0.00    +0.000 A 
ATOM     19  C   UNL     1      43.067   4.288  11.575  0.00  0.00    +0.000 A 
ATOM     20  C   UNL     1      43.357   5.398  12.368  0.00  0.00    +0.000 A 
ATOM     21  C   UNL     1      44.554   5.456  13.085  0.00  0.00    +0.000 A 
ENDBRANCH  15  16
ENDBRANCH  13  15
ENDBRANCH   5  13
TORSDOF 4
ENDMDL
