MODEL 1
REMARK VINA RESULT:    -7.563      0.000      0.000
REMARK INTER + INTRA:         -10.115
REMARK INTER:                  -9.773
REMARK INTRA:                  -0.341
REMARK UNBOUND:                -0.341
REMARK  Name = 
REMARK  9 active torsions:
REMARK  status: ('A' for Active; 'I' for Inactive)
REMARK    1  A    between atoms: C_1  and  C_2
REMARK    2  A    between atoms: C_5  and  C_6
REMARK    3  A    between atoms: C_6  and  O_7
REMARK    4  A    between atoms: O_7  and  C_8
REMARK    5  A    between atoms: C_11  and  C_12
REMARK    6  A    between atoms: C_12  and  C_14
REMARK    7  A    between atoms: C_14  and  C_15
REMARK    8  A    between atoms: C_14  and  C_16
REMARK    9  A    between atoms: C_14  and  C_17
REMARK                            x       y       z     vdW  Elec       q    Type
REMARK                         _______ _______ _______ _____ _____    ______ ____
ROOT
ATOM      1  C   UNL     1      44.870   3.907  12.341  0.00  0.00    +0.000 A 
ATOM      2  C   UNL     1      44.811   5.272  12.566  0.00  0.00    +0.000 A 
ATOM      3  N   UNL     1      45.750   5.936  13.281  0.00  0.00    +0.000 NA
ATOM      4  C   UNL     1      46.738   5.172  13.803  0.00  0.00    +0.000 A 
ATOM      5  C   UNL     1      46.777   3.797  13.606  0.00  0.00    +0.000 A 
ATOM      6  N   UNL     1      45.847   3.131  12.864  0.00  0.00    +0.000 NA
ENDROOT
BRANCH   4   7
ATOM      7  C   UNL     1      47.816   5.841  14.586  0.00  0.00    +0.000 C 
ATOM      8  O   UNL     1      48.134   5.337  15.664  0.00  0.00    +0.000 OA
BRANCH   7   9
ATOM      9  C   UNL     1      48.541   7.084  14.010  0.00  0.00    +0.000 C 
ATOM     10  C   UNL     1      47.686   8.357  14.102  0.00  0.00    +0.000 C 
ATOM     11  C   UNL     1      49.828   7.334  14.828  0.00  0.00    +0.000 C 
ATOM     12  C   UNL     1      48.961   6.812  12.557  0.00  0.00    +0.000 C 
ENDBRANCH   7   9
ENDBRANCH   4   7
BRANCH   1  13
ATOM     13  O   UNL     1      43.880   3.350  11.568  0.00  0.00    +0.000 OA
BRANCH  13  14
ATOM     14  C   UNL     1      43.706   4.037  10.329  0.00  0.00    +0.000 C 
BRANCH  14  19
ATOM     15  C   UNL     1      47.620   1.837   6.611  0.00  0.00    +0.000 C 
ATOM     16  C   UNL     1      46.596   2.395   7.555  0.00  0.00    +0.000 A 
ATOM     17  C   UNL     1      45.851   1.552   8.384  0.00  0.00    +0.000 A 
ATOM     18  C   UNL     1      44.913   2.082   9.273  0.00  0.00    +0.000 A 
ATOM     19  C   UNL     1      44.700   3.466   9.345  0.00  0.00    +0.000 A 
ATOM     20  C   UNL     1      45.443   4.309   8.508  0.00  0.00    +0.000 A 
ATOM     21  C   UNL     1      46.383   3.777   7.621  0.00  0.00    +0.000 A 
ENDBRANCH  14  19
ENDBRANCH  13  14
ENDBRANCH   1  13
TORSDOF 5
ENDMDL
MODEL 2
REMARK VINA RESULT:    -6.932      1.496      2.032
REMARK INTER + INTRA:          -9.300
REMARK INTER:                  -8.845
REMARK INTRA:                  -0.456
REMARK UNBOUND:                -0.341
REMARK  Name = 
REMARK  9 active torsions:
REMARK  status: ('A' for Active; 'I' for Inactive)
REMARK    1  A    between atoms: C_1  and  C_2
REMARK    2  A    between atoms: C_5  and  C_6
REMARK    3  A    between atoms: C_6  and  O_7
REMARK    4  A    between atoms: O_7  and  C_8
REMARK    5  A    between atoms: C_11  and  C_12
REMARK    6  A    between atoms: C_12  and  C_14
REMARK    7  A    between atoms: C_14  and  C_15
REMARK    8  A    between atoms: C_14  and  C_16
REMARK    9  A    between atoms: C_14  and  C_17
REMARK                            x       y       z     vdW  Elec       q    Type
REMARK                         _______ _______ _______ _____ _____    ______ ____
ROOT
ATOM      1  C   UNL     1      45.301   4.808  11.875  0.00  0.00    +0.000 A 
ATOM      2  C   UNL     1      46.252   4.648  12.869  0.00  0.00    +0.000 A 
ATOM      3  N   UNL     1      46.974   5.681  13.364  0.00  0.00    +0.000 NA
ATOM      4  C   UNL     1      46.737   6.887  12.795  0.00  0.00    +0.000 A 
ATOM      5  C   UNL     1      45.807   7.041  11.773  0.00  0.00    +0.000 A 
ATOM      6  N   UNL     1      45.061   6.005  11.293  0.00  0.00    +0.000 NA
ENDROOT
BRANCH   4   7
ATOM      7  C   UNL     1      47.483   8.073  13.305  0.00  0.00    +0.000 C 
ATOM      8  O   UNL     1      46.901   8.815  14.097  0.00  0.00    +0.000 OA
BRANCH   7   9
ATOM      9  C   UNL     1      48.959   8.302  12.892  0.00  0.00    +0.000 C 
ATOM     10  C   UNL     1      49.276   7.727  11.503  0.00  0.00    +0.000 C 
ATOM     11  C   UNL     1      49.230   9.821  12.834  0.00  0.00    +0.000 C 
ATOM     12  C   UNL     1      49.893   7.705  13.956  0.00  0.00    +0.000 C 
ENDBRANCH   7   9
ENDBRANCH   4   7
BRANCH   1  13
ATOM     13  O   UNL     1      44.604   3.692  11.480  0.00  0.00    +0.000 OA
BRANCH  13  14
ATOM     14  C   UNL     1      43.986   3.860  10.205  0.00  0.00    +0.000 C 
BRANCH  14  19
ATOM     15  C   UNL     1      47.788   1.908   6.240  0.00  0.00    +0.000 C 
ATOM     16  C   UNL     1      46.792   2.401   7.249  0.00  0.00    +0.000 A 
ATOM     17  C   UNL     1      46.183   1.518   8.144  0.00  0.00    +0.000 A 
ATOM     18  C   UNL     1      45.271   1.989   9.092  0.00  0.00    +0.000 A 
ATOM     19  C   UNL     1      44.950   3.351   9.159  0.00  0.00    +0.000 A 
ATOM     20  C   UNL     1      45.556   4.234   8.255  0.00  0.00    +0.000 A 
ATOM     21  C   UNL     1      46.471   3.762   7.309  0.00  0.00    +0.000 A 
ENDBRANCH  14  19
ENDBRANCH  13  14
ENDBRANCH   1  13
TORSDOF 5
ENDMDL
MODEL 3
REMARK VINA RESULT:    -6.930      1.556      2.387
REMARK INTER + INTRA:          -9.297
REMARK INTER:                  -9.068
REMARK INTRA:                  -0.229
REMARK UNBOUND:                -0.341
REMARK  Name = 
REMARK  9 active torsions:
REMARK  status: ('A' for Active; 'I' for Inactive)
REMARK    1  A    between atoms: C_1  and  C_2
REMARK    2  A    between atoms: C_5  and  C_6
REMARK    3  A    between atoms: C_6  and  O_7
REMARK    4  A    between atoms: O_7  and  C_8
REMARK    5  A    between atoms: C_11  and  C_12
REMARK    6  A    between atoms: C_12  and  C_14
REMARK    7  A    between atoms: C_14  and  C_15
REMARK    8  A    between atoms: C_14  and  C_16
REMARK    9  A    between atoms: C_14  and  C_17
REMARK                            x       y       z     vdW  Elec       q    Type
REMARK                         _______ _______ _______ _____ _____    ______ ____
ROOT
ATOM      1  C   UNL     1      45.317   4.041  12.561  0.00  0.00    +0.000 A 
ATOM      2  C   UNL     1      46.232   3.151  13.100  0.00  0.00    +0.000 A 
ATOM      3  N   UNL     1      47.157   3.519  14.018  0.00  0.00    +0.000 NA
ATOM      4  C   UNL     1      47.160   4.832  14.352  0.00  0.00    +0.000 A 
ATOM      5  C   UNL     1      46.265   5.730  13.785  0.00  0.00    +0.000 A 
ATOM      6  N   UNL     1      45.316   5.356  12.880  0.00  0.00    +0.000 NA
ENDROOT
BRANCH   4   7
ATOM      7  C   UNL     1      48.140   5.302  15.373  0.00  0.00    +0.000 C 
ATOM      8  O   UNL     1      48.924   6.192  15.041  0.00  0.00    +0.000 OA
BRANCH   7   9
ATOM      9  C   UNL     1      48.107   4.725  16.810  0.00  0.00    +0.000 C 
ATOM     10  C   UNL     1      46.899   3.805  17.046  0.00  0.00    +0.000 C 
ATOM     11  C   UNL     1      49.380   3.881  17.039  0.00  0.00    +0.000 C 
ATOM     12  C   UNL     1      48.124   5.874  17.830  0.00  0.00    +0.000 C 
ENDBRANCH   7   9
ENDBRANCH   4   7
BRANCH   1  13
ATOM     13  O   UNL     1      44.402   3.543  11.666  0.00  0.00    +0.000 OA
BRANCH  13  14
ATOM     14  C   UNL     1      44.269   4.368  10.509  0.00  0.00    +0.000 C 
BRANCH  14  19
ATOM     15  C   UNL     1      47.465   1.915   6.294  0.00  0.00    +0.000 C 
ATOM     16  C   UNL     1      46.623   2.540   7.368  0.00  0.00    +0.000 A 
ATOM     17  C   UNL     1      45.954   1.748   8.305  0.00  0.00    +0.000 A 
ATOM     18  C   UNL     1      45.187   2.339   9.312  0.00  0.00    +0.000 A 
ATOM     19  C   UNL     1      45.075   3.733   9.399  0.00  0.00    +0.000 A 
ATOM     20  C   UNL     1      45.741   4.525   8.455  0.00  0.00    +0.000 A 
ATOM     21  C   UNL     1      46.509   3.933   7.449  0.00  0.00    +0.000 A 
ENDBRANCH  14  19
ENDBRANCH  13  14
ENDBRANCH   1  13
TORSDOF 5
ENDMDL
MODEL 4
REMARK VINA RESULT:    -6.171      1.706      2.468
REMARK INTER + INTRA:          -8.316
REMARK INTER:                  -7.875
REMARK INTRA:                  -0.441
REMARK UNBOUND:                -0.341
REMARK  Name = 
REMARK  9 active torsions:
REMARK  status: ('A' for Active; 'I' for Inactive)
REMARK    1  A    between atoms: C_1  and  C_2
REMARK    2  A    between atoms: C_5  and  C_6
REMARK    3  A    between atoms: C_6  and  O_7
REMARK    4  A    between atoms: O_7  and  C_8
REMARK    5  A    between atoms: C_11  and  C_12
REMARK    6  A    between atoms: C_12  and  C_14
REMARK    7  A    between atoms: C_14  and  C_15
REMARK    8  A    between atoms: C_14  and  C_16
REMARK    9  A    between atoms: C_14  and  C_17
REMARK                            x       y       z     vdW  Elec       q    Type
REMARK                         _______ _______ _______ _____ _____    ______ ____
ROOT
ATOM      1  C   UNL     1      45.696   5.505  12.066  0.00  0.00    +0.000 A 
ATOM      2  C   UNL     1      46.748   4.996  12.810  0.00  0.00    +0.000 A 
ATOM      3  N   UNL     1      47.856   5.719  13.099  0.00  0.00    +0.000 NA
ATOM      4  C   UNL     1      47.892   6.969  12.579  0.00  0.00    +0.000 A 
ATOM      5  C   UNL     1      46.851   7.466  11.804  0.00  0.00    +0.000 A 
ATOM      6  N   UNL     1      45.723   6.748  11.534  0.00  0.00    +0.000 NA
ENDROOT
BRANCH   4   7
ATOM      7  C   UNL     1      49.074   7.827  12.874  0.00  0.00    +0.000 C 
ATOM      8  O   UNL     1      50.119   7.586  12.267  0.00  0.00    +0.000 OA
BRANCH   7   9
ATOM      9  C   UNL     1      48.949   9.015  13.861  0.00  0.00    +0.000 C 
ATOM     10  C   UNL     1      47.966   8.726  15.006  0.00  0.00    +0.000 C 
ATOM     11  C   UNL     1      50.330   9.283  14.498  0.00  0.00    +0.000 C 
ATOM     12  C   UNL     1      48.537  10.283  13.096  0.00  0.00    +0.000 C 
ENDBRANCH   7   9
ENDBRANCH   4   7
BRANCH   1  13
ATOM     13  O   UNL     1      44.608   4.689  11.869  0.00  0.00    +0.000 OA
BRANCH  13  14
ATOM     14  C   UNL     1      44.038   4.847  10.570  0.00  0.00    +0.000 C 
BRANCH  14  19
ATOM     15  C   UNL     1      47.063   1.586   6.801  0.00  0.00    +0.000 C 
ATOM     16  C   UNL     1      46.304   2.431   7.782  0.00  0.00    +0.000 A 
ATOM     17  C   UNL     1      46.350   3.826   7.712  0.00  0.00    +0.000 A 
ATOM     18  C   UNL     1      45.625   4.605   8.617  0.00  0.00    +0.000 A 
ATOM     19  C   UNL     1      44.843   4.001   9.612  0.00  0.00    +0.000 A 
ATOM     20  C   UNL     1      44.805   2.603   9.685  0.00  0.00    +0.000 A 
ATOM     21  C   UNL     1      45.528   1.825   8.777  0.00  0.00    +0.000 A 
ENDBRANCH  14  19
ENDBRANCH  13  14
ENDBRANCH   1  13
TORSDOF 5
ENDMDL
MODEL 5
REMARK VINA RESULT:    -6.150      2.291      3.094
REMARK INTER + INTRA:          -8.289
REMARK INTER:                  -8.034
REMARK INTRA:                  -0.255
REMARK UNBOUND:                -0.341
REMARK  Name = 
REMARK  9 active torsions:
REMARK  status: ('A' for Active; 'I' for Inactive)
REMARK    1  A    between atoms: C_1  and  C_2
REMARK    2  A    between atoms: C_5  and  C_6
REMARK    3  A    between atoms: C_6  and  O_7
REMARK    4  A    between atoms: O_7  and  C_8
REMARK    5  A    between atoms: C_11  and  C_12
REMARK    6  A    between atoms: C_12  and  C_14
REMARK    7  A    between atoms: C_14  and  C_15
REMARK    8  A    between atoms: C_14  and  C_16
REMARK    9  A    between atoms: C_14  and  C_17
REMARK                            x       y       z     vdW  Elec       q    Type
REMARK                         _______ _______ _______ _____ _____    ______ ____
ROOT
ATOM      1  C   UNL     1      46.608   4.443  14.486  0.00  0.00    +0.000 A 
ATOM      2  C   UNL     1      47.328   5.530  14.019  0.00  0.00    +0.000 A 
ATOM      3  N   UNL     1      48.317   6.114  14.736  0.00  0.00    +0.000 NA
ATOM      4  C   UNL     1      48.537   5.591  15.966  0.00  0.00    +0.000 A 
ATOM      5  C   UNL     1      47.790   4.522  16.447  0.00  0.00    +0.000 A 
ATOM      6  N   UNL     1      46.811   3.917  15.715  0.00  0.00    +0.000 NA
ENDROOT
BRANCH   4   7
ATOM      7  C   UNL     1      49.625   6.173  16.801  0.00  0.00    +0.000 C 
ATOM      8  O   UNL     1      50.770   5.755  16.618  0.00  0.00    +0.000 OA
BRANCH   7   9
ATOM      9  C   UNL     1      49.313   7.309  17.808  0.00  0.00    +0.000 C 
ATOM     10  C   UNL     1      48.362   6.858  18.926  0.00  0.00    +0.000 C 
ATOM     11  C   UNL     1      50.631   7.758  18.477  0.00  0.00    +0.000 C 
ATOM     12  C   UNL     1      48.738   8.521  17.058  0.00  0.00    +0.000 C 
ENDBRANCH   7   9
ENDBRANCH   4   7
BRANCH   1  13
ATOM     13  O   UNL     1      45.653   3.912  13.653  0.00  0.00    +0.000 OA
BRANCH  13  14
ATOM     14  C   UNL     1      44.971   4.914  12.899  0.00  0.00    +0.000 C 
BRANCH  14  19
ATOM     15  C   UNL     1      45.500   3.441   7.283  0.00  0.00    +0.000 C 
ATOM     16  C   UNL     1      45.341   3.820   8.726  0.00  0.00    +0.000 A 
ATOM     17  C   UNL     1      44.882   2.892   9.665  0.00  0.00    +0.000 A 
ATOM     18  C   UNL     1      44.754   3.248  11.009  0.00  0.00    +0.000 A 
ATOM     19  C   UNL     1      45.082   4.542  11.439  0.00  0.00    +0.000 A 
ATOM     20  C   UNL     1      45.534   5.473  10.495  0.00  0.00    +0.000 A 
ATOM     21  C   UNL     1      45.664   5.114   9.151  0.00  0.00    +0.000 A 
ENDBRANCH  14  19
ENDBRANCH  13  14
ENDBRANCH   1  13
TORSDOF 5
ENDMDL
MODEL 6
REMARK VINA RESULT:    -6.087      3.074      4.207
REMARK INTER + INTRA:          -8.208
REMARK INTER:                  -7.916
REMARK INTRA:                  -0.292
REMARK UNBOUND:                -0.341
REMARK  Name = 
REMARK  9 active torsions:
REMARK  status: ('A' for Active; 'I' for Inactive)
REMARK    1  A    between atoms: C_1  and  C_2
REMARK    2  A    between atoms: C_5  and  C_6
REMARK    3  A    between atoms: C_6  and  O_7
REMARK    4  A    between atoms: O_7  and  C_8
REMARK    5  A    between atoms: C_11  and  C_12
REMARK    6  A    between atoms: C_12  and  C_14
REMARK    7  A    between atoms: C_14  and  C_15
REMARK    8  A    between atoms: C_14  and  C_16
REMARK    9  A    between atoms: C_14  and  C_17
REMARK                            x       y       z     vdW  Elec       q    Type
REMARK                         _______ _______ _______ _____ _____    ______ ____
ROOT
ATOM      1  C   UNL     1      46.963   4.295  15.272  0.00  0.00    +0.000 A 
ATOM      2  C   UNL     1      47.868   5.328  15.092  0.00  0.00    +0.000 A 
ATOM      3  N   UNL     1      48.799   5.655  16.019  0.00  0.00    +0.000 NA
ATOM      4  C   UNL     1      48.767   4.929  17.162  0.00  0.00    +0.000 A 
ATOM      5  C   UNL     1      47.836   3.915  17.356  0.00  0.00    +0.000 A 
ATOM      6  N   UNL     1      46.915   3.568  16.412  0.00  0.00    +0.000 NA
ENDROOT
BRANCH   4   7
ATOM      7  C   UNL     1      49.777   5.222  18.218  0.00  0.00    +0.000 C 
ATOM      8  O   UNL     1      49.426   5.936  19.160  0.00  0.00    +0.000 OA
BRANCH   7   9
ATOM      9  C   UNL     1      51.188   4.586  18.147  0.00  0.00    +0.000 C 
ATOM     10  C   UNL     1      51.158   3.154  17.592  0.00  0.00    +0.000 C 
ATOM     11  C   UNL     1      52.068   5.429  17.199  0.00  0.00    +0.000 C 
ATOM     12  C   UNL     1      51.841   4.618  19.538  0.00  0.00    +0.000 C 
ENDBRANCH   7   9
ENDBRANCH   4   7
BRANCH   1  13
ATOM     13  O   UNL     1      46.090   4.032  14.244  0.00  0.00    +0.000 OA
BRANCH  13  14
ATOM     14  C   UNL     1      45.731   5.209  13.521  0.00  0.00    +0.000 C 
BRANCH  14  19
ATOM     15  C   UNL     1      44.809   3.601   7.994  0.00  0.00    +0.000 C 
ATOM     16  C   UNL     1      45.024   4.016   9.420  0.00  0.00    +0.000 A 
ATOM     17  C   UNL     1      44.745   3.139  10.471  0.00  0.00    +0.000 A 
ATOM     18  C   UNL     1      44.965   3.528  11.795  0.00  0.00    +0.000 A 
ATOM     19  C   UNL     1      45.466   4.804  12.090  0.00  0.00    +0.000 A 
ATOM     20  C   UNL     1      45.738   5.684  11.035  0.00  0.00    +0.000 A 
ATOM     21  C   UNL     1      45.519   5.292   9.711  0.00  0.00    +0.000 A 
ENDBRANCH  14  19
ENDBRANCH  13  14
ENDBRANCH   1  13
TORSDOF 5
ENDMDL
MODEL 7
REMARK VINA RESULT:    -5.819      3.379      4.641
REMARK INTER + INTRA:          -7.861
REMARK INTER:                  -7.512
REMARK INTRA:                  -0.349
REMARK UNBOUND:                -0.341
REMARK  Name = 
REMARK  9 active torsions:
REMARK  status: ('A' for Active; 'I' for Inactive)
REMARK    1  A    between atoms: C_1  and  C_2
REMARK    2  A    between atoms: C_5  and  C_6
REMARK    3  A    between atoms: C_6  and  O_7
REMARK    4  A    between atoms: O_7  and  C_8
REMARK    5  A    between atoms: C_11  and  C_12
REMARK    6  A    between atoms: C_12  and  C_14
REMARK    7  A    between atoms: C_14  and  C_15
REMARK    8  A    between atoms: C_14  and  C_16
REMARK    9  A    between atoms: C_14  and  C_17
REMARK                            x       y       z     vdW  Elec       q    Type
REMARK                         _______ _______ _______ _____ _____    ______ ____
ROOT
ATOM      1  C   UNL     1      47.340   4.319  15.292  0.00  0.00    +0.000 A 
ATOM      2  C   UNL     1      47.482   3.453  16.364  0.00  0.00    +0.000 A 
ATOM      3  N   UNL     1      48.244   3.745  17.445  0.00  0.00    +0.000 NA
ATOM      4  C   UNL     1      48.899   4.930  17.397  0.00  0.00    +0.000 A 
ATOM      5  C   UNL     1      48.784   5.782  16.305  0.00  0.00    +0.000 A 
ATOM      6  N   UNL     1      47.995   5.500  15.228  0.00  0.00    +0.000 NA
ENDROOT
BRANCH   4   7
ATOM      7  C   UNL     1      49.741   5.324  18.562  0.00  0.00    +0.000 C 
ATOM      8  O   UNL     1      50.963   5.232  18.438  0.00  0.00    +0.000 OA
BRANCH   7   9
ATOM      9  C   UNL     1      49.082   5.892  19.844  0.00  0.00    +0.000 C 
ATOM     10  C   UNL     1      47.688   6.481  19.576  0.00  0.00    +0.000 C 
ATOM     11  C   UNL     1      48.908   4.746  20.865  0.00  0.00    +0.000 C 
ATOM     12  C   UNL     1      50.005   6.943  20.480  0.00  0.00    +0.000 C 
ENDBRANCH   7   9
ENDBRANCH   4   7
BRANCH   1  13
ATOM     13  O   UNL     1      46.510   3.929  14.270  0.00  0.00    +0.000 OA
BRANCH  13  14
ATOM     14  C   UNL     1      45.822   5.031  13.678  0.00  0.00    +0.000 C 
BRANCH  14  19
ATOM     15  C   UNL     1      44.703   3.722   8.107  0.00  0.00    +0.000 C 
ATOM     16  C   UNL     1      45.013   4.058   9.537  0.00  0.00    +0.000 A 
ATOM     17  C   UNL     1      45.520   5.313   9.884  0.00  0.00    +0.000 A 
ATOM     18  C   UNL     1      45.789   5.623  11.219  0.00  0.00    +0.000 A 
ATOM     19  C   UNL     1      45.558   4.681  12.231  0.00  0.00    +0.000 A 
ATOM     20  C   UNL     1      45.057   3.421  11.880  0.00  0.00    +0.000 A 
ATOM     21  C   UNL     1      44.786   3.113  10.544  0.00  0.00    +0.000 A 
ENDBRANCH  14  19
ENDBRANCH  13  14
ENDBRANCH   1  13
TORSDOF 5
ENDMDL
MODEL 8
REMARK VINA RESULT:    -5.747      3.395      7.543
REMARK INTER + INTRA:          -7.768
REMARK INTER:                  -7.723
REMARK INTRA:                  -0.045
REMARK UNBOUND:                -0.341
REMARK  Name = 
REMARK  9 active torsions:
REMARK  status: ('A' for Active; 'I' for Inactive)
REMARK    1  A    between atoms: C_1  and  C_2
REMARK    2  A    between atoms: C_5  and  C_6
REMARK    3  A    between atoms: C_6  and  O_7
REMARK    4  A    between atoms: O_7  and  C_8
REMARK    5  A    between atoms: C_11  and  C_12
REMARK    6  A    between atoms: C_12  and  C_14
REMARK    7  A    between atoms: C_14  and  C_15
REMARK    8  A    between atoms: C_14  and  C_16
REMARK    9  A    between atoms: C_14  and  C_17
REMARK                            x       y       z     vdW  Elec       q    Type
REMARK                         _______ _______ _______ _____ _____    ______ ____
ROOT
ATOM      1  C   UNL     1      47.551   4.662  14.845  0.00  0.00    +0.000 A 
ATOM      2  C   UNL     1      46.673   5.637  14.401  0.00  0.00    +0.000 A 
ATOM      3  N   UNL     1      45.683   5.381  13.514  0.00  0.00    +0.000 NA
ATOM      4  C   UNL     1      45.625   4.108  13.052  0.00  0.00    +0.000 A 
ATOM      5  C   UNL     1      46.528   3.139  13.472  0.00  0.00    +0.000 A 
ATOM      6  N   UNL     1      47.509   3.390  14.385  0.00  0.00    +0.000 NA
ENDROOT
BRANCH   4   7
ATOM      7  C   UNL     1      44.546   3.751  12.088  0.00  0.00    +0.000 C 
ATOM      8  O   UNL     1      43.795   2.823  12.391  0.00  0.00    +0.000 OA
BRANCH   7   9
ATOM      9  C   UNL     1      44.353   4.578  10.791  0.00  0.00    +0.000 C 
ATOM     10  C   UNL     1      43.150   5.530  10.875  0.00  0.00    +0.000 C 
ATOM     11  C   UNL     1      45.611   5.445  10.561  0.00  0.00    +0.000 C 
ATOM     12  C   UNL     1      44.217   3.631   9.588  0.00  0.00    +0.000 C 
ENDBRANCH   7   9
ENDBRANCH   4   7
BRANCH   1  13
ATOM     13  O   UNL     1      48.492   5.033  15.775  0.00  0.00    +0.000 OA
BRANCH  13  14
ATOM     14  C   UNL     1      48.350   4.324  17.005  0.00  0.00    +0.000 C 
BRANCH  14  19
ATOM     15  C   UNL     1      53.431   1.629  17.962  0.00  0.00    +0.000 C 
ATOM     16  C   UNL     1      52.121   2.326  17.738  0.00  0.00    +0.000 A 
ATOM     17  C   UNL     1      52.000   3.704  17.930  0.00  0.00    +0.000 A 
ATOM     18  C   UNL     1      50.781   4.347  17.702  0.00  0.00    +0.000 A 
ATOM     19  C   UNL     1      49.659   3.620  17.280  0.00  0.00    +0.000 A 
ATOM     20  C   UNL     1      49.780   2.236  17.095  0.00  0.00    +0.000 A 
ATOM     21  C   UNL     1      51.001   1.596  17.321  0.00  0.00    +0.000 A 
ENDBRANCH  14  19
ENDBRANCH  13  14
ENDBRANCH   1  13
TORSDOF 5
ENDMDL
MODEL 9
REMARK VINA RESULT:    -5.702      3.573      7.690
REMARK INTER + INTRA:          -7.710
REMARK INTER:                  -7.570
REMARK INTRA:                  -0.140
REMARK UNBOUND:                -0.341
REMARK  Name = 
REMARK  9 active torsions:
REMARK  status: ('A' for Active; 'I' for Inactive)
REMARK    1  A    between atoms: C_1  and  C_2
REMARK    2  A    between atoms: C_5  and  C_6
REMARK    3  A    between atoms: C_6  and  O_7
REMARK    4  A    between atoms: O_7  and  C_8
REMARK    5  A    between atoms: C_11  and  C_12
REMARK    6  A    between atoms: C_12  and  C_14
REMARK    7  A    between atoms: C_14  and  C_15
REMARK    8  A    between atoms: C_14  and  C_16
REMARK    9  A    between atoms: C_14  and  C_17
REMARK                            x       y       z     vdW  Elec       q    Type
REMARK                         _______ _______ _______ _____ _____    ______ ____
ROOT
ATOM      1  C   UNL     1      47.842   5.234  15.159  0.00  0.00    +0.000 A 
ATOM      2  C   UNL     1      47.035   4.123  14.976  0.00  0.00    +0.000 A 
ATOM      3  N   UNL     1      46.213   3.985  13.908  0.00  0.00    +0.000 NA
ATOM      4  C   UNL     1      46.198   5.026  13.042  0.00  0.00    +0.000 A 
ATOM      5  C   UNL     1      46.982   6.155  13.246  0.00  0.00    +0.000 A 
ATOM      6  N   UNL     1      47.830   6.284  14.307  0.00  0.00    +0.000 NA
ENDROOT
BRANCH   4   7
ATOM      7  C   UNL     1      45.330   4.932  11.834  0.00  0.00    +0.000 C 
ATOM      8  O   UNL     1      45.850   5.162  10.740  0.00  0.00    +0.000 OA
BRANCH   7   9
ATOM      9  C   UNL     1      43.851   4.492  11.968  0.00  0.00    +0.000 C 
ATOM     10  C   UNL     1      43.708   2.982  12.213  0.00  0.00    +0.000 C 
ATOM     11  C   UNL     1      43.223   5.216  13.179  0.00  0.00    +0.000 C 
ATOM     12  C   UNL     1      43.068   4.918  10.716  0.00  0.00    +0.000 C 
ENDBRANCH   7   9
ENDBRANCH   4   7
BRANCH   1  13
ATOM     13  O   UNL     1      48.662   5.244  16.262  0.00  0.00    +0.000 OA
BRANCH  13  14
ATOM     14  C   UNL     1      48.459   4.108  17.101  0.00  0.00    +0.000 C 
BRANCH  14  19
ATOM     15  C   UNL     1      53.626   1.596  18.093  0.00  0.00    +0.000 C 
ATOM     16  C   UNL     1      52.300   2.241  17.815  0.00  0.00    +0.000 A 
ATOM     17  C   UNL     1      51.228   1.492  17.323  0.00  0.00    +0.000 A 
ATOM     18  C   UNL     1      49.992   2.097  17.085  0.00  0.00    +0.000 A 
ATOM     19  C   UNL     1      49.807   3.464  17.332  0.00  0.00    +0.000 A 
ATOM     20  C   UNL     1      50.885   4.215  17.819  0.00  0.00    +0.000 A 
ATOM     21  C   UNL     1      52.120   3.607  18.059  0.00  0.00    +0.000 A 
ENDBRANCH  14  19
ENDBRANCH  13  14
ENDBRANCH   1  13
TORSDOF 5
ENDMDL
