MODEL 1
REMARK VINA RESULT:    -7.606      0.000      0.000
REMARK INTER + INTRA:         -11.152
REMARK INTER:                 -10.051
REMARK INTRA:                  -1.101
REMARK UNBOUND:                -1.101
REMARK  Name = 
REMARK  6 active torsions:
REMARK  status: ('A' for Active; 'I' for Inactive)
REMARK    1  A    between atoms: C_2  and  C_19
REMARK    2  A    between atoms: N_3  and  C_4
REMARK    3  A    between atoms: C_4  and  C_5
REMARK    4  A    between atoms: C_9  and  C_10
REMARK    5  A    between atoms: C_10  and  N_11
REMARK    6  A    between atoms: C_14  and  O_15
REMARK                            x       y       z     vdW  Elec       q    Type
REMARK                         _______ _______ _______ _____ _____    ______ ____
ROOT
ATOM      1  C   UNL     1      46.302   4.836  13.806  0.00  0.00    +0.000 C 
ENDROOT
BRANCH   1   2
ATOM      2  C   UNL     1      45.175   4.518  12.856  0.00  0.00    +0.000 A 
ATOM      3  C   UNL     1      43.937   5.152  13.012  0.00  0.00    +0.000 A 
ATOM      4  C   UNL     1      42.890   4.881  12.134  0.00  0.00    +0.000 A 
ATOM      5  C   UNL     1      43.075   3.977  11.086  0.00  0.00    +0.000 A 
ATOM      6  C   UNL     1      44.301   3.314  10.912  0.00  0.00    +0.000 A 
ATOM      7  C   UNL     1      45.339   3.578  11.821  0.00  0.00    +0.000 A 
BRANCH   6   8
ATOM      8  C   UNL     1      44.505   2.383   9.727  0.00  0.00    +0.000 C 
BRANCH   8   9
ATOM      9  N   UNL     1      45.719   2.566   8.908  0.00  0.00    +0.000 NA
ATOM     10  C   UNL     1      45.680   3.782   8.096  0.00  0.00    +0.000 C 
ATOM     11  C   UNL     1      46.941   3.986   7.254  0.00  0.00    +0.000 C 
ATOM     12  C   UNL     1      47.287   2.742   6.442  0.00  0.00    +0.000 C 
ATOM     13  C   UNL     1      47.372   1.526   7.354  0.00  0.00    +0.000 C 
ATOM     14  C   UNL     1      46.100   1.352   8.187  0.00  0.00    +0.000 C 
BRANCH  12  15
ATOM     15  O   UNL     1      46.332   2.515   5.404  0.00  0.00    +0.000 OA
ATOM     16  H   UNL     1      45.470   2.858   5.702  0.00  0.00    +0.000 HD
ENDBRANCH  12  15
ENDBRANCH   8   9
ENDBRANCH   6   8
ENDBRANCH   1   2
BRANCH   1  19
ATOM     17  O   UNL     1      48.741   5.912  12.886  0.00  0.00    +0.000 OA
ATOM     18  C   UNL     1      47.836   6.673  13.211  0.00  0.00    +0.000 C 
ATOM     19  N   UNL     1      46.652   6.232  13.743  0.00  0.00    +0.000 N 
ATOM     20  H   UNL     1      45.878   6.880  13.820  0.00  0.00    +0.000 HD
BRANCH  18  21
ATOM     21  C   UNL     1      47.984   8.129  13.097  0.00  0.00    +0.000 A 
ATOM     22  C   UNL     1      49.156   8.739  13.524  0.00  0.00    +0.000 A 
ATOM     23  S   UNL     1      49.149  10.434  13.336  0.00  0.00    +0.000 S 
ATOM     24  C   UNL     1      47.601  10.406  12.629  0.00  0.00    +0.000 A 
ATOM     25  N   UNL     1      47.009  11.551  12.199  0.00  0.00    +0.000 NA
ATOM     26  C   UNL     1      45.862  11.378  11.630  0.00  0.00    +0.000 A 
ATOM     27  N   UNL     1      45.245  10.166  11.468  0.00  0.00    +0.000 N 
ATOM     28  C   UNL     1      45.766   8.993  11.961  0.00  0.00    +0.000 A 
ATOM     29  O   UNL     1      45.126   7.948  11.918  0.00  0.00    +0.000 OA
ATOM     30  C   UNL     1      47.083   9.125  12.562  0.00  0.00    +0.000 A 
ATOM     31  H   UNL     1      44.337  10.101  11.030  0.00  0.00    +0.000 HD
ENDBRANCH  18  21
ENDBRANCH   1  19
TORSDOF 6
ENDMDL
MODEL 2
REMARK VINA RESULT:    -7.450      3.453      8.050
REMARK INTER + INTRA:         -10.946
REMARK INTER:                  -9.908
REMARK INTRA:                  -1.038
REMARK UNBOUND:                -1.101
REMARK  Name = 
REMARK  6 active torsions:
REMARK  status: ('A' for Active; 'I' for Inactive)
REMARK    1  A    between atoms: C_2  and  C_19
REMARK    2  A    between atoms: N_3  and  C_4
REMARK    3  A    between atoms: C_4  and  C_5
REMARK    4  A    between atoms: C_9  and  C_10
REMARK    5  A    between atoms: C_10  and  N_11
REMARK    6  A    between atoms: C_14  and  O_15
REMARK                            x       y       z     vdW  Elec       q    Type
REMARK                         _______ _______ _______ _____ _____    ______ ____
ROOT
ATOM      1  C   UNL     1      47.719   7.882  11.761  0.00  0.00    +0.000 C 
ENDROOT
BRANCH   1   2
ATOM      2  C   UNL     1      48.786   7.834  12.826  0.00  0.00    +0.000 A 
ATOM      3  C   UNL     1      50.048   8.382  12.567  0.00  0.00    +0.000 A 
ATOM      4  C   UNL     1      51.041   8.359  13.544  0.00  0.00    +0.000 A 
ATOM      5  C   UNL     1      50.777   7.795  14.794  0.00  0.00    +0.000 A 
ATOM      6  C   UNL     1      49.526   7.224  15.078  0.00  0.00    +0.000 A 
ATOM      7  C   UNL     1      48.543   7.230  14.073  0.00  0.00    +0.000 A 
BRANCH   6   8
ATOM      8  C   UNL     1      49.235   6.672  16.465  0.00  0.00    +0.000 C 
BRANCH   8   9
ATOM      9  N   UNL     1      49.064   5.212  16.603  0.00  0.00    +0.000 NA
ATOM     10  C   UNL     1      47.701   4.830  16.975  0.00  0.00    +0.000 C 
ATOM     11  C   UNL     1      47.513   3.318  17.107  0.00  0.00    +0.000 C 
ATOM     12  C   UNL     1      48.571   2.693  18.011  0.00  0.00    +0.000 C 
ATOM     13  C   UNL     1      49.964   3.079  17.534  0.00  0.00    +0.000 C 
ATOM     14  C   UNL     1      50.120   4.596  17.405  0.00  0.00    +0.000 C 
BRANCH  12  15
ATOM     15  O   UNL     1      48.389   3.084  19.373  0.00  0.00    +0.000 OA
ATOM     16  H   UNL     1      47.750   3.818  19.397  0.00  0.00    +0.000 HD
ENDBRANCH  12  15
ENDBRANCH   8   9
ENDBRANCH   6   8
ENDBRANCH   1   2
BRANCH   1  19
ATOM     17  O   UNL     1      44.911   7.645  11.835  0.00  0.00    +0.000 OA
ATOM     18  C   UNL     1      45.593   6.635  11.698  0.00  0.00    +0.000 C 
ATOM     19  N   UNL     1      46.963   6.657  11.733  0.00  0.00    +0.000 N 
ATOM     20  H   UNL     1      47.474   5.836  11.433  0.00  0.00    +0.000 HD
BRANCH  18  21
ATOM     21  C   UNL     1      44.977   5.312  11.536  0.00  0.00    +0.000 A 
ATOM     22  C   UNL     1      44.257   4.753  12.583  0.00  0.00    +0.000 A 
ATOM     23  S   UNL     1      43.629   3.208  12.229  0.00  0.00    +0.000 S 
ATOM     24  C   UNL     1      44.252   3.254  10.646  0.00  0.00    +0.000 A 
ATOM     25  N   UNL     1      44.038   2.229   9.780  0.00  0.00    +0.000 NA
ATOM     26  C   UNL     1      44.516   2.422   8.595  0.00  0.00    +0.000 A 
ATOM     27  N   UNL     1      45.205   3.539   8.203  0.00  0.00    +0.000 N 
ATOM     28  C   UNL     1      45.517   4.563   9.065  0.00  0.00    +0.000 A 
ATOM     29  O   UNL     1      46.249   5.483   8.717  0.00  0.00    +0.000 OA
ATOM     30  C   UNL     1      44.954   4.421  10.398  0.00  0.00    +0.000 A 
ATOM     31  H   UNL     1      45.569   3.619   7.264  0.00  0.00    +0.000 HD
ENDBRANCH  18  21
ENDBRANCH   1  19
TORSDOF 6
ENDMDL
MODEL 3
REMARK VINA RESULT:    -7.438      2.618      4.309
REMARK INTER + INTRA:         -10.931
REMARK INTER:                 -10.227
REMARK INTRA:                  -0.704
REMARK UNBOUND:                -1.101
REMARK  Name = 
REMARK  6 active torsions:
REMARK  status: ('A' for Active; 'I' for Inactive)
REMARK    1  A    between atoms: C_2  and  C_19
REMARK    2  A    between atoms: N_3  and  C_4
REMARK    3  A    between atoms: C_4  and  C_5
REMARK    4  A    between atoms: C_9  and  C_10
REMARK    5  A    between atoms: C_10  and  N_11
REMARK    6  A    between atoms: C_14  and  O_15
REMARK                            x       y       z     vdW  Elec       q    Type
REMARK                         _______ _______ _______ _____ _____    ______ ____
ROOT
ATOM      1  C   UNL     1      46.488   6.692  12.318  0.00  0.00    +0.000 C 
ENDROOT
BRANCH   1   2
ATOM      2  C   UNL     1      45.352   5.731  12.071  0.00  0.00    +0.000 A 
ATOM      3  C   UNL     1      44.183   5.831  12.834  0.00  0.00    +0.000 A 
ATOM      4  C   UNL     1      43.118   4.960  12.610  0.00  0.00    +0.000 A 
ATOM      5  C   UNL     1      43.211   3.986  11.614  0.00  0.00    +0.000 A 
ATOM      6  C   UNL     1      44.377   3.852  10.843  0.00  0.00    +0.000 A 
ATOM      7  C   UNL     1      45.452   4.719  11.099  0.00  0.00    +0.000 A 
BRANCH   6   8
ATOM      8  C   UNL     1      44.436   2.828   9.720  0.00  0.00    +0.000 C 
BRANCH   8   9
ATOM      9  N   UNL     1      45.674   2.755   8.919  0.00  0.00    +0.000 NA
ATOM     10  C   UNL     1      45.808   3.863   7.974  0.00  0.00    +0.000 C 
ATOM     11  C   UNL     1      47.095   3.801   7.150  0.00  0.00    +0.000 C 
ATOM     12  C   UNL     1      47.283   2.437   6.494  0.00  0.00    +0.000 C 
ATOM     13  C   UNL     1      47.194   1.335   7.540  0.00  0.00    +0.000 C 
ATOM     14  C   UNL     1      45.899   1.426   8.351  0.00  0.00    +0.000 C 
BRANCH  12  15
ATOM     15  O   UNL     1      46.319   2.219   5.462  0.00  0.00    +0.000 OA
ATOM     16  H   UNL     1      46.521   2.820   4.723  0.00  0.00    +0.000 HD
ENDBRANCH  12  15
ENDBRANCH   8   9
ENDBRANCH   6   8
ENDBRANCH   1   2
BRANCH   1  19
ATOM     17  O   UNL     1      47.722   8.280  14.294  0.00  0.00    +0.000 OA
ATOM     18  C   UNL     1      47.838   7.060  14.348  0.00  0.00    +0.000 C 
ATOM     19  N   UNL     1      47.337   6.225  13.383  0.00  0.00    +0.000 N 
ATOM     20  H   UNL     1      47.298   5.230  13.568  0.00  0.00    +0.000 HD
BRANCH  18  21
ATOM     21  C   UNL     1      48.574   6.409  15.439  0.00  0.00    +0.000 A 
ATOM     22  C   UNL     1      49.711   7.012  15.960  0.00  0.00    +0.000 A 
ATOM     23  S   UNL     1      50.450   6.111  17.205  0.00  0.00    +0.000 S 
ATOM     24  C   UNL     1      49.247   4.910  17.128  0.00  0.00    +0.000 A 
ATOM     25  N   UNL     1      49.269   3.844  17.970  0.00  0.00    +0.000 NA
ATOM     26  C   UNL     1      48.264   3.041  17.842  0.00  0.00    +0.000 A 
ATOM     27  N   UNL     1      47.250   3.199  16.935  0.00  0.00    +0.000 N 
ATOM     28  C   UNL     1      47.228   4.214  16.009  0.00  0.00    +0.000 A 
ATOM     29  O   UNL     1      46.378   4.248  15.126  0.00  0.00    +0.000 OA
ATOM     30  C   UNL     1      48.308   5.177  16.146  0.00  0.00    +0.000 A 
ATOM     31  H   UNL     1      46.501   2.523  16.874  0.00  0.00    +0.000 HD
ENDBRANCH  18  21
ENDBRANCH   1  19
TORSDOF 6
ENDMDL
MODEL 4
REMARK VINA RESULT:    -7.043      2.140      3.128
REMARK INTER + INTRA:         -10.408
REMARK INTER:                  -9.578
REMARK INTRA:                  -0.830
REMARK UNBOUND:                -1.101
REMARK  Name = 
REMARK  6 active torsions:
REMARK  status: ('A' for Active; 'I' for Inactive)
REMARK    1  A    between atoms: C_2  and  C_19
REMARK    2  A    between atoms: N_3  and  C_4
REMARK    3  A    between atoms: C_4  and  C_5
REMARK    4  A    between atoms: C_9  and  C_10
REMARK    5  A    between atoms: C_10  and  N_11
REMARK    6  A    between atoms: C_14  and  O_15
REMARK                            x       y       z     vdW  Elec       q    Type
REMARK                         _______ _______ _______ _____ _____    ______ ____
ROOT
ATOM      1  C   UNL     1      46.223   4.760  13.902  0.00  0.00    +0.000 C 
ENDROOT
BRANCH   1   2
ATOM      2  C   UNL     1      45.170   4.570  12.839  0.00  0.00    +0.000 A 
ATOM      3  C   UNL     1      44.020   5.366  12.852  0.00  0.00    +0.000 A 
ATOM      4  C   UNL     1      43.044   5.213  11.869  0.00  0.00    +0.000 A 
ATOM      5  C   UNL     1      43.215   4.266  10.858  0.00  0.00    +0.000 A 
ATOM      6  C   UNL     1      44.352   3.442  10.826  0.00  0.00    +0.000 A 
ATOM      7  C   UNL     1      45.314   3.590  11.839  0.00  0.00    +0.000 A 
BRANCH   6   8
ATOM      8  C   UNL     1      44.552   2.461   9.681  0.00  0.00    +0.000 C 
BRANCH   8   9
ATOM      9  N   UNL     1      45.774   2.597   8.864  0.00  0.00    +0.000 NA
ATOM     10  C   UNL     1      45.771   3.800   8.031  0.00  0.00    +0.000 C 
ATOM     11  C   UNL     1      47.040   3.955   7.191  0.00  0.00    +0.000 C 
ATOM     12  C   UNL     1      47.353   2.689   6.401  0.00  0.00    +0.000 C 
ATOM     13  C   UNL     1      47.402   1.486   7.333  0.00  0.00    +0.000 C 
ATOM     14  C   UNL     1      46.123   1.361   8.164  0.00  0.00    +0.000 C 
BRANCH  12  15
ATOM     15  O   UNL     1      46.395   2.471   5.363  0.00  0.00    +0.000 OA
ATOM     16  H   UNL     1      45.509   2.452   5.765  0.00  0.00    +0.000 HD
ENDBRANCH  12  15
ENDBRANCH   8   9
ENDBRANCH   6   8
ENDBRANCH   1   2
BRANCH   1  19
ATOM     17  O   UNL     1      46.306   7.546  13.470  0.00  0.00    +0.000 OA
ATOM     18  C   UNL     1      47.319   6.881  13.284  0.00  0.00    +0.000 C 
ATOM     19  N   UNL     1      47.339   5.514  13.394  0.00  0.00    +0.000 N 
ATOM     20  H   UNL     1      48.232   5.037  13.412  0.00  0.00    +0.000 HD
BRANCH  18  21
ATOM     21  C   UNL     1      48.582   7.509  12.877  0.00  0.00    +0.000 A 
ATOM     22  C   UNL     1      48.666   8.159  11.653  0.00  0.00    +0.000 A 
ATOM     23  S   UNL     1      50.208   8.814  11.333  0.00  0.00    +0.000 S 
ATOM     24  C   UNL     1      50.802   8.297  12.842  0.00  0.00    +0.000 A 
ATOM     25  N   UNL     1      52.078   8.571  13.221  0.00  0.00    +0.000 NA
ATOM     26  C   UNL     1      52.378   8.172  14.413  0.00  0.00    +0.000 A 
ATOM     27  N   UNL     1      51.524   7.509  15.253  0.00  0.00    +0.000 N 
ATOM     28  C   UNL     1      50.254   7.137  14.882  0.00  0.00    +0.000 A 
ATOM     29  O   UNL     1      49.564   6.427  15.607  0.00  0.00    +0.000 OA
ATOM     30  C   UNL     1      49.846   7.610  13.570  0.00  0.00    +0.000 A 
ATOM     31  H   UNL     1      51.828   7.207  16.168  0.00  0.00    +0.000 HD
ENDBRANCH  18  21
ENDBRANCH   1  19
TORSDOF 6
ENDMDL
MODEL 5
REMARK VINA RESULT:    -7.002      4.506      8.030
REMARK INTER + INTRA:         -10.354
REMARK INTER:                  -9.235
REMARK INTRA:                  -1.118
REMARK UNBOUND:                -1.101
REMARK  Name = 
REMARK  6 active torsions:
REMARK  status: ('A' for Active; 'I' for Inactive)
REMARK    1  A    between atoms: C_2  and  C_19
REMARK    2  A    between atoms: N_3  and  C_4
REMARK    3  A    between atoms: C_4  and  C_5
REMARK    4  A    between atoms: C_9  and  C_10
REMARK    5  A    between atoms: C_10  and  N_11
REMARK    6  A    between atoms: C_14  and  O_15
REMARK                            x       y       z     vdW  Elec       q    Type
REMARK                         _______ _______ _______ _____ _____    ______ ____
ROOT
ATOM      1  C   UNL     1      48.789   8.584  15.550  0.00  0.00    +0.000 C 
ENDROOT
BRANCH   1   2
ATOM      2  C   UNL     1      48.521   8.080  16.946  0.00  0.00    +0.000 A 
ATOM      3  C   UNL     1      47.845   8.898  17.860  0.00  0.00    +0.000 A 
ATOM      4  C   UNL     1      47.577   8.443  19.149  0.00  0.00    +0.000 A 
ATOM      5  C   UNL     1      47.975   7.162  19.534  0.00  0.00    +0.000 A 
ATOM      6  C   UNL     1      48.667   6.324  18.645  0.00  0.00    +0.000 A 
ATOM      7  C   UNL     1      48.955   6.806  17.356  0.00  0.00    +0.000 A 
BRANCH   6   8
ATOM      8  C   UNL     1      49.036   4.907  19.059  0.00  0.00    +0.000 C 
BRANCH   8   9
ATOM      9  N   UNL     1      49.797   4.085  18.098  0.00  0.00    +0.000 NA
ATOM     10  C   UNL     1      49.076   2.881  17.683  0.00  0.00    +0.000 C 
ATOM     11  C   UNL     1      49.852   2.030  16.677  0.00  0.00    +0.000 C 
ATOM     12  C   UNL     1      51.269   1.735  17.159  0.00  0.00    +0.000 C 
ATOM     13  C   UNL     1      51.983   3.031  17.515  0.00  0.00    +0.000 C 
ATOM     14  C   UNL     1      51.181   3.864  18.518  0.00  0.00    +0.000 C 
BRANCH  12  15
ATOM     15  O   UNL     1      51.264   0.849  18.280  0.00  0.00    +0.000 OA
ATOM     16  H   UNL     1      51.936   0.161  18.128  0.00  0.00    +0.000 HD
ENDBRANCH  12  15
ENDBRANCH   8   9
ENDBRANCH   6   8
ENDBRANCH   1   2
BRANCH   1  19
ATOM     17  O   UNL     1      49.069   6.531  13.637  0.00  0.00    +0.000 OA
ATOM     18  C   UNL     1      47.976   7.068  13.783  0.00  0.00    +0.000 C 
ATOM     19  N   UNL     1      47.778   8.125  14.633  0.00  0.00    +0.000 N 
ATOM     20  H   UNL     1      46.830   8.407  14.852  0.00  0.00    +0.000 HD
BRANCH  18  21
ATOM     21  C   UNL     1      46.805   6.640  13.009  0.00  0.00    +0.000 A 
ATOM     22  C   UNL     1      46.102   7.566  12.251  0.00  0.00    +0.000 A 
ATOM     23  S   UNL     1      44.761   6.902  11.433  0.00  0.00    +0.000 S 
ATOM     24  C   UNL     1      45.104   5.341  12.022  0.00  0.00    +0.000 A 
ATOM     25  N   UNL     1      44.338   4.277  11.665  0.00  0.00    +0.000 NA
ATOM     26  C   UNL     1      44.746   3.145  12.137  0.00  0.00    +0.000 A 
ATOM     27  N   UNL     1      45.840   2.984  12.945  0.00  0.00    +0.000 N 
ATOM     28  C   UNL     1      46.594   4.039  13.398  0.00  0.00    +0.000 A 
ATOM     29  O   UNL     1      47.482   3.874  14.228  0.00  0.00    +0.000 OA
ATOM     30  C   UNL     1      46.210   5.331  12.853  0.00  0.00    +0.000 A 
ATOM     31  H   UNL     1      46.094   2.071  13.296  0.00  0.00    +0.000 HD
ENDBRANCH  18  21
ENDBRANCH   1  19
TORSDOF 6
ENDMDL
MODEL 6
REMARK VINA RESULT:    -6.889      3.833      7.778
REMARK INTER + INTRA:         -10.205
REMARK INTER:                  -8.424
REMARK INTRA:                  -1.781
REMARK UNBOUND:                -1.101
REMARK  Name = 
REMARK  6 active torsions:
REMARK  status: ('A' for Active; 'I' for Inactive)
REMARK    1  A    between atoms: C_2  and  C_19
REMARK    2  A    between atoms: N_3  and  C_4
REMARK    3  A    between atoms: C_4  and  C_5
REMARK    4  A    between atoms: C_9  and  C_10
REMARK    5  A    between atoms: C_10  and  N_11
REMARK    6  A    between atoms: C_14  and  O_15
REMARK                            x       y       z     vdW  Elec       q    Type
REMARK                         _______ _______ _______ _____ _____    ______ ____
ROOT
ATOM      1  C   UNL     1      48.330   9.299  15.096  0.00  0.00    +0.000 C 
ENDROOT
BRANCH   1   2
ATOM      2  C   UNL     1      49.448   8.405  15.572  0.00  0.00    +0.000 A 
ATOM      3  C   UNL     1      50.675   8.413  14.899  0.00  0.00    +0.000 A 
ATOM      4  C   UNL     1      51.723   7.604  15.334  0.00  0.00    +0.000 A 
ATOM      5  C   UNL     1      51.554   6.785  16.452  0.00  0.00    +0.000 A 
ATOM      6  C   UNL     1      50.330   6.744  17.139  0.00  0.00    +0.000 A 
ATOM      7  C   UNL     1      49.274   7.546  16.672  0.00  0.00    +0.000 A 
BRANCH   6   8
ATOM      8  C   UNL     1      50.185   5.896  18.393  0.00  0.00    +0.000 C 
BRANCH   8   9
ATOM      9  N   UNL     1      49.608   4.545  18.246  0.00  0.00    +0.000 NA
ATOM     10  C   UNL     1      50.455   3.646  17.460  0.00  0.00    +0.000 C 
ATOM     11  C   UNL     1      49.870   2.240  17.316  0.00  0.00    +0.000 C 
ATOM     12  C   UNL     1      48.426   2.275  16.825  0.00  0.00    +0.000 C 
ATOM     13  C   UNL     1      47.589   3.177  17.721  0.00  0.00    +0.000 C 
ATOM     14  C   UNL     1      48.201   4.573  17.851  0.00  0.00    +0.000 C 
BRANCH  12  15
ATOM     15  O   UNL     1      48.348   2.716  15.468  0.00  0.00    +0.000 OA
ATOM     16  H   UNL     1      47.723   2.138  14.995  0.00  0.00    +0.000 HD
ENDBRANCH  12  15
ENDBRANCH   8   9
ENDBRANCH   6   8
ENDBRANCH   1   2
BRANCH   1  19
ATOM     17  O   UNL     1      47.994   8.927  12.321  0.00  0.00    +0.000 OA
ATOM     18  C   UNL     1      47.247   8.342  13.098  0.00  0.00    +0.000 C 
ATOM     19  N   UNL     1      47.293   8.532  14.455  0.00  0.00    +0.000 N 
ATOM     20  H   UNL     1      46.787   7.894  15.057  0.00  0.00    +0.000 HD
BRANCH  18  21
ATOM     21  C   UNL     1      46.206   7.426  12.615  0.00  0.00    +0.000 A 
ATOM     22  C   UNL     1      45.182   7.907  11.811  0.00  0.00    +0.000 A 
ATOM     23  S   UNL     1      44.052   6.713  11.358  0.00  0.00    +0.000 S 
ATOM     24  C   UNL     1      44.921   5.500  12.177  0.00  0.00    +0.000 A 
ATOM     25  N   UNL     1      44.502   4.208  12.159  0.00  0.00    +0.000 NA
ATOM     26  C   UNL     1      45.287   3.384  12.772  0.00  0.00    +0.000 A 
ATOM     27  N   UNL     1      46.443   3.738  13.416  0.00  0.00    +0.000 N 
ATOM     28  C   UNL     1      46.862   5.041  13.531  0.00  0.00    +0.000 A 
ATOM     29  O   UNL     1      47.828   5.337  14.228  0.00  0.00    +0.000 OA
ATOM     30  C   UNL     1      46.044   6.003  12.812  0.00  0.00    +0.000 A 
ATOM     31  H   UNL     1      47.003   3.045  13.892  0.00  0.00    +0.000 HD
ENDBRANCH  18  21
ENDBRANCH   1  19
TORSDOF 6
ENDMDL
MODEL 7
REMARK VINA RESULT:    -6.862      4.185      7.838
REMARK INTER + INTRA:         -10.170
REMARK INTER:                  -9.239
REMARK INTRA:                  -0.930
REMARK UNBOUND:                -1.101
REMARK  Name = 
REMARK  6 active torsions:
REMARK  status: ('A' for Active; 'I' for Inactive)
REMARK    1  A    between atoms: C_2  and  C_19
REMARK    2  A    between atoms: N_3  and  C_4
REMARK    3  A    between atoms: C_4  and  C_5
REMARK    4  A    between atoms: C_9  and  C_10
REMARK    5  A    between atoms: C_10  and  N_11
REMARK    6  A    between atoms: C_14  and  O_15
REMARK                            x       y       z     vdW  Elec       q    Type
REMARK                         _______ _______ _______ _____ _____    ______ ____
ROOT
ATOM      1  C   UNL     1      47.150   3.489  16.879  0.00  0.00    +0.000 C 
ENDROOT
BRANCH   1   2
ATOM      2  C   UNL     1      48.620   3.491  17.216  0.00  0.00    +0.000 A 
ATOM      3  C   UNL     1      49.387   2.344  16.979  0.00  0.00    +0.000 A 
ATOM      4  C   UNL     1      50.749   2.333  17.272  0.00  0.00    +0.000 A 
ATOM      5  C   UNL     1      51.359   3.474  17.797  0.00  0.00    +0.000 A 
ATOM      6  C   UNL     1      50.613   4.635  18.059  0.00  0.00    +0.000 A 
ATOM      7  C   UNL     1      49.235   4.622  17.784  0.00  0.00    +0.000 A 
BRANCH   6   8
ATOM      8  C   UNL     1      51.306   5.889  18.570  0.00  0.00    +0.000 C 
BRANCH   8   9
ATOM      9  N   UNL     1      51.602   6.957  17.596  0.00  0.00    +0.000 NA
ATOM     10  C   UNL     1      50.502   7.910  17.443  0.00  0.00    +0.000 C 
ATOM     11  C   UNL     1      50.807   9.028  16.445  0.00  0.00    +0.000 C 
ATOM     12  C   UNL     1      51.304   8.478  15.112  0.00  0.00    +0.000 C 
ATOM     13  C   UNL     1      52.486   7.544  15.338  0.00  0.00    +0.000 C 
ATOM     14  C   UNL     1      52.153   6.441  16.344  0.00  0.00    +0.000 C 
BRANCH  12  15
ATOM     15  O   UNL     1      50.263   7.797  14.409  0.00  0.00    +0.000 OA
ATOM     16  H   UNL     1      49.916   7.092  14.985  0.00  0.00    +0.000 HD
ENDBRANCH  12  15
ENDBRANCH   8   9
ENDBRANCH   6   8
ENDBRANCH   1   2
BRANCH   1  19
ATOM     17  O   UNL     1      47.287   3.118  14.087  0.00  0.00    +0.000 OA
ATOM     18  C   UNL     1      46.872   4.184  14.529  0.00  0.00    +0.000 C 
ATOM     19  N   UNL     1      46.851   4.472  15.869  0.00  0.00    +0.000 N 
ATOM     20  H   UNL     1      46.333   5.281  16.188  0.00  0.00    +0.000 HD
BRANCH  18  21
ATOM     21  C   UNL     1      46.413   5.255  13.636  0.00  0.00    +0.000 A 
ATOM     22  C   UNL     1      47.255   6.320  13.345  0.00  0.00    +0.000 A 
ATOM     23  S   UNL     1      46.554   7.480  12.310  0.00  0.00    +0.000 S 
ATOM     24  C   UNL     1      45.120   6.573  12.173  0.00  0.00    +0.000 A 
ATOM     25  N   UNL     1      44.097   7.000  11.387  0.00  0.00    +0.000 NA
ATOM     26  C   UNL     1      43.094   6.187  11.328  0.00  0.00    +0.000 A 
ATOM     27  N   UNL     1      43.015   4.995  11.998  0.00  0.00    +0.000 N 
ATOM     28  C   UNL     1      43.987   4.562  12.867  0.00  0.00    +0.000 A 
ATOM     29  O   UNL     1      43.823   3.558  13.552  0.00  0.00    +0.000 OA
ATOM     30  C   UNL     1      45.163   5.414  12.928  0.00  0.00    +0.000 A 
ATOM     31  H   UNL     1      42.192   4.413  11.923  0.00  0.00    +0.000 HD
ENDBRANCH  18  21
ENDBRANCH   1  19
TORSDOF 6
ENDMDL
MODEL 8
REMARK VINA RESULT:    -6.855      4.381      8.475
REMARK INTER + INTRA:         -10.159
REMARK INTER:                  -9.275
REMARK INTRA:                  -0.885
REMARK UNBOUND:                -1.101
REMARK  Name = 
REMARK  6 active torsions:
REMARK  status: ('A' for Active; 'I' for Inactive)
REMARK    1  A    between atoms: C_2  and  C_19
REMARK    2  A    between atoms: N_3  and  C_4
REMARK    3  A    between atoms: C_4  and  C_5
REMARK    4  A    between atoms: C_9  and  C_10
REMARK    5  A    between atoms: C_10  and  N_11
REMARK    6  A    between atoms: C_14  and  O_15
REMARK                            x       y       z     vdW  Elec       q    Type
REMARK                         _______ _______ _______ _____ _____    ______ ____
ROOT
ATOM      1  C   UNL     1      47.139   3.496  16.774  0.00  0.00    +0.000 C 
ENDROOT
BRANCH   1   2
ATOM      2  C   UNL     1      48.396   3.910  17.497  0.00  0.00    +0.000 A 
ATOM      3  C   UNL     1      49.590   3.219  17.261  0.00  0.00    +0.000 A 
ATOM      4  C   UNL     1      50.764   3.596  17.910  0.00  0.00    +0.000 A 
ATOM      5  C   UNL     1      50.755   4.675  18.796  0.00  0.00    +0.000 A 
ATOM      6  C   UNL     1      49.570   5.379  19.065  0.00  0.00    +0.000 A 
ATOM      7  C   UNL     1      48.388   4.969  18.423  0.00  0.00    +0.000 A 
BRANCH   6   8
ATOM      8  C   UNL     1      49.592   6.591  19.983  0.00  0.00    +0.000 C 
BRANCH   8   9
ATOM      9  N   UNL     1      49.300   7.910  19.388  0.00  0.00    +0.000 NA
ATOM     10  C   UNL     1      47.869   8.216  19.355  0.00  0.00    +0.000 C 
ATOM     11  C   UNL     1      47.559   9.587  18.752  0.00  0.00    +0.000 C 
ATOM     12  C   UNL     1      48.238   9.778  17.399  0.00  0.00    +0.000 C 
ATOM     13  C   UNL     1      49.731   9.505  17.518  0.00  0.00    +0.000 C 
ATOM     14  C   UNL     1      50.010   8.130  18.129  0.00  0.00    +0.000 C 
BRANCH  12  15
ATOM     15  O   UNL     1      47.659   8.934  16.402  0.00  0.00    +0.000 OA
ATOM     16  H   UNL     1      47.618   8.027  16.756  0.00  0.00    +0.000 HD
ENDBRANCH  12  15
ENDBRANCH   8   9
ENDBRANCH   6   8
ENDBRANCH   1   2
BRANCH   1  19
ATOM     17  O   UNL     1      47.279   3.184  13.975  0.00  0.00    +0.000 OA
ATOM     18  C   UNL     1      46.797   4.212  14.440  0.00  0.00    +0.000 C 
ATOM     19  N   UNL     1      46.767   4.474  15.785  0.00  0.00    +0.000 N 
ATOM     20  H   UNL     1      46.199   5.241  16.122  0.00  0.00    +0.000 HD
BRANCH  18  21
ATOM     21  C   UNL     1      46.260   5.266  13.570  0.00  0.00    +0.000 A 
ATOM     22  C   UNL     1      47.032   6.383  13.281  0.00  0.00    +0.000 A 
ATOM     23  S   UNL     1      46.247   7.513  12.274  0.00  0.00    +0.000 S 
ATOM     24  C   UNL     1      44.867   6.524  12.145  0.00  0.00    +0.000 A 
ATOM     25  N   UNL     1      43.808   6.899  11.381  0.00  0.00    +0.000 NA
ATOM     26  C   UNL     1      42.855   6.029  11.326  0.00  0.00    +0.000 A 
ATOM     27  N   UNL     1      42.858   4.825  11.980  0.00  0.00    +0.000 N 
ATOM     28  C   UNL     1      43.868   4.439  12.827  0.00  0.00    +0.000 A 
ATOM     29  O   UNL     1      43.776   3.418  13.500  0.00  0.00    +0.000 OA
ATOM     30  C   UNL     1      44.992   5.360  12.883  0.00  0.00    +0.000 A 
ATOM     31  H   UNL     1      42.070   4.196  11.909  0.00  0.00    +0.000 HD
ENDBRANCH  18  21
ENDBRANCH   1  19
TORSDOF 6
ENDMDL
MODEL 9
REMARK VINA RESULT:    -6.709      2.855      3.475
REMARK INTER + INTRA:          -9.967
REMARK INTER:                  -9.004
REMARK INTRA:                  -0.963
REMARK UNBOUND:                -1.101
REMARK  Name = 
REMARK  6 active torsions:
REMARK  status: ('A' for Active; 'I' for Inactive)
REMARK    1  A    between atoms: C_2  and  C_19
REMARK    2  A    between atoms: N_3  and  C_4
REMARK    3  A    between atoms: C_4  and  C_5
REMARK    4  A    between atoms: C_9  and  C_10
REMARK    5  A    between atoms: C_10  and  N_11
REMARK    6  A    between atoms: C_14  and  O_15
REMARK                            x       y       z     vdW  Elec       q    Type
REMARK                         _______ _______ _______ _____ _____    ______ ____
ROOT
ATOM      1  C   UNL     1      46.612   3.768  14.232  0.00  0.00    +0.000 C 
ENDROOT
BRANCH   1   2
ATOM      2  C   UNL     1      45.686   4.249  13.143  0.00  0.00    +0.000 A 
ATOM      3  C   UNL     1      45.025   5.474  13.287  0.00  0.00    +0.000 A 
ATOM      4  C   UNL     1      44.176   5.940  12.285  0.00  0.00    +0.000 A 
ATOM      5  C   UNL     1      43.989   5.187  11.124  0.00  0.00    +0.000 A 
ATOM      6  C   UNL     1      44.627   3.948  10.957  0.00  0.00    +0.000 A 
ATOM      7  C   UNL     1      45.458   3.478  11.988  0.00  0.00    +0.000 A 
BRANCH   6   8
ATOM      8  C   UNL     1      44.462   3.172   9.659  0.00  0.00    +0.000 C 
BRANCH   8   9
ATOM      9  N   UNL     1      45.673   2.902   8.859  0.00  0.00    +0.000 NA
ATOM     10  C   UNL     1      45.968   3.963   7.896  0.00  0.00    +0.000 C 
ATOM     11  C   UNL     1      47.229   3.696   7.072  0.00  0.00    +0.000 C 
ATOM     12  C   UNL     1      47.209   2.309   6.439  0.00  0.00    +0.000 C 
ATOM     13  C   UNL     1      46.960   1.249   7.503  0.00  0.00    +0.000 C 
ATOM     14  C   UNL     1      45.696   1.545   8.313  0.00  0.00    +0.000 C 
BRANCH  12  15
ATOM     15  O   UNL     1      46.220   2.220   5.411  0.00  0.00    +0.000 OA
ATOM     16  H   UNL     1      45.596   2.959   5.523  0.00  0.00    +0.000 HD
ENDBRANCH  12  15
ENDBRANCH   8   9
ENDBRANCH   6   8
ENDBRANCH   1   2
BRANCH   1  19
ATOM     17  O   UNL     1      48.375   3.609  16.427  0.00  0.00    +0.000 OA
ATOM     18  C   UNL     1      47.987   4.709  16.049  0.00  0.00    +0.000 C 
ATOM     19  N   UNL     1      47.069   4.866  15.043  0.00  0.00    +0.000 N 
ATOM     20  H   UNL     1      46.926   5.788  14.650  0.00  0.00    +0.000 HD
BRANCH  18  21
ATOM     21  C   UNL     1      48.450   5.945  16.693  0.00  0.00    +0.000 A 
ATOM     22  C   UNL     1      48.289   6.113  18.061  0.00  0.00    +0.000 A 
ATOM     23  S   UNL     1      48.864   7.612  18.637  0.00  0.00    +0.000 S 
ATOM     24  C   UNL     1      49.396   8.067  17.085  0.00  0.00    +0.000 A 
ATOM     25  N   UNL     1      50.023   9.256  16.883  0.00  0.00    +0.000 NA
ATOM     26  C   UNL     1      50.425   9.447  15.670  0.00  0.00    +0.000 A 
ATOM     27  N   UNL     1      50.242   8.566  14.638  0.00  0.00    +0.000 N 
ATOM     28  C   UNL     1      49.542   7.392  14.776  0.00  0.00    +0.000 A 
ATOM     29  O   UNL     1      49.280   6.692  13.803  0.00  0.00    +0.000 OA
ATOM     30  C   UNL     1      49.114   7.102  16.135  0.00  0.00    +0.000 A 
ATOM     31  H   UNL     1      50.566   8.785  13.707  0.00  0.00    +0.000 HD
ENDBRANCH  18  21
ENDBRANCH   1  19
TORSDOF 6
ENDMDL
