MODEL 1
REMARK VINA RESULT:    -8.669      0.000      0.000
REMARK INTER + INTRA:         -13.475
REMARK INTER:                 -12.217
REMARK INTRA:                  -1.258
REMARK UNBOUND:                -1.258
REMARK  Name = 
REMARK  8 active torsions:
REMARK  status: ('A' for Active; 'I' for Inactive)
REMARK    1  A    between atoms: C_1  and  O_2
REMARK    2  A    between atoms: O_2  and  C_3
REMARK    3  A    between atoms: C_5  and  C_6
REMARK    4  A    between atoms: C_6  and  C_7
REMARK    5  A    between atoms: C_7  and  N_8
REMARK    6  A    between atoms: N_8  and  C_9
REMARK    7  A    between atoms: C_12  and  C_13
REMARK    8  A    between atoms: C_19  and  C_20
REMARK                            x       y       z     vdW  Elec       q    Type
REMARK                         _______ _______ _______ _____ _____    ______ ____
ROOT
ATOM      1  C   UNL     1      46.694   4.323  13.791  0.00  0.00    +0.000 A 
ATOM      2  C   UNL     1      45.353   4.234  13.442  0.00  0.00    +0.000 A 
ATOM      3  C   UNL     1      44.776   5.294  12.751  0.00  0.00    +0.000 A 
ATOM      4  N   UNL     1      45.469   6.414  12.423  0.00  0.00    +0.000 NA
ATOM      5  C   UNL     1      46.778   6.504  12.781  0.00  0.00    +0.000 A 
ATOM      6  C   UNL     1      47.410   5.472  13.469  0.00  0.00    +0.000 A 
ENDROOT
BRANCH   5   7
ATOM      7  C   UNL     1      47.492   7.733  12.363  0.00  0.00    +0.000 A 
ATOM      8  C   UNL     1      46.825   8.972  12.321  0.00  0.00    +0.000 A 
ATOM      9  C   UNL     1      47.466  10.137  11.884  0.00  0.00    +0.000 A 
ATOM     10  C   UNL     1      48.797  10.090  11.481  0.00  0.00    +0.000 A 
ATOM     11  C   UNL     1      49.482   8.881  11.529  0.00  0.00    +0.000 A 
ATOM     12 CL   UNL     1      51.130   8.814  11.035  0.00  0.00    +0.000 Cl
ATOM     13  C   UNL     1      48.844   7.717  11.970  0.00  0.00    +0.000 A 
ENDBRANCH   5   7
BRANCH   1  15
ATOM     14  C   UNL     1      47.595   3.625  15.862  0.00  0.00    +0.000 C 
ATOM     15  O   UNL     1      47.399   3.372  14.475  0.00  0.00    +0.000 OA
ENDBRANCH   1  15
BRANCH   3  16
ATOM     16  C   UNL     1      43.314   5.247  12.367  0.00  0.00    +0.000 C 
BRANCH  16  17
ATOM     17  C   UNL     1      43.111   4.416  11.098  0.00  0.00    +0.000 C 
BRANCH  17  18
ATOM     18  N   UNL     1      43.874   4.966   9.966  0.00  0.00    +0.000 N 
ATOM     19  H   UNL     1      44.311   5.861  10.174  0.00  0.00    +0.000 HD
BRANCH  18  20
ATOM     20  C   UNL     1      44.752   4.100   9.291  0.00  0.00    +0.000 A 
ATOM     21  C   UNL     1      44.724   2.711   9.448  0.00  0.00    +0.000 A 
ATOM     22  C   UNL     1      45.568   1.889   8.702  0.00  0.00    +0.000 A 
ATOM     23  C   UNL     1      46.417   2.476   7.781  0.00  0.00    +0.000 A 
ATOM     24  N   UNL     1      46.465   3.816   7.551  0.00  0.00    +0.000 NA
ATOM     25  C   UNL     1      45.618   4.576   8.297  0.00  0.00    +0.000 A 
BRANCH  23  26
ATOM     26  C   UNL     1      47.326   1.605   6.969  0.00  0.00    +0.000 C 
ATOM     27  N   UNL     1      48.480   2.200   6.536  0.00  0.00    +0.000 N 
ATOM     28  O   UNL     1      47.064   0.439   6.702  0.00  0.00    +0.000 OA
ATOM     29  H   UNL     1      48.654   3.175   6.754  0.00  0.00    +0.000 HD
ATOM     30  H   UNL     1      49.121   1.676   5.959  0.00  0.00    +0.000 HD
ENDBRANCH  23  26
ENDBRANCH  18  20
ENDBRANCH  17  18
ENDBRANCH  16  17
ENDBRANCH   3  16
TORSDOF 7
ENDMDL
MODEL 2
REMARK VINA RESULT:    -8.379      2.446      3.003
REMARK INTER + INTRA:         -13.066
REMARK INTER:                 -11.834
REMARK INTRA:                  -1.232
REMARK UNBOUND:                -1.258
REMARK  Name = 
REMARK  8 active torsions:
REMARK  status: ('A' for Active; 'I' for Inactive)
REMARK    1  A    between atoms: C_1  and  O_2
REMARK    2  A    between atoms: O_2  and  C_3
REMARK    3  A    between atoms: C_5  and  C_6
REMARK    4  A    between atoms: C_6  and  C_7
REMARK    5  A    between atoms: C_7  and  N_8
REMARK    6  A    between atoms: N_8  and  C_9
REMARK    7  A    between atoms: C_12  and  C_13
REMARK    8  A    between atoms: C_19  and  C_20
REMARK                            x       y       z     vdW  Elec       q    Type
REMARK                         _______ _______ _______ _____ _____    ______ ____
ROOT
ATOM      1  C   UNL     1      46.834   5.929  13.293  0.00  0.00    +0.000 A 
ATOM      2  C   UNL     1      45.781   5.023  13.319  0.00  0.00    +0.000 A 
ATOM      3  C   UNL     1      44.546   5.428  12.825  0.00  0.00    +0.000 A 
ATOM      4  N   UNL     1      44.329   6.676  12.338  0.00  0.00    +0.000 NA
ATOM      5  C   UNL     1      45.359   7.565  12.329  0.00  0.00    +0.000 A 
ATOM      6  C   UNL     1      46.618   7.214  12.806  0.00  0.00    +0.000 A 
ENDROOT
BRANCH   5   7
ATOM      7  C   UNL     1      45.072   8.898  11.751  0.00  0.00    +0.000 A 
ATOM      8  C   UNL     1      45.969   9.969  11.930  0.00  0.00    +0.000 A 
ATOM      9  C   UNL     1      45.695  11.248  11.433  0.00  0.00    +0.000 A 
ATOM     10  C   UNL     1      44.514  11.487  10.738  0.00  0.00    +0.000 A 
ATOM     11  C   UNL     1      43.620  10.441  10.533  0.00  0.00    +0.000 A 
ATOM     12 CL   UNL     1      42.157  10.727   9.670  0.00  0.00    +0.000 Cl
ATOM     13  C   UNL     1      43.894   9.162  11.025  0.00  0.00    +0.000 A 
ENDBRANCH   5   7
BRANCH   1  15
ATOM     14  C   UNL     1      48.713   6.745  14.470  0.00  0.00    +0.000 C 
ATOM     15  O   UNL     1      48.100   5.684  13.747  0.00  0.00    +0.000 OA
ENDBRANCH   1  15
BRANCH   3  16
ATOM     16  C   UNL     1      43.368   4.480  12.850  0.00  0.00    +0.000 C 
BRANCH  16  17
ATOM     17  C   UNL     1      43.313   3.646  11.568  0.00  0.00    +0.000 C 
BRANCH  17  18
ATOM     18  N   UNL     1      43.749   4.425  10.398  0.00  0.00    +0.000 N 
ATOM     19  H   UNL     1      44.076   5.359  10.638  0.00  0.00    +0.000 HD
BRANCH  18  20
ATOM     20  C   UNL     1      44.603   3.793   9.477  0.00  0.00    +0.000 A 
ATOM     21  C   UNL     1      45.391   4.496   8.562  0.00  0.00    +0.000 A 
ATOM     22  C   UNL     1      46.276   3.827   7.716  0.00  0.00    +0.000 A 
ATOM     23  C   UNL     1      46.379   2.452   7.823  0.00  0.00    +0.000 A 
ATOM     24  N   UNL     1      45.671   1.713   8.719  0.00  0.00    +0.000 NA
ATOM     25  C   UNL     1      44.826   2.410   9.526  0.00  0.00    +0.000 A 
BRANCH  23  26
ATOM     26  C   UNL     1      47.329   1.720   6.925  0.00  0.00    +0.000 C 
ATOM     27  N   UNL     1      48.411   2.442   6.499  0.00  0.00    +0.000 N 
ATOM     28  O   UNL     1      47.159   0.556   6.586  0.00  0.00    +0.000 OA
ATOM     29  H   UNL     1      48.509   3.412   6.778  0.00  0.00    +0.000 HD
ATOM     30  H   UNL     1      49.074   2.016   5.868  0.00  0.00    +0.000 HD
ENDBRANCH  23  26
ENDBRANCH  18  20
ENDBRANCH  17  18
ENDBRANCH  16  17
ENDBRANCH   3  16
TORSDOF 7
ENDMDL
MODEL 3
REMARK VINA RESULT:    -8.090      2.523      4.450
REMARK INTER + INTRA:         -12.659
REMARK INTER:                 -11.822
REMARK INTRA:                  -0.837
REMARK UNBOUND:                -1.258
REMARK  Name = 
REMARK  8 active torsions:
REMARK  status: ('A' for Active; 'I' for Inactive)
REMARK    1  A    between atoms: C_1  and  O_2
REMARK    2  A    between atoms: O_2  and  C_3
REMARK    3  A    between atoms: C_5  and  C_6
REMARK    4  A    between atoms: C_6  and  C_7
REMARK    5  A    between atoms: C_7  and  N_8
REMARK    6  A    between atoms: N_8  and  C_9
REMARK    7  A    between atoms: C_12  and  C_13
REMARK    8  A    between atoms: C_19  and  C_20
REMARK                            x       y       z     vdW  Elec       q    Type
REMARK                         _______ _______ _______ _____ _____    ______ ____
ROOT
ATOM      1  C   UNL     1      46.969   6.130  12.565  0.00  0.00    +0.000 A 
ATOM      2  C   UNL     1      45.681   5.706  12.267  0.00  0.00    +0.000 A 
ATOM      3  C   UNL     1      45.052   4.830  13.146  0.00  0.00    +0.000 A 
ATOM      4  N   UNL     1      45.656   4.363  14.267  0.00  0.00    +0.000 NA
ATOM      5  C   UNL     1      46.925   4.768  14.546  0.00  0.00    +0.000 A 
ATOM      6  C   UNL     1      47.601   5.647  13.707  0.00  0.00    +0.000 A 
ENDROOT
BRANCH   5   7
ATOM      7  C   UNL     1      47.517   4.255  15.803  0.00  0.00    +0.000 A 
ATOM      8  C   UNL     1      48.067   2.960  15.863  0.00  0.00    +0.000 A 
ATOM      9  C   UNL     1      48.589   2.437  17.052  0.00  0.00    +0.000 A 
ATOM     10  C   UNL     1      48.578   3.204  18.213  0.00  0.00    +0.000 A 
ATOM     11  C   UNL     1      48.055   4.492  18.175  0.00  0.00    +0.000 A 
ATOM     12 CL   UNL     1      48.041   5.448  19.608  0.00  0.00    +0.000 Cl
ATOM     13  C   UNL     1      47.537   5.017  16.988  0.00  0.00    +0.000 A 
ENDBRANCH   5   7
BRANCH   1  15
ATOM     14  C   UNL     1      48.982   7.348  12.344  0.00  0.00    +0.000 C 
ATOM     15  O   UNL     1      47.720   6.980  11.801  0.00  0.00    +0.000 OA
ENDBRANCH   1  15
BRANCH   3  16
ATOM     16  C   UNL     1      43.655   4.330  12.852  0.00  0.00    +0.000 C 
BRANCH  16  17
ATOM     17  C   UNL     1      43.687   3.208  11.811  0.00  0.00    +0.000 C 
BRANCH  17  18
ATOM     18  N   UNL     1      43.592   3.739  10.442  0.00  0.00    +0.000 N 
ATOM     19  H   UNL     1      43.397   4.738  10.412  0.00  0.00    +0.000 HD
BRANCH  18  20
ATOM     20  C   UNL     1      44.600   3.376   9.532  0.00  0.00    +0.000 A 
ATOM     21  C   UNL     1      44.931   2.048   9.251  0.00  0.00    +0.000 A 
ATOM     22  C   UNL     1      45.889   1.737   8.286  0.00  0.00    +0.000 A 
ATOM     23  C   UNL     1      46.486   2.773   7.592  0.00  0.00    +0.000 A 
ATOM     24  N   UNL     1      46.181   4.084   7.787  0.00  0.00    +0.000 NA
ATOM     25  C   UNL     1      45.236   4.337   8.734  0.00  0.00    +0.000 A 
BRANCH  23  26
ATOM     26  C   UNL     1      47.514   2.454   6.549  0.00  0.00    +0.000 C 
ATOM     27  N   UNL     1      47.357   3.098   5.350  0.00  0.00    +0.000 N 
ATOM     28  O   UNL     1      48.436   1.672   6.742  0.00  0.00    +0.000 OA
ATOM     29  H   UNL     1      46.569   3.720   5.216  0.00  0.00    +0.000 HD
ATOM     30  H   UNL     1      47.999   2.904   4.596  0.00  0.00    +0.000 HD
ENDBRANCH  23  26
ENDBRANCH  18  20
ENDBRANCH  17  18
ENDBRANCH  16  17
ENDBRANCH   3  16
TORSDOF 7
ENDMDL
MODEL 4
REMARK VINA RESULT:    -7.354      1.755      2.137
REMARK INTER + INTRA:         -11.621
REMARK INTER:                 -10.746
REMARK INTRA:                  -0.875
REMARK UNBOUND:                -1.258
REMARK  Name = 
REMARK  8 active torsions:
REMARK  status: ('A' for Active; 'I' for Inactive)
REMARK    1  A    between atoms: C_1  and  O_2
REMARK    2  A    between atoms: O_2  and  C_3
REMARK    3  A    between atoms: C_5  and  C_6
REMARK    4  A    between atoms: C_6  and  C_7
REMARK    5  A    between atoms: C_7  and  N_8
REMARK    6  A    between atoms: N_8  and  C_9
REMARK    7  A    between atoms: C_12  and  C_13
REMARK    8  A    between atoms: C_19  and  C_20
REMARK                            x       y       z     vdW  Elec       q    Type
REMARK                         _______ _______ _______ _____ _____    ______ ____
ROOT
ATOM      1  C   UNL     1      46.953   4.801  14.004  0.00  0.00    +0.000 A 
ATOM      2  C   UNL     1      45.854   4.965  13.172  0.00  0.00    +0.000 A 
ATOM      3  C   UNL     1      45.736   6.151  12.455  0.00  0.00    +0.000 A 
ATOM      4  N   UNL     1      46.643   7.155  12.555  0.00  0.00    +0.000 NA
ATOM      5  C   UNL     1      47.709   6.997  13.385  0.00  0.00    +0.000 A 
ATOM      6  C   UNL     1      47.882   5.830  14.122  0.00  0.00    +0.000 A 
ENDROOT
BRANCH   5   7
ATOM      7  C   UNL     1      48.684   8.112  13.423  0.00  0.00    +0.000 A 
ATOM      8  C   UNL     1      50.066   7.857  13.515  0.00  0.00    +0.000 A 
ATOM      9  C   UNL     1      51.001   8.895  13.600  0.00  0.00    +0.000 A 
ATOM     10  C   UNL     1      50.574  10.219  13.589  0.00  0.00    +0.000 A 
ATOM     11  C   UNL     1      49.215  10.497  13.482  0.00  0.00    +0.000 A 
ATOM     12 CL   UNL     1      48.679  12.133  13.464  0.00  0.00    +0.000 Cl
ATOM     13  C   UNL     1      48.281   9.461  13.393  0.00  0.00    +0.000 A 
ENDBRANCH   5   7
BRANCH   1  15
ATOM     14  C   UNL     1      47.287   3.932  16.177  0.00  0.00    +0.000 C 
ATOM     15  O   UNL     1      47.205   3.700  14.775  0.00  0.00    +0.000 OA
ENDBRANCH   1  15
BRANCH   3  16
ATOM     16  C   UNL     1      44.546   6.379  11.550  0.00  0.00    +0.000 C 
BRANCH  16  17
ATOM     17  C   UNL     1      43.849   5.056  11.225  0.00  0.00    +0.000 C 
BRANCH  17  18
ATOM     18  N   UNL     1      43.663   4.886   9.775  0.00  0.00    +0.000 N 
ATOM     19  H   UNL     1      43.588   5.770   9.275  0.00  0.00    +0.000 HD
BRANCH  18  20
ATOM     20  C   UNL     1      44.509   3.980   9.112  0.00  0.00    +0.000 A 
ATOM     21  C   UNL     1      45.554   4.384   8.277  0.00  0.00    +0.000 A 
ATOM     22  C   UNL     1      46.411   3.447   7.698  0.00  0.00    +0.000 A 
ATOM     23  C   UNL     1      46.221   2.109   7.992  0.00  0.00    +0.000 A 
ATOM     24  N   UNL     1      45.249   1.653   8.827  0.00  0.00    +0.000 NA
ATOM     25  C   UNL     1      44.443   2.604   9.372  0.00  0.00    +0.000 A 
BRANCH  23  26
ATOM     26  C   UNL     1      47.137   1.092   7.381  0.00  0.00    +0.000 C 
ATOM     27  N   UNL     1      46.821  -0.215   7.638  0.00  0.00    +0.000 N 
ATOM     28  O   UNL     1      48.107   1.397   6.700  0.00  0.00    +0.000 OA
ATOM     29  H   UNL     1      46.024  -0.431   8.227  0.00  0.00    +0.000 HD
ATOM     30  H   UNL     1      47.415  -0.947   7.280  0.00  0.00    +0.000 HD
ENDBRANCH  23  26
ENDBRANCH  18  20
ENDBRANCH  17  18
ENDBRANCH  16  17
ENDBRANCH   3  16
TORSDOF 7
ENDMDL
MODEL 5
REMARK VINA RESULT:    -7.024      2.175      3.169
REMARK INTER + INTRA:         -11.156
REMARK INTER:                 -10.642
REMARK INTRA:                  -0.514
REMARK UNBOUND:                -1.258
REMARK  Name = 
REMARK  8 active torsions:
REMARK  status: ('A' for Active; 'I' for Inactive)
REMARK    1  A    between atoms: C_1  and  O_2
REMARK    2  A    between atoms: O_2  and  C_3
REMARK    3  A    between atoms: C_5  and  C_6
REMARK    4  A    between atoms: C_6  and  C_7
REMARK    5  A    between atoms: C_7  and  N_8
REMARK    6  A    between atoms: N_8  and  C_9
REMARK    7  A    between atoms: C_12  and  C_13
REMARK    8  A    between atoms: C_19  and  C_20
REMARK                            x       y       z     vdW  Elec       q    Type
REMARK                         _______ _______ _______ _____ _____    ______ ____
ROOT
ATOM      1  C   UNL     1      45.294   8.206  11.922  0.00  0.00    +0.000 A 
ATOM      2  C   UNL     1      44.767   6.937  11.720  0.00  0.00    +0.000 A 
ATOM      3  C   UNL     1      45.440   5.846  12.260  0.00  0.00    +0.000 A 
ATOM      4  N   UNL     1      46.596   5.976  12.957  0.00  0.00    +0.000 NA
ATOM      5  C   UNL     1      47.117   7.220  13.138  0.00  0.00    +0.000 A 
ATOM      6  C   UNL     1      46.485   8.348  12.626  0.00  0.00    +0.000 A 
ENDROOT
BRANCH   5   7
ATOM      7  C   UNL     1      48.361   7.301  13.940  0.00  0.00    +0.000 A 
ATOM      8  C   UNL     1      48.489   6.582  15.144  0.00  0.00    +0.000 A 
ATOM      9  C   UNL     1      49.636   6.681  15.940  0.00  0.00    +0.000 A 
ATOM     10  C   UNL     1      50.688   7.501  15.546  0.00  0.00    +0.000 A 
ATOM     11  C   UNL     1      50.593   8.208  14.352  0.00  0.00    +0.000 A 
ATOM     12 CL   UNL     1      51.892   9.222  13.855  0.00  0.00    +0.000 Cl
ATOM     13  C   UNL     1      49.450   8.107  13.554  0.00  0.00    +0.000 A 
ENDBRANCH   5   7
BRANCH   1  15
ATOM     14  C   UNL     1      45.435  10.563  11.827  0.00  0.00    +0.000 C 
ATOM     15  O   UNL     1      44.755   9.371  11.450  0.00  0.00    +0.000 OA
ENDBRANCH   1  15
BRANCH   3  16
ATOM     16  C   UNL     1      44.910   4.445  12.049  0.00  0.00    +0.000 C 
BRANCH  16  17
ATOM     17  C   UNL     1      43.523   4.479  11.405  0.00  0.00    +0.000 C 
BRANCH  17  18
ATOM     18  N   UNL     1      43.609   4.652   9.946  0.00  0.00    +0.000 N 
ATOM     19  H   UNL     1      43.606   5.628   9.658  0.00  0.00    +0.000 HD
BRANCH  18  20
ATOM     20  C   UNL     1      44.583   3.907   9.258  0.00  0.00    +0.000 A 
ATOM     21  C   UNL     1      44.635   2.511   9.287  0.00  0.00    +0.000 A 
ATOM     22  C   UNL     1      45.576   1.813   8.529  0.00  0.00    +0.000 A 
ATOM     23  C   UNL     1      46.441   2.533   7.726  0.00  0.00    +0.000 A 
ATOM     24  N   UNL     1      46.417   3.890   7.621  0.00  0.00    +0.000 NA
ATOM     25  C   UNL     1      45.477   4.525   8.373  0.00  0.00    +0.000 A 
BRANCH  23  26
ATOM     26  C   UNL     1      47.454   1.798   6.903  0.00  0.00    +0.000 C 
ATOM     27  N   UNL     1      48.484   2.559   6.417  0.00  0.00    +0.000 N 
ATOM     28  O   UNL     1      47.377   0.598   6.672  0.00  0.00    +0.000 OA
ATOM     29  H   UNL     1      48.504   3.554   6.607  0.00  0.00    +0.000 HD
ATOM     30  H   UNL     1      49.183   2.129   5.831  0.00  0.00    +0.000 HD
ENDBRANCH  23  26
ENDBRANCH  18  20
ENDBRANCH  17  18
ENDBRANCH  16  17
ENDBRANCH   3  16
TORSDOF 7
ENDMDL
MODEL 6
REMARK VINA RESULT:    -6.844      3.222      7.149
REMARK INTER + INTRA:         -10.902
REMARK INTER:                  -9.763
REMARK INTRA:                  -1.139
REMARK UNBOUND:                -1.258
REMARK  Name = 
REMARK  8 active torsions:
REMARK  status: ('A' for Active; 'I' for Inactive)
REMARK    1  A    between atoms: C_1  and  O_2
REMARK    2  A    between atoms: O_2  and  C_3
REMARK    3  A    between atoms: C_5  and  C_6
REMARK    4  A    between atoms: C_6  and  C_7
REMARK    5  A    between atoms: C_7  and  N_8
REMARK    6  A    between atoms: N_8  and  C_9
REMARK    7  A    between atoms: C_12  and  C_13
REMARK    8  A    between atoms: C_19  and  C_20
REMARK                            x       y       z     vdW  Elec       q    Type
REMARK                         _______ _______ _______ _____ _____    ______ ____
ROOT
ATOM      1  C   UNL     1      43.836   4.206  11.433  0.00  0.00    +0.000 A 
ATOM      2  C   UNL     1      44.231   5.522  11.635  0.00  0.00    +0.000 A 
ATOM      3  C   UNL     1      45.176   6.070  10.773  0.00  0.00    +0.000 A 
ATOM      4  N   UNL     1      45.734   5.362   9.760  0.00  0.00    +0.000 NA
ATOM      5  C   UNL     1      45.356   4.068   9.575  0.00  0.00    +0.000 A 
ATOM      6  C   UNL     1      44.412   3.469  10.403  0.00  0.00    +0.000 A 
ENDROOT
BRANCH   5   7
ATOM      7  C   UNL     1      45.972   3.360   8.430  0.00  0.00    +0.000 A 
ATOM      8  C   UNL     1      46.393   4.067   7.287  0.00  0.00    +0.000 A 
ATOM      9  C   UNL     1      46.934   3.413   6.175  0.00  0.00    +0.000 A 
ATOM     10  C   UNL     1      47.073   2.029   6.181  0.00  0.00    +0.000 A 
ATOM     11  C   UNL     1      46.681   1.309   7.305  0.00  0.00    +0.000 A 
ATOM     12 CL   UNL     1      46.854  -0.405   7.322  0.00  0.00    +0.000 Cl
ATOM     13  C   UNL     1      46.144   1.962   8.418  0.00  0.00    +0.000 A 
ENDBRANCH   5   7
BRANCH   1  15
ATOM     14  C   UNL     1      43.166   2.132  12.346  0.00  0.00    +0.000 C 
ATOM     15  O   UNL     1      42.927   3.527  12.196  0.00  0.00    +0.000 OA
ENDBRANCH   1  15
BRANCH   3  16
ATOM     16  C   UNL     1      45.648   7.493  10.968  0.00  0.00    +0.000 C 
BRANCH  16  17
ATOM     17  C   UNL     1      46.514   7.613  12.223  0.00  0.00    +0.000 C 
BRANCH  17  18
ATOM     18  N   UNL     1      47.486   6.512  12.316  0.00  0.00    +0.000 N 
ATOM     19  H   UNL     1      48.408   6.761  11.965  0.00  0.00    +0.000 HD
BRANCH  18  20
ATOM     20  C   UNL     1      47.560   5.810  13.532  0.00  0.00    +0.000 A 
ATOM     21  C   UNL     1      48.191   6.321  14.669  0.00  0.00    +0.000 A 
ATOM     22  C   UNL     1      48.177   5.618  15.874  0.00  0.00    +0.000 A 
ATOM     23  C   UNL     1      47.499   4.413  15.926  0.00  0.00    +0.000 A 
ATOM     24  N   UNL     1      46.831   3.879  14.868  0.00  0.00    +0.000 NA
ATOM     25  C   UNL     1      46.868   4.606  13.717  0.00  0.00    +0.000 A 
BRANCH  23  26
ATOM     26  C   UNL     1      47.470   3.648  17.214  0.00  0.00    +0.000 C 
ATOM     27  N   UNL     1      48.523   3.877  18.059  0.00  0.00    +0.000 N 
ATOM     28  O   UNL     1      46.572   2.868  17.502  0.00  0.00    +0.000 OA
ATOM     29  H   UNL     1      49.262   4.511  17.778  0.00  0.00    +0.000 HD
ATOM     30  H   UNL     1      48.578   3.370  18.930  0.00  0.00    +0.000 HD
ENDBRANCH  23  26
ENDBRANCH  18  20
ENDBRANCH  17  18
ENDBRANCH  16  17
ENDBRANCH   3  16
TORSDOF 7
ENDMDL
MODEL 7
REMARK VINA RESULT:    -6.834      2.811      3.802
REMARK INTER + INTRA:         -10.889
REMARK INTER:                 -10.383
REMARK INTRA:                  -0.505
REMARK UNBOUND:                -1.258
REMARK  Name = 
REMARK  8 active torsions:
REMARK  status: ('A' for Active; 'I' for Inactive)
REMARK    1  A    between atoms: C_1  and  O_2
REMARK    2  A    between atoms: O_2  and  C_3
REMARK    3  A    between atoms: C_5  and  C_6
REMARK    4  A    between atoms: C_6  and  C_7
REMARK    5  A    between atoms: C_7  and  N_8
REMARK    6  A    between atoms: N_8  and  C_9
REMARK    7  A    between atoms: C_12  and  C_13
REMARK    8  A    between atoms: C_19  and  C_20
REMARK                            x       y       z     vdW  Elec       q    Type
REMARK                         _______ _______ _______ _____ _____    ______ ____
ROOT
ATOM      1  C   UNL     1      45.637   7.619  12.465  0.00  0.00    +0.000 A 
ATOM      2  C   UNL     1      45.251   6.358  12.029  0.00  0.00    +0.000 A 
ATOM      3  C   UNL     1      45.959   5.252  12.488  0.00  0.00    +0.000 A 
ATOM      4  N   UNL     1      47.018   5.363  13.328  0.00  0.00    +0.000 NA
ATOM      5  C   UNL     1      47.403   6.602  13.739  0.00  0.00    +0.000 A 
ATOM      6  C   UNL     1      46.729   7.743  13.316  0.00  0.00    +0.000 A 
ENDROOT
BRANCH   5   7
ATOM      7  C   UNL     1      48.543   6.656  14.684  0.00  0.00    +0.000 A 
ATOM      8  C   UNL     1      49.719   7.355  14.354  0.00  0.00    +0.000 A 
ATOM      9  C   UNL     1      50.825   7.380  15.212  0.00  0.00    +0.000 A 
ATOM     10  C   UNL     1      50.778   6.706  16.428  0.00  0.00    +0.000 A 
ATOM     11  C   UNL     1      49.620   6.022  16.785  0.00  0.00    +0.000 A 
ATOM     12 CL   UNL     1      49.552   5.189  18.290  0.00  0.00    +0.000 Cl
ATOM     13  C   UNL     1      48.514   6.000  15.931  0.00  0.00    +0.000 A 
ENDBRANCH   5   7
BRANCH   1  15
ATOM     14  C   UNL     1      44.087   8.710  11.053  0.00  0.00    +0.000 C 
ATOM     15  O   UNL     1      45.048   8.797  12.099  0.00  0.00    +0.000 OA
ENDBRANCH   1  15
BRANCH   3  16
ATOM     16  C   UNL     1      45.583   3.862  12.025  0.00  0.00    +0.000 C 
BRANCH  16  17
ATOM     17  C   UNL     1      44.063   3.698  11.972  0.00  0.00    +0.000 C 
BRANCH  17  18
ATOM     18  N   UNL     1      43.566   3.717  10.587  0.00  0.00    +0.000 N 
ATOM     19  H   UNL     1      43.016   4.546  10.370  0.00  0.00    +0.000 HD
BRANCH  18  20
ATOM     20  C   UNL     1      44.481   3.415   9.563  0.00  0.00    +0.000 A 
ATOM     21  C   UNL     1      45.101   4.393   8.781  0.00  0.00    +0.000 A 
ATOM     22  C   UNL     1      46.056   4.047   7.825  0.00  0.00    +0.000 A 
ATOM     23  C   UNL     1      46.397   2.714   7.686  0.00  0.00    +0.000 A 
ATOM     24  N   UNL     1      45.861   1.717   8.442  0.00  0.00    +0.000 NA
ATOM     25  C   UNL     1      44.939   2.105   9.365  0.00  0.00    +0.000 A 
BRANCH  23  26
ATOM     26  C   UNL     1      47.425   2.327   6.667  0.00  0.00    +0.000 C 
ATOM     27  N   UNL     1      47.481   3.123   5.554  0.00  0.00    +0.000 N 
ATOM     28  O   UNL     1      48.170   1.365   6.807  0.00  0.00    +0.000 OA
ATOM     29  H   UNL     1      46.833   3.896   5.459  0.00  0.00    +0.000 HD
ATOM     30  H   UNL     1      48.132   2.898   4.817  0.00  0.00    +0.000 HD
ENDBRANCH  23  26
ENDBRANCH  18  20
ENDBRANCH  17  18
ENDBRANCH  16  17
ENDBRANCH   3  16
TORSDOF 7
ENDMDL
MODEL 8
REMARK VINA RESULT:    -6.785      3.860      7.562
REMARK INTER + INTRA:         -10.820
REMARK INTER:                  -9.371
REMARK INTRA:                  -1.448
REMARK UNBOUND:                -1.258
REMARK  Name = 
REMARK  8 active torsions:
REMARK  status: ('A' for Active; 'I' for Inactive)
REMARK    1  A    between atoms: C_1  and  O_2
REMARK    2  A    between atoms: O_2  and  C_3
REMARK    3  A    between atoms: C_5  and  C_6
REMARK    4  A    between atoms: C_6  and  C_7
REMARK    5  A    between atoms: C_7  and  N_8
REMARK    6  A    between atoms: N_8  and  C_9
REMARK    7  A    between atoms: C_12  and  C_13
REMARK    8  A    between atoms: C_19  and  C_20
REMARK                            x       y       z     vdW  Elec       q    Type
REMARK                         _______ _______ _______ _____ _____    ______ ____
ROOT
ATOM      1  C   UNL     1      45.411   9.490  12.026  0.00  0.00    +0.000 A 
ATOM      2  C   UNL     1      46.798   9.490  11.964  0.00  0.00    +0.000 A 
ATOM      3  C   UNL     1      47.457   8.271  11.851  0.00  0.00    +0.000 A 
ATOM      4  N   UNL     1      46.796   7.086  11.818  0.00  0.00    +0.000 NA
ATOM      5  C   UNL     1      45.438   7.090  11.896  0.00  0.00    +0.000 A 
ATOM      6  C   UNL     1      44.726   8.280  12.005  0.00  0.00    +0.000 A 
ENDROOT
BRANCH   5   7
ATOM      7  C   UNL     1      44.771   5.769  11.817  0.00  0.00    +0.000 A 
ATOM      8  C   UNL     1      44.017   5.277  12.899  0.00  0.00    +0.000 A 
ATOM      9  C   UNL     1      43.419   4.012  12.865  0.00  0.00    +0.000 A 
ATOM     10  C   UNL     1      43.557   3.208  11.738  0.00  0.00    +0.000 A 
ATOM     11  C   UNL     1      44.282   3.679  10.648  0.00  0.00    +0.000 A 
ATOM     12 CL   UNL     1      44.455   2.691   9.248  0.00  0.00    +0.000 Cl
ATOM     13  C   UNL     1      44.877   4.943  10.680  0.00  0.00    +0.000 A 
ENDBRANCH   5   7
BRANCH   1  15
ATOM     14  C   UNL     1      43.544  10.697  11.222  0.00  0.00    +0.000 C 
ATOM     15  O   UNL     1      44.623  10.602  12.146  0.00  0.00    +0.000 OA
ENDBRANCH   1  15
BRANCH   3  16
ATOM     16  C   UNL     1      48.967   8.224  11.798  0.00  0.00    +0.000 C 
BRANCH  16  17
ATOM     17  C   UNL     1      49.518   7.234  12.826  0.00  0.00    +0.000 C 
BRANCH  17  18
ATOM     18  N   UNL     1      49.145   7.616  14.197  0.00  0.00    +0.000 N 
ATOM     19  H   UNL     1      48.575   8.459  14.237  0.00  0.00    +0.000 HD
BRANCH  18  20
ATOM     20  C   UNL     1      48.648   6.608  15.042  0.00  0.00    +0.000 A 
ATOM     21  C   UNL     1      47.691   5.675  14.634  0.00  0.00    +0.000 A 
ATOM     22  C   UNL     1      47.282   4.649  15.486  0.00  0.00    +0.000 A 
ATOM     23  C   UNL     1      47.865   4.558  16.736  0.00  0.00    +0.000 A 
ATOM     24  N   UNL     1      48.830   5.409  17.180  0.00  0.00    +0.000 NA
ATOM     25  C   UNL     1      49.201   6.388  16.311  0.00  0.00    +0.000 A 
BRANCH  23  26
ATOM     26  C   UNL     1      47.439   3.459  17.661  0.00  0.00    +0.000 C 
ATOM     27  N   UNL     1      48.210   3.298  18.780  0.00  0.00    +0.000 N 
ATOM     28  O   UNL     1      46.470   2.744  17.440  0.00  0.00    +0.000 OA
ATOM     29  H   UNL     1      49.020   3.892  18.920  0.00  0.00    +0.000 HD
ATOM     30  H   UNL     1      47.994   2.556  19.428  0.00  0.00    +0.000 HD
ENDBRANCH  23  26
ENDBRANCH  18  20
ENDBRANCH  17  18
ENDBRANCH  16  17
ENDBRANCH   3  16
TORSDOF 7
ENDMDL
MODEL 9
REMARK VINA RESULT:    -6.287      3.684      6.104
REMARK INTER + INTRA:         -10.117
REMARK INTER:                  -8.855
REMARK INTRA:                  -1.263
REMARK UNBOUND:                -1.258
REMARK  Name = 
REMARK  8 active torsions:
REMARK  status: ('A' for Active; 'I' for Inactive)
REMARK    1  A    between atoms: C_1  and  O_2
REMARK    2  A    between atoms: O_2  and  C_3
REMARK    3  A    between atoms: C_5  and  C_6
REMARK    4  A    between atoms: C_6  and  C_7
REMARK    5  A    between atoms: C_7  and  N_8
REMARK    6  A    between atoms: N_8  and  C_9
REMARK    7  A    between atoms: C_12  and  C_13
REMARK    8  A    between atoms: C_19  and  C_20
REMARK                            x       y       z     vdW  Elec       q    Type
REMARK                         _______ _______ _______ _____ _____    ______ ____
ROOT
ATOM      1  C   UNL     1      51.345   8.183  14.359  0.00  0.00    +0.000 A 
ATOM      2  C   UNL     1      50.526   8.182  13.237  0.00  0.00    +0.000 A 
ATOM      3  C   UNL     1      49.309   7.513  13.306  0.00  0.00    +0.000 A 
ATOM      4  N   UNL     1      48.904   6.849  14.418  0.00  0.00    +0.000 NA
ATOM      5  C   UNL     1      49.717   6.839  15.509  0.00  0.00    +0.000 A 
ATOM      6  C   UNL     1      50.943   7.495  15.499  0.00  0.00    +0.000 A 
ENDROOT
BRANCH   5   7
ATOM      7  C   UNL     1      49.204   6.130  16.704  0.00  0.00    +0.000 A 
ATOM      8  C   UNL     1      49.483   6.608  17.999  0.00  0.00    +0.000 A 
ATOM      9  C   UNL     1      49.048   5.928  19.143  0.00  0.00    +0.000 A 
ATOM     10  C   UNL     1      48.317   4.751  19.017  0.00  0.00    +0.000 A 
ATOM     11  C   UNL     1      48.014   4.268  17.749  0.00  0.00    +0.000 A 
ATOM     12 CL   UNL     1      47.106   2.814  17.585  0.00  0.00    +0.000 Cl
ATOM     13  C   UNL     1      48.444   4.948  16.606  0.00  0.00    +0.000 A 
ENDBRANCH   5   7
BRANCH   1  15
ATOM     14  C   UNL     1      52.792   9.567  15.615  0.00  0.00    +0.000 C 
ATOM     15  O   UNL     1      52.569   8.787  14.445  0.00  0.00    +0.000 OA
ENDBRANCH   1  15
BRANCH   3  16
ATOM     16  C   UNL     1      48.394   7.472  12.102  0.00  0.00    +0.000 C 
BRANCH  16  17
ATOM     17  C   UNL     1      47.104   8.248  12.372  0.00  0.00    +0.000 C 
BRANCH  17  18
ATOM     18  N   UNL     1      46.191   7.492  13.244  0.00  0.00    +0.000 N 
ATOM     19  H   UNL     1      45.538   8.087  13.752  0.00  0.00    +0.000 HD
BRANCH  18  20
ATOM     20  C   UNL     1      45.554   6.364  12.698  0.00  0.00    +0.000 A 
ATOM     21  C   UNL     1      44.886   6.386  11.471  0.00  0.00    +0.000 A 
ATOM     22  C   UNL     1      44.331   5.222  10.937  0.00  0.00    +0.000 A 
ATOM     23  C   UNL     1      44.482   4.038  11.636  0.00  0.00    +0.000 A 
ATOM     24  N   UNL     1      45.155   3.941  12.815  0.00  0.00    +0.000 NA
ATOM     25  C   UNL     1      45.683   5.101  13.292  0.00  0.00    +0.000 A 
BRANCH  23  26
ATOM     26  C   UNL     1      43.896   2.779  11.073  0.00  0.00    +0.000 C 
ATOM     27  N   UNL     1      44.576   2.233  10.018  0.00  0.00    +0.000 N 
ATOM     28  O   UNL     1      42.877   2.266  11.516  0.00  0.00    +0.000 OA
ATOM     29  H   UNL     1      45.403   2.699   9.661  0.00  0.00    +0.000 HD
ATOM     30  H   UNL     1      44.217   1.402   9.575  0.00  0.00    +0.000 HD
ENDBRANCH  23  26
ENDBRANCH  18  20
ENDBRANCH  17  18
ENDBRANCH  16  17
ENDBRANCH   3  16
TORSDOF 7
ENDMDL
