MODEL 1
REMARK VINA RESULT:    -8.320      0.000      0.000
REMARK INTER + INTRA:         -13.303
REMARK INTER:                 -11.724
REMARK INTRA:                  -1.579
REMARK UNBOUND:                -1.579
REMARK  Name = 
REMARK  7 active torsions:
REMARK  status: ('A' for Active; 'I' for Inactive)
REMARK    1  A    between atoms: C_2  and  C_4
REMARK    2  A    between atoms: C_4  and  N_5
REMARK    3  A    between atoms: C_4  and  C_18
REMARK    4  A    between atoms: C_6  and  C_8
REMARK    5  A    between atoms: C_21  and  C_22
REMARK    6  A    between atoms: C_22  and  N_23
REMARK    7  A    between atoms: C_24  and  C_26
REMARK                            x       y       z     vdW  Elec       q    Type
REMARK                         _______ _______ _______ _____ _____    ______ ____
ROOT
ATOM      1  C   UNL     1      48.361   6.893  14.598  0.00  0.00    +0.000 C 
ENDROOT
BRANCH   1   2
ATOM      2  C   UNL     1      47.325   6.096  13.814  0.00  0.00    +0.000 A 
ATOM      3  C   UNL     1      46.756   6.631  12.647  0.00  0.00    +0.000 A 
ATOM      4  C   UNL     1      45.850   5.883  11.882  0.00  0.00    +0.000 A 
ATOM      5  C   UNL     1      45.484   4.586  12.267  0.00  0.00    +0.000 A 
ATOM      6  C   UNL     1      46.045   4.052  13.433  0.00  0.00    +0.000 A 
ATOM      7  C   UNL     1      46.947   4.799  14.198  0.00  0.00    +0.000 A 
BRANCH   5   8
ATOM      8  C   UNL     1      44.523   3.771  11.438  0.00  0.00    +0.000 C 
BRANCH   8   9
ATOM      9  N   UNL     1      45.191   3.100  10.344  0.00  0.00    +0.000 N 
ATOM     10  C   UNL     1      45.112   3.605   9.063  0.00  0.00    +0.000 C 
ATOM     11  O   UNL     1      44.487   4.622   8.779  0.00  0.00    +0.000 OA
ATOM     12  H   UNL     1      45.888   2.406  10.571  0.00  0.00    +0.000 HD
BRANCH  10  13
ATOM     13  C   UNL     1      45.858   2.863   8.004  0.00  0.00    +0.000 A 
ATOM     14  C   UNL     1      46.238   3.478   6.805  0.00  0.00    +0.000 A 
ATOM     15  C   UNL     1      46.959   2.762   5.843  0.00  0.00    +0.000 A 
ATOM     16  C   UNL     1      47.308   1.433   6.080  0.00  0.00    +0.000 A 
ATOM     17  C   UNL     1      46.944   0.819   7.276  0.00  0.00    +0.000 A 
ATOM     18  C   UNL     1      46.225   1.534   8.241  0.00  0.00    +0.000 A 
ENDBRANCH  10  13
ENDBRANCH   8   9
ENDBRANCH   5   8
ENDBRANCH   1   2
BRANCH   1  20
ATOM     19  N   UNL     1      47.344   9.076  15.158  0.00  0.00    +0.000 N 
ATOM     20  C   UNL     1      48.265   8.425  14.373  0.00  0.00    +0.000 C 
ATOM     21  O   UNL     1      48.862   9.055  13.503  0.00  0.00    +0.000 OA
ATOM     22  H   UNL     1      47.162  10.043  14.922  0.00  0.00    +0.000 HD
ATOM     23  H   UNL     1      46.582   8.549  15.577  0.00  0.00    +0.000 HD
ENDBRANCH   1  20
BRANCH   1  24
ATOM     24  N   UNL     1      48.224   6.630  16.026  0.00  0.00    +0.000 N 
ATOM     25  C   UNL     1      49.249   6.170  16.804  0.00  0.00    +0.000 C 
ATOM     26  O   UNL     1      50.367   5.958  16.336  0.00  0.00    +0.000 OA
ATOM     27  H   UNL     1      47.311   6.794  16.435  0.00  0.00    +0.000 HD
BRANCH  25  28
ATOM     28  C   UNL     1      48.963   6.003  18.237  0.00  0.00    +0.000 A 
ATOM     29  C   UNL     1      49.221   4.789  18.858  0.00  0.00    +0.000 A 
ATOM     30  S   UNL     1      48.833   4.769  20.519  0.00  0.00    +0.000 S 
ATOM     31  C   UNL     1      48.257   6.368  20.460  0.00  0.00    +0.000 A 
ATOM     32  N   UNL     1      47.726   6.961  21.564  0.00  0.00    +0.000 NA
ATOM     33  C   UNL     1      47.299   8.165  21.372  0.00  0.00    +0.000 A 
ATOM     34  N   UNL     1      47.369   8.834  20.178  0.00  0.00    +0.000 N 
ATOM     35  C   UNL     1      47.957   8.298  19.056  0.00  0.00    +0.000 A 
ATOM     36  O   UNL     1      48.111   8.969  18.043  0.00  0.00    +0.000 OA
ATOM     37  C   UNL     1      48.403   6.926  19.203  0.00  0.00    +0.000 A 
ATOM     38  H   UNL     1      47.054   9.789  20.102  0.00  0.00    +0.000 HD
ENDBRANCH  25  28
ENDBRANCH   1  24
TORSDOF 7
ENDMDL
MODEL 2
REMARK VINA RESULT:    -7.796      2.790      4.194
REMARK INTER + INTRA:         -12.565
REMARK INTER:                 -11.469
REMARK INTRA:                  -1.096
REMARK UNBOUND:                -1.579
REMARK  Name = 
REMARK  7 active torsions:
REMARK  status: ('A' for Active; 'I' for Inactive)
REMARK    1  A    between atoms: C_2  and  C_4
REMARK    2  A    between atoms: C_4  and  N_5
REMARK    3  A    between atoms: C_4  and  C_18
REMARK    4  A    between atoms: C_6  and  C_8
REMARK    5  A    between atoms: C_21  and  C_22
REMARK    6  A    between atoms: C_22  and  N_23
REMARK    7  A    between atoms: C_24  and  C_26
REMARK                            x       y       z     vdW  Elec       q    Type
REMARK                         _______ _______ _______ _____ _____    ______ ____
ROOT
ATOM      1  C   UNL     1      46.979   4.979  15.199  0.00  0.00    +0.000 C 
ENDROOT
BRANCH   1   2
ATOM      2  C   UNL     1      46.207   4.847  13.892  0.00  0.00    +0.000 A 
ATOM      3  C   UNL     1      46.020   3.586  13.305  0.00  0.00    +0.000 A 
ATOM      4  C   UNL     1      45.257   3.442  12.137  0.00  0.00    +0.000 A 
ATOM      5  C   UNL     1      44.668   4.556  11.523  0.00  0.00    +0.000 A 
ATOM      6  C   UNL     1      44.858   5.816  12.102  0.00  0.00    +0.000 A 
ATOM      7  C   UNL     1      45.620   5.959  13.266  0.00  0.00    +0.000 A 
BRANCH   5   8
ATOM      8  C   UNL     1      43.833   4.405  10.276  0.00  0.00    +0.000 C 
BRANCH   8   9
ATOM      9  N   UNL     1      44.500   3.601   9.275  0.00  0.00    +0.000 N 
ATOM     10  C   UNL     1      45.556   4.119   8.555  0.00  0.00    +0.000 C 
ATOM     11  O   UNL     1      45.981   5.259   8.711  0.00  0.00    +0.000 OA
ATOM     12  H   UNL     1      44.332   2.606   9.279  0.00  0.00    +0.000 HD
BRANCH  10  13
ATOM     13  C   UNL     1      46.202   3.207   7.565  0.00  0.00    +0.000 A 
ATOM     14  C   UNL     1      46.566   3.649   6.287  0.00  0.00    +0.000 A 
ATOM     15  C   UNL     1      47.194   2.776   5.391  0.00  0.00    +0.000 A 
ATOM     16  C   UNL     1      47.466   1.463   5.773  0.00  0.00    +0.000 A 
ATOM     17  C   UNL     1      47.119   1.021   7.048  0.00  0.00    +0.000 A 
ATOM     18  C   UNL     1      46.493   1.893   7.947  0.00  0.00    +0.000 A 
ENDBRANCH  10  13
ENDBRANCH   8   9
ENDBRANCH   5   8
ENDBRANCH   1   2
BRANCH   1  20
ATOM     19  N   UNL     1      47.000   3.384  17.088  0.00  0.00    +0.000 N 
ATOM     20  C   UNL     1      47.418   3.618  15.800  0.00  0.00    +0.000 C 
ATOM     21  O   UNL     1      48.169   2.810  15.257  0.00  0.00    +0.000 OA
ATOM     22  H   UNL     1      47.399   2.574  17.545  0.00  0.00    +0.000 HD
ATOM     23  H   UNL     1      46.737   4.168  17.679  0.00  0.00    +0.000 HD
ENDBRANCH   1  20
BRANCH   1  24
ATOM     24  N   UNL     1      48.170   5.798  15.000  0.00  0.00    +0.000 N 
ATOM     25  C   UNL     1      48.840   6.404  16.025  0.00  0.00    +0.000 C 
ATOM     26  O   UNL     1      48.476   6.283  17.193  0.00  0.00    +0.000 OA
ATOM     27  H   UNL     1      48.488   5.916  14.045  0.00  0.00    +0.000 HD
BRANCH  25  28
ATOM     28  C   UNL     1      50.052   7.155  15.663  0.00  0.00    +0.000 A 
ATOM     29  C   UNL     1      51.254   6.881  16.302  0.00  0.00    +0.000 A 
ATOM     30  S   UNL     1      52.555   7.841  15.760  0.00  0.00    +0.000 S 
ATOM     31  C   UNL     1      51.552   8.695  14.686  0.00  0.00    +0.000 A 
ATOM     32  N   UNL     1      52.043   9.714  13.930  0.00  0.00    +0.000 NA
ATOM     33  C   UNL     1      51.166  10.296  13.181  0.00  0.00    +0.000 A 
ATOM     34  N   UNL     1      49.845   9.941  13.110  0.00  0.00    +0.000 N 
ATOM     35  C   UNL     1      49.320   8.876  13.805  0.00  0.00    +0.000 A 
ATOM     36  O   UNL     1      48.165   8.512  13.624  0.00  0.00    +0.000 OA
ATOM     37  C   UNL     1      50.251   8.222  14.705  0.00  0.00    +0.000 A 
ATOM     38  H   UNL     1      49.218  10.410  12.475  0.00  0.00    +0.000 HD
ENDBRANCH  25  28
ENDBRANCH   1  24
TORSDOF 7
ENDMDL
MODEL 3
REMARK VINA RESULT:    -7.753      1.459      2.026
REMARK INTER + INTRA:         -12.505
REMARK INTER:                 -11.713
REMARK INTRA:                  -0.792
REMARK UNBOUND:                -1.579
REMARK  Name = 
REMARK  7 active torsions:
REMARK  status: ('A' for Active; 'I' for Inactive)
REMARK    1  A    between atoms: C_2  and  C_4
REMARK    2  A    between atoms: C_4  and  N_5
REMARK    3  A    between atoms: C_4  and  C_18
REMARK    4  A    between atoms: C_6  and  C_8
REMARK    5  A    between atoms: C_21  and  C_22
REMARK    6  A    between atoms: C_22  and  N_23
REMARK    7  A    between atoms: C_24  and  C_26
REMARK                            x       y       z     vdW  Elec       q    Type
REMARK                         _______ _______ _______ _____ _____    ______ ____
ROOT
ATOM      1  C   UNL     1      48.829   6.761  14.260  0.00  0.00    +0.000 C 
ENDROOT
BRANCH   1   2
ATOM      2  C   UNL     1      47.656   6.274  13.419  0.00  0.00    +0.000 A 
ATOM      3  C   UNL     1      47.272   6.976  12.266  0.00  0.00    +0.000 A 
ATOM      4  C   UNL     1      46.235   6.504  11.448  0.00  0.00    +0.000 A 
ATOM      5  C   UNL     1      45.552   5.321  11.766  0.00  0.00    +0.000 A 
ATOM      6  C   UNL     1      45.929   4.622  12.918  0.00  0.00    +0.000 A 
ATOM      7  C   UNL     1      46.961   5.095  13.735  0.00  0.00    +0.000 A 
BRANCH   5   8
ATOM      8  C   UNL     1      44.448   4.799  10.880  0.00  0.00    +0.000 C 
BRANCH   8   9
ATOM      9  N   UNL     1      44.935   3.820   9.934  0.00  0.00    +0.000 N 
ATOM     10  C   UNL     1      45.590   4.221   8.788  0.00  0.00    +0.000 C 
ATOM     11  O   UNL     1      45.790   5.398   8.506  0.00  0.00    +0.000 OA
ATOM     12  H   UNL     1      44.991   2.858  10.236  0.00  0.00    +0.000 HD
BRANCH  10  13
ATOM     13  C   UNL     1      46.083   3.139   7.885  0.00  0.00    +0.000 A 
ATOM     14  C   UNL     1      46.523   3.411   6.584  0.00  0.00    +0.000 A 
ATOM     15  C   UNL     1      47.005   2.379   5.772  0.00  0.00    +0.000 A 
ATOM     16  C   UNL     1      47.054   1.073   6.261  0.00  0.00    +0.000 A 
ATOM     17  C   UNL     1      46.630   0.798   7.559  0.00  0.00    +0.000 A 
ATOM     18  C   UNL     1      46.151   1.830   8.374  0.00  0.00    +0.000 A 
ENDBRANCH  10  13
ENDBRANCH   8   9
ENDBRANCH   5   8
ENDBRANCH   1   2
BRANCH   1  20
ATOM     19  N   UNL     1      50.602   7.978  13.040  0.00  0.00    +0.000 N 
ATOM     20  C   UNL     1      49.438   8.098  13.759  0.00  0.00    +0.000 C 
ATOM     21  O   UNL     1      49.018   9.219  14.038  0.00  0.00    +0.000 OA
ATOM     22  H   UNL     1      51.089   8.841  12.835  0.00  0.00    +0.000 HD
ATOM     23  H   UNL     1      51.167   7.138  13.138  0.00  0.00    +0.000 HD
ENDBRANCH   1  20
BRANCH   1  24
ATOM     24  N   UNL     1      48.416   6.937  15.648  0.00  0.00    +0.000 N 
ATOM     25  C   UNL     1      49.178   6.542  16.711  0.00  0.00    +0.000 C 
ATOM     26  O   UNL     1      50.278   6.015  16.554  0.00  0.00    +0.000 OA
ATOM     27  H   UNL     1      47.511   7.366  15.804  0.00  0.00    +0.000 HD
BRANCH  25  28
ATOM     28  C   UNL     1      48.641   6.836  18.049  0.00  0.00    +0.000 A 
ATOM     29  C   UNL     1      48.215   8.120  18.358  0.00  0.00    +0.000 A 
ATOM     30  S   UNL     1      47.621   8.284  19.949  0.00  0.00    +0.000 S 
ATOM     31  C   UNL     1      47.957   6.655  20.301  0.00  0.00    +0.000 A 
ATOM     32  N   UNL     1      47.723   6.145  21.541  0.00  0.00    +0.000 NA
ATOM     33  C   UNL     1      48.051   4.903  21.681  0.00  0.00    +0.000 A 
ATOM     34  N   UNL     1      48.581   4.123  20.686  0.00  0.00    +0.000 N 
ATOM     35  C   UNL     1      48.773   4.577  19.403  0.00  0.00    +0.000 A 
ATOM     36  O   UNL     1      49.133   3.818  18.512  0.00  0.00    +0.000 OA
ATOM     37  C   UNL     1      48.471   5.982  19.207  0.00  0.00    +0.000 A 
ATOM     38  H   UNL     1      48.781   3.147  20.848  0.00  0.00    +0.000 HD
ENDBRANCH  25  28
ENDBRANCH   1  24
TORSDOF 7
ENDMDL
MODEL 4
REMARK VINA RESULT:    -7.579      2.863      4.129
REMARK INTER + INTRA:         -12.259
REMARK INTER:                 -11.015
REMARK INTRA:                  -1.244
REMARK UNBOUND:                -1.579
REMARK  Name = 
REMARK  7 active torsions:
REMARK  status: ('A' for Active; 'I' for Inactive)
REMARK    1  A    between atoms: C_2  and  C_4
REMARK    2  A    between atoms: C_4  and  N_5
REMARK    3  A    between atoms: C_4  and  C_18
REMARK    4  A    between atoms: C_6  and  C_8
REMARK    5  A    between atoms: C_21  and  C_22
REMARK    6  A    between atoms: C_22  and  N_23
REMARK    7  A    between atoms: C_24  and  C_26
REMARK                            x       y       z     vdW  Elec       q    Type
REMARK                         _______ _______ _______ _____ _____    ______ ____
ROOT
ATOM      1  C   UNL     1      47.472   5.112  15.569  0.00  0.00    +0.000 C 
ENDROOT
BRANCH   1   2
ATOM      2  C   UNL     1      46.761   5.300  14.235  0.00  0.00    +0.000 A 
ATOM      3  C   UNL     1      47.199   6.282  13.332  0.00  0.00    +0.000 A 
ATOM      4  C   UNL     1      46.595   6.423  12.074  0.00  0.00    +0.000 A 
ATOM      5  C   UNL     1      45.534   5.592  11.690  0.00  0.00    +0.000 A 
ATOM      6  C   UNL     1      45.091   4.615  12.591  0.00  0.00    +0.000 A 
ATOM      7  C   UNL     1      45.692   4.476  13.846  0.00  0.00    +0.000 A 
BRANCH   5   8
ATOM      8  C   UNL     1      44.892   5.728  10.332  0.00  0.00    +0.000 C 
BRANCH   8   9
ATOM      9  N   UNL     1      45.588   4.954   9.328  0.00  0.00    +0.000 N 
ATOM     10  C   UNL     1      45.150   3.691   8.991  0.00  0.00    +0.000 C 
ATOM     11  O   UNL     1      44.174   3.158   9.509  0.00  0.00    +0.000 OA
ATOM     12  H   UNL     1      46.243   5.437   8.730  0.00  0.00    +0.000 HD
BRANCH  10  13
ATOM     13  C   UNL     1      45.914   2.980   7.923  0.00  0.00    +0.000 A 
ATOM     14  C   UNL     1      46.288   3.620   6.736  0.00  0.00    +0.000 A 
ATOM     15  C   UNL     1      47.027   2.932   5.767  0.00  0.00    +0.000 A 
ATOM     16  C   UNL     1      47.398   1.605   5.984  0.00  0.00    +0.000 A 
ATOM     17  C   UNL     1      47.040   0.967   7.169  0.00  0.00    +0.000 A 
ATOM     18  C   UNL     1      46.304   1.654   8.142  0.00  0.00    +0.000 A 
ENDBRANCH  10  13
ENDBRANCH   8   9
ENDBRANCH   5   8
ENDBRANCH   1   2
BRANCH   1  20
ATOM     19  N   UNL     1      46.896   3.307  17.157  0.00  0.00    +0.000 N 
ATOM     20  C   UNL     1      47.580   3.628  16.010  0.00  0.00    +0.000 C 
ATOM     21  O   UNL     1      48.289   2.778  15.477  0.00  0.00    +0.000 OA
ATOM     22  H   UNL     1      47.075   2.387  17.539  0.00  0.00    +0.000 HD
ATOM     23  H   UNL     1      46.647   4.041  17.814  0.00  0.00    +0.000 HD
ENDBRANCH   1  20
BRANCH   1  24
ATOM     24  N   UNL     1      48.818   5.670  15.507  0.00  0.00    +0.000 N 
ATOM     25  C   UNL     1      49.359   6.432  16.504  0.00  0.00    +0.000 C 
ATOM     26  O   UNL     1      48.733   6.685  17.532  0.00  0.00    +0.000 OA
ATOM     27  H   UNL     1      49.353   5.478  14.668  0.00  0.00    +0.000 HD
BRANCH  25  28
ATOM     28  C   UNL     1      50.747   6.878  16.310  0.00  0.00    +0.000 A 
ATOM     29  C   UNL     1      51.006   8.065  15.638  0.00  0.00    +0.000 A 
ATOM     30  S   UNL     1      52.666   8.432  15.504  0.00  0.00    +0.000 S 
ATOM     31  C   UNL     1      53.105   6.994  16.297  0.00  0.00    +0.000 A 
ATOM     32  N   UNL     1      54.413   6.664  16.475  0.00  0.00    +0.000 NA
ATOM     33  C   UNL     1      54.605   5.530  17.064  0.00  0.00    +0.000 A 
ATOM     34  N   UNL     1      53.605   4.703  17.504  0.00  0.00    +0.000 N 
ATOM     35  C   UNL     1      52.272   5.027  17.405  0.00  0.00    +0.000 A 
ATOM     36  O   UNL     1      51.412   4.322  17.919  0.00  0.00    +0.000 OA
ATOM     37  C   UNL     1      52.000   6.265  16.701  0.00  0.00    +0.000 A 
ATOM     38  H   UNL     1      53.820   3.848  17.993  0.00  0.00    +0.000 HD
ENDBRANCH  25  28
ENDBRANCH   1  24
TORSDOF 7
ENDMDL
MODEL 5
REMARK VINA RESULT:    -7.304      2.343      2.861
REMARK INTER + INTRA:         -11.872
REMARK INTER:                 -10.501
REMARK INTRA:                  -1.372
REMARK UNBOUND:                -1.579
REMARK  Name = 
REMARK  7 active torsions:
REMARK  status: ('A' for Active; 'I' for Inactive)
REMARK    1  A    between atoms: C_2  and  C_4
REMARK    2  A    between atoms: C_4  and  N_5
REMARK    3  A    between atoms: C_4  and  C_18
REMARK    4  A    between atoms: C_6  and  C_8
REMARK    5  A    between atoms: C_21  and  C_22
REMARK    6  A    between atoms: C_22  and  N_23
REMARK    7  A    between atoms: C_24  and  C_26
REMARK                            x       y       z     vdW  Elec       q    Type
REMARK                         _______ _______ _______ _____ _____    ______ ____
ROOT
ATOM      1  C   UNL     1      48.980   8.770  14.217  0.00  0.00    +0.000 C 
ENDROOT
BRANCH   1   2
ATOM      2  C   UNL     1      47.948   8.175  13.266  0.00  0.00    +0.000 A 
ATOM      3  C   UNL     1      48.346   7.281  12.260  0.00  0.00    +0.000 A 
ATOM      4  C   UNL     1      47.399   6.677  11.420  0.00  0.00    +0.000 A 
ATOM      5  C   UNL     1      46.033   6.958  11.559  0.00  0.00    +0.000 A 
ATOM      6  C   UNL     1      45.634   7.854  12.558  0.00  0.00    +0.000 A 
ATOM      7  C   UNL     1      46.578   8.458  13.394  0.00  0.00    +0.000 A 
BRANCH   5   8
ATOM      8  C   UNL     1      45.009   6.298  10.670  0.00  0.00    +0.000 C 
BRANCH   8   9
ATOM      9  N   UNL     1      45.618   5.358   9.754  0.00  0.00    +0.000 N 
ATOM     10  C   UNL     1      45.007   4.152   9.484  0.00  0.00    +0.000 C 
ATOM     11  O   UNL     1      43.944   3.809   9.991  0.00  0.00    +0.000 OA
ATOM     12  H   UNL     1      46.359   5.693   9.156  0.00  0.00    +0.000 HD
BRANCH  10  13
ATOM     13  C   UNL     1      45.693   3.258   8.505  0.00  0.00    +0.000 A 
ATOM     14  C   UNL     1      45.815   1.881   8.726  0.00  0.00    +0.000 A 
ATOM     15  C   UNL     1      46.440   1.066   7.775  0.00  0.00    +0.000 A 
ATOM     16  C   UNL     1      46.939   1.625   6.599  0.00  0.00    +0.000 A 
ATOM     17  C   UNL     1      46.809   2.992   6.366  0.00  0.00    +0.000 A 
ATOM     18  C   UNL     1      46.180   3.809   7.315  0.00  0.00    +0.000 A 
ENDBRANCH  10  13
ENDBRANCH   8   9
ENDBRANCH   5   8
ENDBRANCH   1   2
BRANCH   1  20
ATOM     19  N   UNL     1      48.204  10.384  15.921  0.00  0.00    +0.000 N 
ATOM     20  C   UNL     1      48.667  10.231  14.637  0.00  0.00    +0.000 C 
ATOM     21  O   UNL     1      48.708  11.208  13.893  0.00  0.00    +0.000 OA
ATOM     22  H   UNL     1      47.855  11.303  16.161  0.00  0.00    +0.000 HD
ATOM     23  H   UNL     1      47.790   9.591  16.402  0.00  0.00    +0.000 HD
ENDBRANCH   1  20
BRANCH   1  24
ATOM     24  N   UNL     1      49.081   7.958  15.424  0.00  0.00    +0.000 N 
ATOM     25  C   UNL     1      50.241   7.360  15.828  0.00  0.00    +0.000 C 
ATOM     26  O   UNL     1      51.285   7.483  15.191  0.00  0.00    +0.000 OA
ATOM     27  H   UNL     1      48.232   7.838  15.966  0.00  0.00    +0.000 HD
BRANCH  25  28
ATOM     28  C   UNL     1      50.188   6.614  17.096  0.00  0.00    +0.000 A 
ATOM     29  C   UNL     1      50.997   6.995  18.158  0.00  0.00    +0.000 A 
ATOM     30  S   UNL     1      50.809   6.025  19.548  0.00  0.00    +0.000 S 
ATOM     31  C   UNL     1      49.674   5.029  18.768  0.00  0.00    +0.000 A 
ATOM     32  N   UNL     1      49.136   3.951  19.401  0.00  0.00    +0.000 NA
ATOM     33  C   UNL     1      48.312   3.263  18.683  0.00  0.00    +0.000 A 
ATOM     34  N   UNL     1      47.966   3.565  17.392  0.00  0.00    +0.000 N 
ATOM     35  C   UNL     1      48.433   4.680  16.736  0.00  0.00    +0.000 A 
ATOM     36  O   UNL     1      48.008   4.985  15.628  0.00  0.00    +0.000 OA
ATOM     37  C   UNL     1      49.406   5.457  17.480  0.00  0.00    +0.000 A 
ATOM     38  H   UNL     1      47.286   3.010  16.897  0.00  0.00    +0.000 HD
ENDBRANCH  25  28
ENDBRANCH   1  24
TORSDOF 7
ENDMDL
MODEL 6
REMARK VINA RESULT:    -7.283      3.743      5.922
REMARK INTER + INTRA:         -11.842
REMARK INTER:                 -10.404
REMARK INTRA:                  -1.439
REMARK UNBOUND:                -1.579
REMARK  Name = 
REMARK  7 active torsions:
REMARK  status: ('A' for Active; 'I' for Inactive)
REMARK    1  A    between atoms: C_2  and  C_4
REMARK    2  A    between atoms: C_4  and  N_5
REMARK    3  A    between atoms: C_4  and  C_18
REMARK    4  A    between atoms: C_6  and  C_8
REMARK    5  A    between atoms: C_21  and  C_22
REMARK    6  A    between atoms: C_22  and  N_23
REMARK    7  A    between atoms: C_24  and  C_26
REMARK                            x       y       z     vdW  Elec       q    Type
REMARK                         _______ _______ _______ _____ _____    ______ ____
ROOT
ATOM      1  C   UNL     1      48.558   7.824  14.610  0.00  0.00    +0.000 C 
ENDROOT
BRANCH   1   2
ATOM      2  C   UNL     1      47.519   7.253  13.653  0.00  0.00    +0.000 A 
ATOM      3  C   UNL     1      46.775   8.106  12.823  0.00  0.00    +0.000 A 
ATOM      4  C   UNL     1      45.862   7.590  11.894  0.00  0.00    +0.000 A 
ATOM      5  C   UNL     1      45.662   6.207  11.775  0.00  0.00    +0.000 A 
ATOM      6  C   UNL     1      46.398   5.353  12.606  0.00  0.00    +0.000 A 
ATOM      7  C   UNL     1      47.307   5.869  13.535  0.00  0.00    +0.000 A 
BRANCH   5   8
ATOM      8  C   UNL     1      44.694   5.645  10.765  0.00  0.00    +0.000 C 
BRANCH   8   9
ATOM      9  N   UNL     1      45.373   4.929   9.708  0.00  0.00    +0.000 N 
ATOM     10  C   UNL     1      45.026   3.628   9.410  0.00  0.00    +0.000 C 
ATOM     11  O   UNL     1      44.148   3.014  10.007  0.00  0.00    +0.000 OA
ATOM     12  H   UNL     1      45.930   5.464   9.058  0.00  0.00    +0.000 HD
BRANCH  10  13
ATOM     13  C   UNL     1      45.761   2.979   8.285  0.00  0.00    +0.000 A 
ATOM     14  C   UNL     1      46.152   3.699   7.149  0.00  0.00    +0.000 A 
ATOM     15  C   UNL     1      46.864   3.067   6.123  0.00  0.00    +0.000 A 
ATOM     16  C   UNL     1      47.192   1.716   6.233  0.00  0.00    +0.000 A 
ATOM     17  C   UNL     1      46.818   0.997   7.366  0.00  0.00    +0.000 A 
ATOM     18  C   UNL     1      46.108   1.629   8.395  0.00  0.00    +0.000 A 
ENDBRANCH  10  13
ENDBRANCH   8   9
ENDBRANCH   5   8
ENDBRANCH   1   2
BRANCH   1  20
ATOM     19  N   UNL     1      48.120   7.174  16.955  0.00  0.00    +0.000 N 
ATOM     20  C   UNL     1      48.854   6.905  15.825  0.00  0.00    +0.000 C 
ATOM     21  O   UNL     1      49.737   6.052  15.872  0.00  0.00    +0.000 OA
ATOM     22  H   UNL     1      48.402   6.687  17.795  0.00  0.00    +0.000 HD
ATOM     23  H   UNL     1      47.696   8.090  17.070  0.00  0.00    +0.000 HD
ENDBRANCH   1  20
BRANCH   1  24
ATOM     24  N   UNL     1      49.811   8.069  13.905  0.00  0.00    +0.000 N 
ATOM     25  C   UNL     1      50.243   9.318  13.559  0.00  0.00    +0.000 C 
ATOM     26  O   UNL     1      49.592  10.324  13.836  0.00  0.00    +0.000 OA
ATOM     27  H   UNL     1      50.365   7.255  13.662  0.00  0.00    +0.000 HD
BRANCH  25  28
ATOM     28  C   UNL     1      51.553   9.400  12.895  0.00  0.00    +0.000 A 
ATOM     29  C   UNL     1      52.534  10.242  13.398  0.00  0.00    +0.000 A 
ATOM     30  S   UNL     1      53.990  10.213  12.510  0.00  0.00    +0.000 S 
ATOM     31  C   UNL     1      53.347   9.109  11.388  0.00  0.00    +0.000 A 
ATOM     32  N   UNL     1      54.078   8.693  10.318  0.00  0.00    +0.000 NA
ATOM     33  C   UNL     1      53.459   7.879   9.529  0.00  0.00    +0.000 A 
ATOM     34  N   UNL     1      52.177   7.433   9.722  0.00  0.00    +0.000 N 
ATOM     35  C   UNL     1      51.427   7.774  10.823  0.00  0.00    +0.000 A 
ATOM     36  O   UNL     1      50.333   7.260  11.025  0.00  0.00    +0.000 OA
ATOM     37  C   UNL     1      52.056   8.731  11.713  0.00  0.00    +0.000 A 
ATOM     38  H   UNL     1      51.763   6.766   9.090  0.00  0.00    +0.000 HD
ENDBRANCH  25  28
ENDBRANCH   1  24
TORSDOF 7
ENDMDL
MODEL 7
REMARK VINA RESULT:    -6.869      4.543      6.733
REMARK INTER + INTRA:         -11.259
REMARK INTER:                 -10.204
REMARK INTRA:                  -1.055
REMARK UNBOUND:                -1.579
REMARK  Name = 
REMARK  7 active torsions:
REMARK  status: ('A' for Active; 'I' for Inactive)
REMARK    1  A    between atoms: C_2  and  C_4
REMARK    2  A    between atoms: C_4  and  N_5
REMARK    3  A    between atoms: C_4  and  C_18
REMARK    4  A    between atoms: C_6  and  C_8
REMARK    5  A    between atoms: C_21  and  C_22
REMARK    6  A    between atoms: C_22  and  N_23
REMARK    7  A    between atoms: C_24  and  C_26
REMARK                            x       y       z     vdW  Elec       q    Type
REMARK                         _______ _______ _______ _____ _____    ______ ____
ROOT
ATOM      1  C   UNL     1      46.221   4.852  14.204  0.00  0.00    +0.000 C 
ENDROOT
BRANCH   1   2
ATOM      2  C   UNL     1      45.979   6.157  13.456  0.00  0.00    +0.000 A 
ATOM      3  C   UNL     1      44.851   6.303  12.633  0.00  0.00    +0.000 A 
ATOM      4  C   UNL     1      44.582   7.519  11.990  0.00  0.00    +0.000 A 
ATOM      5  C   UNL     1      45.437   8.619  12.148  0.00  0.00    +0.000 A 
ATOM      6  C   UNL     1      46.565   8.476  12.964  0.00  0.00    +0.000 A 
ATOM      7  C   UNL     1      46.835   7.261  13.603  0.00  0.00    +0.000 A 
BRANCH   5   8
ATOM      8  C   UNL     1      45.143   9.936  11.473  0.00  0.00    +0.000 C 
BRANCH   8   9
ATOM      9  N   UNL     1      43.726  10.227  11.456  0.00  0.00    +0.000 N 
ATOM     10  C   UNL     1      43.097  10.565  10.277  0.00  0.00    +0.000 C 
ATOM     11  O   UNL     1      43.682  10.640   9.201  0.00  0.00    +0.000 OA
ATOM     12  H   UNL     1      43.179   9.958  12.261  0.00  0.00    +0.000 HD
BRANCH  10  13
ATOM     13  C   UNL     1      41.628  10.820  10.350  0.00  0.00    +0.000 A 
ATOM     14  C   UNL     1      41.005  11.772   9.534  0.00  0.00    +0.000 A 
ATOM     15  C   UNL     1      39.621  11.968   9.609  0.00  0.00    +0.000 A 
ATOM     16  C   UNL     1      38.857  11.208  10.494  0.00  0.00    +0.000 A 
ATOM     17  C   UNL     1      39.468  10.250  11.299  0.00  0.00    +0.000 A 
ATOM     18  C   UNL     1      40.852  10.050  11.224  0.00  0.00    +0.000 A 
ENDBRANCH  10  13
ENDBRANCH   8   9
ENDBRANCH   5   8
ENDBRANCH   1   2
BRANCH   1  20
ATOM     19  N   UNL     1      45.508   2.948  12.796  0.00  0.00    +0.000 N 
ATOM     20  C   UNL     1      46.580   3.663  13.274  0.00  0.00    +0.000 C 
ATOM     21  O   UNL     1      47.719   3.273  13.026  0.00  0.00    +0.000 OA
ATOM     22  H   UNL     1      45.728   2.086  12.313  0.00  0.00    +0.000 HD
ATOM     23  H   UNL     1      44.619   2.992  13.286  0.00  0.00    +0.000 HD
ENDBRANCH   1  20
BRANCH   1  24
ATOM     24  N   UNL     1      47.299   5.018  15.173  0.00  0.00    +0.000 N 
ATOM     25  C   UNL     1      47.362   4.324  16.347  0.00  0.00    +0.000 C 
ATOM     26  O   UNL     1      46.503   3.499  16.655  0.00  0.00    +0.000 OA
ATOM     27  H   UNL     1      48.017   5.696  14.943  0.00  0.00    +0.000 HD
BRANCH  25  28
ATOM     28  C   UNL     1      48.540   4.570  17.193  0.00  0.00    +0.000 A 
ATOM     29  C   UNL     1      48.639   5.750  17.918  0.00  0.00    +0.000 A 
ATOM     30  S   UNL     1      50.066   5.871  18.845  0.00  0.00    +0.000 S 
ATOM     31  C   UNL     1      50.630   4.372  18.274  0.00  0.00    +0.000 A 
ATOM     32  N   UNL     1      51.846   3.892  18.652  0.00  0.00    +0.000 NA
ATOM     33  C   UNL     1      52.164   2.759  18.121  0.00  0.00    +0.000 A 
ATOM     34  N   UNL     1      51.367   2.055  17.256  0.00  0.00    +0.000 N 
ATOM     35  C   UNL     1      50.105   2.468  16.899  0.00  0.00    +0.000 A 
ATOM     36  O   UNL     1      49.375   1.755  16.223  0.00  0.00    +0.000 OA
ATOM     37  C   UNL     1      49.721   3.765  17.425  0.00  0.00    +0.000 A 
ATOM     38  H   UNL     1      51.656   1.154  16.906  0.00  0.00    +0.000 HD
ENDBRANCH  25  28
ENDBRANCH   1  24
TORSDOF 7
ENDMDL
MODEL 8
REMARK VINA RESULT:    -6.817      3.796      9.234
REMARK INTER + INTRA:         -11.186
REMARK INTER:                  -9.739
REMARK INTRA:                  -1.447
REMARK UNBOUND:                -1.579
REMARK  Name = 
REMARK  7 active torsions:
REMARK  status: ('A' for Active; 'I' for Inactive)
REMARK    1  A    between atoms: C_2  and  C_4
REMARK    2  A    between atoms: C_4  and  N_5
REMARK    3  A    between atoms: C_4  and  C_18
REMARK    4  A    between atoms: C_6  and  C_8
REMARK    5  A    between atoms: C_21  and  C_22
REMARK    6  A    between atoms: C_22  and  N_23
REMARK    7  A    between atoms: C_24  and  C_26
REMARK                            x       y       z     vdW  Elec       q    Type
REMARK                         _______ _______ _______ _____ _____    ______ ____
ROOT
ATOM      1  C   UNL     1      47.984   7.311  13.513  0.00  0.00    +0.000 C 
ENDROOT
BRANCH   1   2
ATOM      2  C   UNL     1      48.411   6.657  14.822  0.00  0.00    +0.000 A 
ATOM      3  C   UNL     1      49.346   7.289  15.657  0.00  0.00    +0.000 A 
ATOM      4  C   UNL     1      49.699   6.729  16.893  0.00  0.00    +0.000 A 
ATOM      5  C   UNL     1      49.132   5.521  17.322  0.00  0.00    +0.000 A 
ATOM      6  C   UNL     1      48.204   4.885  16.489  0.00  0.00    +0.000 A 
ATOM      7  C   UNL     1      47.854   5.443  15.255  0.00  0.00    +0.000 A 
BRANCH   5   8
ATOM      8  C   UNL     1      49.496   4.923  18.659  0.00  0.00    +0.000 C 
BRANCH   8   9
ATOM      9  N   UNL     1      50.412   3.813  18.520  0.00  0.00    +0.000 N 
ATOM     10  C   UNL     1      51.774   4.022  18.562  0.00  0.00    +0.000 C 
ATOM     11  O   UNL     1      52.279   5.130  18.710  0.00  0.00    +0.000 OA
ATOM     12  H   UNL     1      50.042   2.879  18.624  0.00  0.00    +0.000 HD
BRANCH  10  13
ATOM     13  C   UNL     1      52.642   2.813  18.440  0.00  0.00    +0.000 A 
ATOM     14  C   UNL     1      53.859   2.710  19.124  0.00  0.00    +0.000 A 
ATOM     15  C   UNL     1      54.636   1.552  19.010  0.00  0.00    +0.000 A 
ATOM     16  C   UNL     1      54.196   0.492  18.217  0.00  0.00    +0.000 A 
ATOM     17  C   UNL     1      52.980   0.583  17.544  0.00  0.00    +0.000 A 
ATOM     18  C   UNL     1      52.199   1.740  17.660  0.00  0.00    +0.000 A 
ENDBRANCH  10  13
ENDBRANCH   8   9
ENDBRANCH   5   8
ENDBRANCH   1   2
BRANCH   1  20
ATOM     19  N   UNL     1      50.041   6.991  12.178  0.00  0.00    +0.000 N 
ATOM     20  C   UNL     1      49.167   7.910  12.706  0.00  0.00    +0.000 C 
ATOM     21  O   UNL     1      49.418   9.108  12.596  0.00  0.00    +0.000 OA
ATOM     22  H   UNL     1      50.892   7.365  11.780  0.00  0.00    +0.000 HD
ATOM     23  H   UNL     1      50.086   6.057  12.577  0.00  0.00    +0.000 HD
ENDBRANCH   1  20
BRANCH   1  24
ATOM     24  N   UNL     1      47.295   6.344  12.667  0.00  0.00    +0.000 N 
ATOM     25  C   UNL     1      46.257   6.677  11.844  0.00  0.00    +0.000 C 
ATOM     26  O   UNL     1      45.845   7.833  11.762  0.00  0.00    +0.000 OA
ATOM     27  H   UNL     1      47.614   5.383  12.720  0.00  0.00    +0.000 HD
BRANCH  25  28
ATOM     28  C   UNL     1      45.701   5.594  11.017  0.00  0.00    +0.000 A 
ATOM     29  C   UNL     1      45.840   5.634   9.637  0.00  0.00    +0.000 A 
ATOM     30  S   UNL     1      45.139   4.301   8.835  0.00  0.00    +0.000 S 
ATOM     31  C   UNL     1      44.580   3.643  10.300  0.00  0.00    +0.000 A 
ATOM     32  N   UNL     1      43.845   2.499  10.317  0.00  0.00    +0.000 NA
ATOM     33  C   UNL     1      43.459   2.127  11.492  0.00  0.00    +0.000 A 
ATOM     34  N   UNL     1      43.754   2.792  12.654  0.00  0.00    +0.000 N 
ATOM     35  C   UNL     1      44.548   3.913  12.691  0.00  0.00    +0.000 A 
ATOM     36  O   UNL     1      44.891   4.409  13.757  0.00  0.00    +0.000 OA
ATOM     37  C   UNL     1      44.963   4.405  11.390  0.00  0.00    +0.000 A 
ATOM     38  H   UNL     1      43.455   2.428  13.546  0.00  0.00    +0.000 HD
ENDBRANCH  25  28
ENDBRANCH   1  24
TORSDOF 7
ENDMDL
MODEL 9
REMARK VINA RESULT:    -6.687      5.221      8.294
REMARK INTER + INTRA:         -11.003
REMARK INTER:                  -9.930
REMARK INTRA:                  -1.073
REMARK UNBOUND:                -1.579
REMARK  Name = 
REMARK  7 active torsions:
REMARK  status: ('A' for Active; 'I' for Inactive)
REMARK    1  A    between atoms: C_2  and  C_4
REMARK    2  A    between atoms: C_4  and  N_5
REMARK    3  A    between atoms: C_4  and  C_18
REMARK    4  A    between atoms: C_6  and  C_8
REMARK    5  A    between atoms: C_21  and  C_22
REMARK    6  A    between atoms: C_22  and  N_23
REMARK    7  A    between atoms: C_24  and  C_26
REMARK                            x       y       z     vdW  Elec       q    Type
REMARK                         _______ _______ _______ _____ _____    ______ ____
ROOT
ATOM      1  C   UNL     1      45.656   8.318  12.268  0.00  0.00    +0.000 C 
ENDROOT
BRANCH   1   2
ATOM      2  C   UNL     1      47.135   8.519  11.961  0.00  0.00    +0.000 A 
ATOM      3  C   UNL     1      47.677   9.813  11.901  0.00  0.00    +0.000 A 
ATOM      4  C   UNL     1      49.048  10.009  11.684  0.00  0.00    +0.000 A 
ATOM      5  C   UNL     1      49.911   8.918  11.513  0.00  0.00    +0.000 A 
ATOM      6  C   UNL     1      49.374   7.627  11.566  0.00  0.00    +0.000 A 
ATOM      7  C   UNL     1      48.005   7.431  11.781  0.00  0.00    +0.000 A 
BRANCH   5   8
ATOM      8  C   UNL     1      51.390   9.123  11.296  0.00  0.00    +0.000 C 
BRANCH   8   9
ATOM      9  N   UNL     1      51.997   7.992  10.628  0.00  0.00    +0.000 N 
ATOM     10  C   UNL     1      52.585   8.145   9.391  0.00  0.00    +0.000 C 
ATOM     11  O   UNL     1      52.626   9.216   8.794  0.00  0.00    +0.000 OA
ATOM     12  H   UNL     1      52.182   7.164  11.176  0.00  0.00    +0.000 HD
BRANCH  10  13
ATOM     13  C   UNL     1      53.213   6.930   8.792  0.00  0.00    +0.000 A 
ATOM     14  C   UNL     1      52.883   6.491   7.504  0.00  0.00    +0.000 A 
ATOM     15  C   UNL     1      53.510   5.363   6.962  0.00  0.00    +0.000 A 
ATOM     16  C   UNL     1      54.472   4.677   7.702  0.00  0.00    +0.000 A 
ATOM     17  C   UNL     1      54.814   5.116   8.979  0.00  0.00    +0.000 A 
ATOM     18  C   UNL     1      54.191   6.247   9.522  0.00  0.00    +0.000 A 
ENDBRANCH  10  13
ENDBRANCH   8   9
ENDBRANCH   5   8
ENDBRANCH   1   2
BRANCH   1  20
ATOM     19  N   UNL     1      44.220  10.302  12.605  0.00  0.00    +0.000 N 
ATOM     20  C   UNL     1      44.746   9.431  11.682  0.00  0.00    +0.000 C 
ATOM     21  O   UNL     1      44.398   9.519  10.507  0.00  0.00    +0.000 OA
ATOM     22  H   UNL     1      43.510  10.937  12.262  0.00  0.00    +0.000 HD
ATOM     23  H   UNL     1      44.161  10.023  13.580  0.00  0.00    +0.000 HD
ENDBRANCH   1  20
BRANCH   1  24
ATOM     24  N   UNL     1      45.203   7.034  11.747  0.00  0.00    +0.000 N 
ATOM     25  C   UNL     1      45.245   5.876  12.472  0.00  0.00    +0.000 C 
ATOM     26  O   UNL     1      45.666   5.855  13.627  0.00  0.00    +0.000 OA
ATOM     27  H   UNL     1      44.855   7.025  10.795  0.00  0.00    +0.000 HD
BRANCH  25  28
ATOM     28  C   UNL     1      44.704   4.673  11.820  0.00  0.00    +0.000 A 
ATOM     29  C   UNL     1      43.931   3.779  12.548  0.00  0.00    +0.000 A 
ATOM     30  S   UNL     1      43.384   2.444  11.639  0.00  0.00    +0.000 S 
ATOM     31  C   UNL     1      44.202   2.984  10.249  0.00  0.00    +0.000 A 
ATOM     32  N   UNL     1      44.183   2.256   9.099  0.00  0.00    +0.000 NA
ATOM     33  C   UNL     1      44.870   2.766   8.132  0.00  0.00    +0.000 A 
ATOM     34  N   UNL     1      45.564   3.946   8.207  0.00  0.00    +0.000 N 
ATOM     35  C   UNL     1      45.557   4.745   9.326  0.00  0.00    +0.000 A 
ATOM     36  O   UNL     1      46.086   5.850   9.316  0.00  0.00    +0.000 OA
ATOM     37  C   UNL     1      44.844   4.191  10.462  0.00  0.00    +0.000 A 
ATOM     38  H   UNL     1      46.050   4.311   7.403  0.00  0.00    +0.000 HD
ENDBRANCH  25  28
ENDBRANCH   1  24
TORSDOF 7
ENDMDL
