MODEL 1
REMARK VINA RESULT:    -8.629      0.000      0.000
REMARK INTER + INTRA:         -10.549
REMARK INTER:                 -11.151
REMARK INTRA:                   0.603
REMARK UNBOUND:                 0.603
REMARK  Name = 
REMARK  6 active torsions:
REMARK  status: ('A' for Active; 'I' for Inactive)
REMARK    1  A    between atoms: C_1  and  C_2
REMARK    2  A    between atoms: C_2  and  N_3
REMARK    3  A    between atoms: C_2  and  C_16
REMARK    4  A    between atoms: C_4  and  C_6
REMARK    5  A    between atoms: C_19  and  O_20
REMARK    6  A    between atoms: O_20  and  C_21
REMARK                            x       y       z     vdW  Elec       q    Type
REMARK                         _______ _______ _______ _____ _____    ______ ____
ROOT
ATOM      1  C   UNL     1      44.002   3.582  13.134  0.00  0.00    +0.000 C 
ATOM      2  C   UNL     1      44.369   5.045  12.845  0.00  0.00    +0.000 C 
ENDROOT
BRANCH   2   3
ATOM      3  C   UNL     1      44.639   5.197  11.355  0.00  0.00    +0.000 A 
ATOM      4  C   UNL     1      45.809   5.775  10.836  0.00  0.00    +0.000 A 
ATOM      5  C   UNL     1      46.154   5.574   9.489  0.00  0.00    +0.000 A 
ATOM      6  C   UNL     1      45.430   4.669   8.702  0.00  0.00    +0.000 A 
ATOM      7  C   UNL     1      44.391   3.986   9.331  0.00  0.00    +0.000 A 
ATOM      8 CL   UNL     1      44.477   2.229   9.392  0.00  0.00    +0.000 Cl
ATOM      9  C   UNL     1      43.818   4.472  10.500  0.00  0.00    +0.000 A 
BRANCH   6  10
ATOM     10  O   UNL     1      45.986   4.356   7.498  0.00  0.00    +0.000 OA
BRANCH  10  11
ATOM     11  C   UNL     1      46.053   3.020   6.962  0.00  0.00    +0.000 C 
ATOM     12  C   UNL     1      46.917   1.998   7.700  0.00  0.00    +0.000 C 
ATOM     13  C   UNL     1      48.332   1.907   7.152  0.00  0.00    +0.000 C 
ATOM     14  N   UNL     1      48.390   1.657   5.718  0.00  0.00    +0.000 NA
ATOM     15  C   UNL     1      47.552   2.529   4.907  0.00  0.00    +0.000 C 
ATOM     16  C   UNL     1      46.156   2.864   5.446  0.00  0.00    +0.000 C 
ATOM     17  H   UNL     1      48.208   0.682   5.500  0.00  0.00    +0.000 HD
ENDBRANCH  10  11
ENDBRANCH   6  10
ENDBRANCH   2   3
BRANCH   2  18
ATOM     18  N   UNL     1      45.481   5.521  13.621  0.00  0.00    +0.000 N 
ATOM     19  C   UNL     1      46.469   4.671  14.049  0.00  0.00    +0.000 C 
ATOM     20  O   UNL     1      46.547   3.495  13.706  0.00  0.00    +0.000 OA
ATOM     21  H   UNL     1      45.277   6.323  14.205  0.00  0.00    +0.000 HD
BRANCH  19  22
ATOM     22  C   UNL     1      47.489   5.285  14.906  0.00  0.00    +0.000 A 
ATOM     23  C   UNL     1      48.276   6.312  14.407  0.00  0.00    +0.000 A 
ATOM     24  S   UNL     1      49.355   6.952  15.559  0.00  0.00    +0.000 S 
ATOM     25  C   UNL     1      48.840   5.839  16.742  0.00  0.00    +0.000 A 
ATOM     26  N   UNL     1      49.384   5.837  17.990  0.00  0.00    +0.000 NA
ATOM     27  C   UNL     1      48.903   4.934  18.779  0.00  0.00    +0.000 A 
ATOM     28  N   UNL     1      47.934   4.027  18.435  0.00  0.00    +0.000 N 
ATOM     29  C   UNL     1      47.350   3.999  17.195  0.00  0.00    +0.000 A 
ATOM     30  O   UNL     1      46.463   3.191  16.926  0.00  0.00    +0.000 OA
ATOM     31  C   UNL     1      47.849   4.999  16.270  0.00  0.00    +0.000 A 
ATOM     32  H   UNL     1      47.599   3.347  19.101  0.00  0.00    +0.000 HD
ENDBRANCH  19  22
ENDBRANCH   2  18
TORSDOF 5
ENDMDL
MODEL 2
REMARK VINA RESULT:    -8.467      1.425      2.172
REMARK INTER + INTRA:         -10.340
REMARK INTER:                 -10.597
REMARK INTRA:                   0.257
REMARK UNBOUND:                 0.603
REMARK  Name = 
REMARK  6 active torsions:
REMARK  status: ('A' for Active; 'I' for Inactive)
REMARK    1  A    between atoms: C_1  and  C_2
REMARK    2  A    between atoms: C_2  and  N_3
REMARK    3  A    between atoms: C_2  and  C_16
REMARK    4  A    between atoms: C_4  and  C_6
REMARK    5  A    between atoms: C_19  and  O_20
REMARK    6  A    between atoms: O_20  and  C_21
REMARK                            x       y       z     vdW  Elec       q    Type
REMARK                         _______ _______ _______ _____ _____    ______ ____
ROOT
ATOM      1  C   UNL     1      43.231   4.075  12.935  0.00  0.00    +0.000 C 
ATOM      2  C   UNL     1      44.005   5.381  12.705  0.00  0.00    +0.000 C 
ENDROOT
BRANCH   2   3
ATOM      3  C   UNL     1      44.446   5.439  11.250  0.00  0.00    +0.000 A 
ATOM      4  C   UNL     1      45.628   6.069  10.825  0.00  0.00    +0.000 A 
ATOM      5  C   UNL     1      46.151   5.794   9.551  0.00  0.00    +0.000 A 
ATOM      6  C   UNL     1      45.597   4.774   8.764  0.00  0.00    +0.000 A 
ATOM      7  C   UNL     1      44.540   4.059   9.323  0.00  0.00    +0.000 A 
ATOM      8 CL   UNL     1      44.744   2.325   9.547  0.00  0.00    +0.000 Cl
ATOM      9  C   UNL     1      43.792   4.585  10.370  0.00  0.00    +0.000 A 
BRANCH   6  10
ATOM     10  O   UNL     1      46.320   4.415   7.667  0.00  0.00    +0.000 OA
BRANCH  10  11
ATOM     11  C   UNL     1      46.227   3.130   7.023  0.00  0.00    +0.000 C 
ATOM     12  C   UNL     1      47.001   1.965   7.638  0.00  0.00    +0.000 C 
ATOM     13  C   UNL     1      48.379   1.775   7.026  0.00  0.00    +0.000 C 
ATOM     14  N   UNL     1      48.362   1.643   5.575  0.00  0.00    +0.000 NA
ATOM     15  C   UNL     1      47.595   2.662   4.873  0.00  0.00    +0.000 C 
ATOM     16  C   UNL     1      46.262   3.093   5.496  0.00  0.00    +0.000 C 
ATOM     17  H   UNL     1      48.070   0.714   5.287  0.00  0.00    +0.000 HD
ENDBRANCH  10  11
ENDBRANCH   6  10
ENDBRANCH   2   3
BRANCH   2  18
ATOM     18  N   UNL     1      45.124   5.548  13.590  0.00  0.00    +0.000 N 
ATOM     19  C   UNL     1      46.006   4.524  13.827  0.00  0.00    +0.000 C 
ATOM     20  O   UNL     1      45.982   3.456  13.222  0.00  0.00    +0.000 OA
ATOM     21  H   UNL     1      44.975   6.213  14.340  0.00  0.00    +0.000 HD
BRANCH  19  22
ATOM     22  C   UNL     1      47.044   4.815  14.821  0.00  0.00    +0.000 A 
ATOM     23  C   UNL     1      47.072   4.107  16.012  0.00  0.00    +0.000 A 
ATOM     24  S   UNL     1      48.385   4.526  17.012  0.00  0.00    +0.000 S 
ATOM     25  C   UNL     1      48.923   5.706  15.908  0.00  0.00    +0.000 A 
ATOM     26  N   UNL     1      50.027   6.460  16.166  0.00  0.00    +0.000 NA
ATOM     27  C   UNL     1      50.312   7.319  15.244  0.00  0.00    +0.000 A 
ATOM     28  N   UNL     1      49.592   7.501  14.092  0.00  0.00    +0.000 N 
ATOM     29  C   UNL     1      48.482   6.758  13.784  0.00  0.00    +0.000 A 
ATOM     30  O   UNL     1      47.874   6.925  12.729  0.00  0.00    +0.000 OA
ATOM     31  C   UNL     1      48.121   5.771  14.784  0.00  0.00    +0.000 A 
ATOM     32  H   UNL     1      49.870   8.190  13.408  0.00  0.00    +0.000 HD
ENDBRANCH  19  22
ENDBRANCH   2  18
TORSDOF 5
ENDMDL
MODEL 3
REMARK VINA RESULT:    -8.326      3.485      9.518
REMARK INTER + INTRA:         -10.158
REMARK INTER:                  -8.982
REMARK INTRA:                  -1.175
REMARK UNBOUND:                 0.603
REMARK  Name = 
REMARK  6 active torsions:
REMARK  status: ('A' for Active; 'I' for Inactive)
REMARK    1  A    between atoms: C_1  and  C_2
REMARK    2  A    between atoms: C_2  and  N_3
REMARK    3  A    between atoms: C_2  and  C_16
REMARK    4  A    between atoms: C_4  and  C_6
REMARK    5  A    between atoms: C_19  and  O_20
REMARK    6  A    between atoms: O_20  and  C_21
REMARK                            x       y       z     vdW  Elec       q    Type
REMARK                         _______ _______ _______ _____ _____    ______ ____
ROOT
ATOM      1  C   UNL     1      49.088   8.110  11.433  0.00  0.00    +0.000 C 
ATOM      2  C   UNL     1      47.931   7.949  12.429  0.00  0.00    +0.000 C 
ENDROOT
BRANCH   2   3
ATOM      3  C   UNL     1      48.490   8.009  13.844  0.00  0.00    +0.000 A 
ATOM      4  C   UNL     1      48.192   9.041  14.749  0.00  0.00    +0.000 A 
ATOM      5  C   UNL     1      48.445   8.867  16.120  0.00  0.00    +0.000 A 
ATOM      6  C   UNL     1      48.837   7.615  16.613  0.00  0.00    +0.000 A 
ATOM      7  C   UNL     1      48.935   6.581  15.684  0.00  0.00    +0.000 A 
ATOM      8 CL   UNL     1      47.910   5.168  15.912  0.00  0.00    +0.000 Cl
ATOM      9  C   UNL     1      49.078   6.846  14.327  0.00  0.00    +0.000 A 
BRANCH   6  10
ATOM     10  O   UNL     1      48.814   7.480  17.968  0.00  0.00    +0.000 OA
BRANCH  10  11
ATOM     11  C   UNL     1      47.608   7.454  18.757  0.00  0.00    +0.000 C 
ATOM     12  C   UNL     1      47.323   8.651  19.663  0.00  0.00    +0.000 C 
ATOM     13  C   UNL     1      47.832   8.459  21.082  0.00  0.00    +0.000 C 
ATOM     14  N   UNL     1      47.355   7.237  21.715  0.00  0.00    +0.000 NA
ATOM     15  C   UNL     1      47.510   6.029  20.918  0.00  0.00    +0.000 C 
ATOM     16  C   UNL     1      47.215   6.134  19.417  0.00  0.00    +0.000 C 
ATOM     17  H   UNL     1      46.396   7.332  22.037  0.00  0.00    +0.000 HD
ENDBRANCH  10  11
ENDBRANCH   6  10
ENDBRANCH   2   3
BRANCH   2  18
ATOM     18  N   UNL     1      47.165   6.750  12.229  0.00  0.00    +0.000 N 
ATOM     19  C   UNL     1      45.863   6.798  11.800  0.00  0.00    +0.000 C 
ATOM     20  O   UNL     1      45.306   7.831  11.440  0.00  0.00    +0.000 OA
ATOM     21  H   UNL     1      47.425   5.976  12.829  0.00  0.00    +0.000 HD
BRANCH  19  22
ATOM     22  C   UNL     1      45.184   5.500  11.729  0.00  0.00    +0.000 A 
ATOM     23  C   UNL     1      44.550   4.995  12.854  0.00  0.00    +0.000 A 
ATOM     24  S   UNL     1      43.755   3.515  12.569  0.00  0.00    +0.000 S 
ATOM     25  C   UNL     1      44.282   3.479  10.949  0.00  0.00    +0.000 A 
ATOM     26  N   UNL     1      43.950   2.448  10.125  0.00  0.00    +0.000 NA
ATOM     27  C   UNL     1      44.424   2.550   8.927  0.00  0.00    +0.000 A 
ATOM     28  N   UNL     1      45.206   3.583   8.479  0.00  0.00    +0.000 N 
ATOM     29  C   UNL     1      45.555   4.648   9.269  0.00  0.00    +0.000 A 
ATOM     30  O   UNL     1      46.235   5.574   8.829  0.00  0.00    +0.000 OA
ATOM     31  C   UNL     1      45.042   4.587  10.624  0.00  0.00    +0.000 A 
ATOM     32  H   UNL     1      45.544   3.605   7.528  0.00  0.00    +0.000 HD
ENDBRANCH  19  22
ENDBRANCH   2  18
TORSDOF 5
ENDMDL
MODEL 4
REMARK VINA RESULT:    -8.307      4.266     10.076
REMARK INTER + INTRA:         -10.132
REMARK INTER:                  -8.768
REMARK INTRA:                  -1.365
REMARK UNBOUND:                 0.603
REMARK  Name = 
REMARK  6 active torsions:
REMARK  status: ('A' for Active; 'I' for Inactive)
REMARK    1  A    between atoms: C_1  and  C_2
REMARK    2  A    between atoms: C_2  and  N_3
REMARK    3  A    between atoms: C_2  and  C_16
REMARK    4  A    between atoms: C_4  and  C_6
REMARK    5  A    between atoms: C_19  and  O_20
REMARK    6  A    between atoms: O_20  and  C_21
REMARK                            x       y       z     vdW  Elec       q    Type
REMARK                         _______ _______ _______ _____ _____    ______ ____
ROOT
ATOM      1  C   UNL     1      47.964   3.176  16.818  0.00  0.00    +0.000 C 
ATOM      2  C   UNL     1      48.066   4.595  16.241  0.00  0.00    +0.000 C 
ENDROOT
BRANCH   2   3
ATOM      3  C   UNL     1      47.909   5.597  17.375  0.00  0.00    +0.000 A 
ATOM      4  C   UNL     1      47.118   5.362  18.511  0.00  0.00    +0.000 A 
ATOM      5  C   UNL     1      47.286   6.152  19.660  0.00  0.00    +0.000 A 
ATOM      6  C   UNL     1      48.347   7.065  19.742  0.00  0.00    +0.000 A 
ATOM      7  C   UNL     1      49.210   7.117  18.649  0.00  0.00    +0.000 A 
ATOM      8 CL   UNL     1      50.908   6.741  18.920  0.00  0.00    +0.000 Cl
ATOM      9  C   UNL     1      48.816   6.650  17.401  0.00  0.00    +0.000 A 
BRANCH   6  10
ATOM     10  O   UNL     1      48.576   7.596  20.975  0.00  0.00    +0.000 OA
BRANCH  10  11
ATOM     11  C   UNL     1      48.378   8.985  21.305  0.00  0.00    +0.000 C 
ATOM     12  C   UNL     1      46.948   9.523  21.301  0.00  0.00    +0.000 C 
ATOM     13  C   UNL     1      46.549  10.149  19.975  0.00  0.00    +0.000 C 
ATOM     14  N   UNL     1      47.466  11.184  19.517  0.00  0.00    +0.000 NA
ATOM     15  C   UNL     1      48.874  10.813  19.538  0.00  0.00    +0.000 C 
ATOM     16  C   UNL     1      49.369  10.001  20.740  0.00  0.00    +0.000 C 
ATOM     17  H   UNL     1      47.319  12.059  20.011  0.00  0.00    +0.000 HD
ENDBRANCH  10  11
ENDBRANCH   6  10
ENDBRANCH   2   3
BRANCH   2  18
ATOM     18  N   UNL     1      47.122   4.855  15.189  0.00  0.00    +0.000 N 
ATOM     19  C   UNL     1      47.459   5.618  14.100  0.00  0.00    +0.000 C 
ATOM     20  O   UNL     1      48.598   6.020  13.880  0.00  0.00    +0.000 OA
ATOM     21  H   UNL     1      46.154   4.875  15.485  0.00  0.00    +0.000 HD
BRANCH  19  22
ATOM     22  C   UNL     1      46.366   5.870  13.155  0.00  0.00    +0.000 A 
ATOM     23  C   UNL     1      46.029   7.175  12.829  0.00  0.00    +0.000 A 
ATOM     24  S   UNL     1      44.788   7.277  11.666  0.00  0.00    +0.000 S 
ATOM     25  C   UNL     1      44.627   5.581  11.607  0.00  0.00    +0.000 A 
ATOM     26  N   UNL     1      43.709   4.991  10.794  0.00  0.00    +0.000 NA
ATOM     27  C   UNL     1      43.693   3.700  10.857  0.00  0.00    +0.000 A 
ATOM     28  N   UNL     1      44.506   2.946  11.664  0.00  0.00    +0.000 N 
ATOM     29  C   UNL     1      45.452   3.496  12.489  0.00  0.00    +0.000 A 
ATOM     30  O   UNL     1      46.185   2.790  13.179  0.00  0.00    +0.000 OA
ATOM     31  C   UNL     1      45.517   4.944  12.451  0.00  0.00    +0.000 A 
ATOM     32  H   UNL     1      44.446   1.938  11.665  0.00  0.00    +0.000 HD
ENDBRANCH  19  22
ENDBRANCH   2  18
TORSDOF 5
ENDMDL
MODEL 5
REMARK VINA RESULT:    -8.134      3.265      8.745
REMARK INTER + INTRA:          -9.909
REMARK INTER:                  -8.436
REMARK INTRA:                  -1.473
REMARK UNBOUND:                 0.603
REMARK  Name = 
REMARK  6 active torsions:
REMARK  status: ('A' for Active; 'I' for Inactive)
REMARK    1  A    between atoms: C_1  and  C_2
REMARK    2  A    between atoms: C_2  and  N_3
REMARK    3  A    between atoms: C_2  and  C_16
REMARK    4  A    between atoms: C_4  and  C_6
REMARK    5  A    between atoms: C_19  and  O_20
REMARK    6  A    between atoms: O_20  and  C_21
REMARK                            x       y       z     vdW  Elec       q    Type
REMARK                         _______ _______ _______ _____ _____    ______ ____
ROOT
ATOM      1  C   UNL     1      48.896   8.164  11.418  0.00  0.00    +0.000 C 
ATOM      2  C   UNL     1      47.773   7.866  12.422  0.00  0.00    +0.000 C 
ENDROOT
BRANCH   2   3
ATOM      3  C   UNL     1      48.374   7.787  13.818  0.00  0.00    +0.000 A 
ATOM      4  C   UNL     1      48.213   8.791  14.787  0.00  0.00    +0.000 A 
ATOM      5  C   UNL     1      48.483   8.514  16.137  0.00  0.00    +0.000 A 
ATOM      6  C   UNL     1      48.752   7.201  16.549  0.00  0.00    +0.000 A 
ATOM      7  C   UNL     1      48.713   6.217  15.564  0.00  0.00    +0.000 A 
ATOM      8 CL   UNL     1      47.550   4.909  15.749  0.00  0.00    +0.000 Cl
ATOM      9  C   UNL     1      48.847   6.543  14.219  0.00  0.00    +0.000 A 
BRANCH   6  10
ATOM     10  O   UNL     1      48.751   6.993  17.895  0.00  0.00    +0.000 OA
BRANCH  10  11
ATOM     11  C   UNL     1      49.782   6.274  18.602  0.00  0.00    +0.000 C 
ATOM     12  C   UNL     1      51.237   6.612  18.280  0.00  0.00    +0.000 C 
ATOM     13  C   UNL     1      51.836   5.712  17.211  0.00  0.00    +0.000 C 
ATOM     14  N   UNL     1      51.715   4.291  17.508  0.00  0.00    +0.000 NA
ATOM     15  C   UNL     1      50.381   3.854  17.896  0.00  0.00    +0.000 C 
ATOM     16  C   UNL     1      49.582   4.776  18.825  0.00  0.00    +0.000 C 
ATOM     17  H   UNL     1      52.403   3.991  18.193  0.00  0.00    +0.000 HD
ENDBRANCH  10  11
ENDBRANCH   6  10
ENDBRANCH   2   3
BRANCH   2  18
ATOM     18  N   UNL     1      47.029   6.677  12.113  0.00  0.00    +0.000 N 
ATOM     19  C   UNL     1      45.657   6.671  12.120  0.00  0.00    +0.000 C 
ATOM     20  O   UNL     1      44.976   7.683  12.261  0.00  0.00    +0.000 OA
ATOM     21  H   UNL     1      47.496   5.811  12.355  0.00  0.00    +0.000 HD
BRANCH  19  22
ATOM     22  C   UNL     1      45.040   5.364  11.874  0.00  0.00    +0.000 A 
ATOM     23  C   UNL     1      44.375   4.714  12.903  0.00  0.00    +0.000 A 
ATOM     24  S   UNL     1      43.660   3.246  12.420  0.00  0.00    +0.000 S 
ATOM     25  C   UNL     1      44.266   3.408  10.835  0.00  0.00    +0.000 A 
ATOM     26  N   UNL     1      44.020   2.461   9.889  0.00  0.00    +0.000 NA
ATOM     27  C   UNL     1      44.547   2.711   8.736  0.00  0.00    +0.000 A 
ATOM     28  N   UNL     1      45.304   3.816   8.443  0.00  0.00    +0.000 N 
ATOM     29  C   UNL     1      45.567   4.801   9.361  0.00  0.00    +0.000 A 
ATOM     30  O   UNL     1      46.226   5.795   9.059  0.00  0.00    +0.000 OA
ATOM     31  C   UNL     1      44.992   4.573  10.672  0.00  0.00    +0.000 A 
ATOM     32  H   UNL     1      45.686   3.955   7.520  0.00  0.00    +0.000 HD
ENDBRANCH  19  22
ENDBRANCH   2  18
TORSDOF 5
ENDMDL
MODEL 6
REMARK VINA RESULT:    -7.961      3.421      4.726
REMARK INTER + INTRA:          -9.685
REMARK INTER:                  -8.734
REMARK INTRA:                  -0.951
REMARK UNBOUND:                 0.603
REMARK  Name = 
REMARK  6 active torsions:
REMARK  status: ('A' for Active; 'I' for Inactive)
REMARK    1  A    between atoms: C_1  and  C_2
REMARK    2  A    between atoms: C_2  and  N_3
REMARK    3  A    between atoms: C_2  and  C_16
REMARK    4  A    between atoms: C_4  and  C_6
REMARK    5  A    between atoms: C_19  and  O_20
REMARK    6  A    between atoms: O_20  and  C_21
REMARK                            x       y       z     vdW  Elec       q    Type
REMARK                         _______ _______ _______ _____ _____    ______ ____
ROOT
ATOM      1  C   UNL     1      49.490   8.336  13.357  0.00  0.00    +0.000 C 
ATOM      2  C   UNL     1      48.964   7.043  13.997  0.00  0.00    +0.000 C 
ENDROOT
BRANCH   2   3
ATOM      3  C   UNL     1      47.763   6.555  13.199  0.00  0.00    +0.000 A 
ATOM      4  C   UNL     1      46.911   5.527  13.635  0.00  0.00    +0.000 A 
ATOM      5  C   UNL     1      45.648   5.363  13.042  0.00  0.00    +0.000 A 
ATOM      6  C   UNL     1      45.164   6.315  12.135  0.00  0.00    +0.000 A 
ATOM      7  C   UNL     1      45.984   7.413  11.885  0.00  0.00    +0.000 A 
ATOM      8 CL   UNL     1      45.360   9.014  12.268  0.00  0.00    +0.000 Cl
ATOM      9  C   UNL     1      47.349   7.364  12.147  0.00  0.00    +0.000 A 
BRANCH   6  10
ATOM     10  O   UNL     1      43.846   6.205  11.811  0.00  0.00    +0.000 OA
BRANCH  10  11
ATOM     11  C   UNL     1      43.297   5.140  11.010  0.00  0.00    +0.000 C 
ATOM     12  C   UNL     1      42.652   3.960  11.737  0.00  0.00    +0.000 C 
ATOM     13  C   UNL     1      43.615   2.808  11.975  0.00  0.00    +0.000 C 
ATOM     14  N   UNL     1      44.276   2.338  10.765  0.00  0.00    +0.000 NA
ATOM     15  C   UNL     1      44.876   3.382   9.946  0.00  0.00    +0.000 C 
ATOM     16  C   UNL     1      44.089   4.688   9.784  0.00  0.00    +0.000 C 
ATOM     17  H   UNL     1      43.663   1.753  10.206  0.00  0.00    +0.000 HD
ENDBRANCH  10  11
ENDBRANCH   6  10
ENDBRANCH   2   3
BRANCH   2  18
ATOM     18  N   UNL     1      48.635   7.184  15.388  0.00  0.00    +0.000 N 
ATOM     19  C   UNL     1      49.473   6.722  16.371  0.00  0.00    +0.000 C 
ATOM     20  O   UNL     1      50.597   6.279  16.150  0.00  0.00    +0.000 OA
ATOM     21  H   UNL     1      47.642   7.185  15.590  0.00  0.00    +0.000 HD
BRANCH  19  22
ATOM     22  C   UNL     1      48.961   6.856  17.739  0.00  0.00    +0.000 A 
ATOM     23  C   UNL     1      48.462   8.077  18.167  0.00  0.00    +0.000 A 
ATOM     24  S   UNL     1      47.847   8.030  19.754  0.00  0.00    +0.000 S 
ATOM     25  C   UNL     1      48.281   6.393  19.936  0.00  0.00    +0.000 A 
ATOM     26  N   UNL     1      48.037   5.725  21.096  0.00  0.00    +0.000 NA
ATOM     27  C   UNL     1      48.427   4.493  21.094  0.00  0.00    +0.000 A 
ATOM     28  N   UNL     1      49.044   3.868  20.041  0.00  0.00    +0.000 N 
ATOM     29  C   UNL     1      49.299   4.497  18.850  0.00  0.00    +0.000 A 
ATOM     30  O   UNL     1      49.829   3.901  17.914  0.00  0.00    +0.000 OA
ATOM     31  C   UNL     1      48.875   5.883  18.796  0.00  0.00    +0.000 A 
ATOM     32  H   UNL     1      49.322   2.900  20.101  0.00  0.00    +0.000 HD
ENDBRANCH  19  22
ENDBRANCH   2  18
TORSDOF 5
ENDMDL
MODEL 7
REMARK VINA RESULT:    -7.884      3.523      5.158
REMARK INTER + INTRA:          -9.586
REMARK INTER:                  -8.328
REMARK INTRA:                  -1.258
REMARK UNBOUND:                 0.603
REMARK  Name = 
REMARK  6 active torsions:
REMARK  status: ('A' for Active; 'I' for Inactive)
REMARK    1  A    between atoms: C_1  and  C_2
REMARK    2  A    between atoms: C_2  and  N_3
REMARK    3  A    between atoms: C_2  and  C_16
REMARK    4  A    between atoms: C_4  and  C_6
REMARK    5  A    between atoms: C_19  and  O_20
REMARK    6  A    between atoms: O_20  and  C_21
REMARK                            x       y       z     vdW  Elec       q    Type
REMARK                         _______ _______ _______ _____ _____    ______ ____
ROOT
ATOM      1  C   UNL     1      49.486   8.288  13.505  0.00  0.00    +0.000 C 
ATOM      2  C   UNL     1      48.933   7.003  14.136  0.00  0.00    +0.000 C 
ENDROOT
BRANCH   2   3
ATOM      3  C   UNL     1      47.759   6.512  13.301  0.00  0.00    +0.000 A 
ATOM      4  C   UNL     1      46.863   5.521  13.733  0.00  0.00    +0.000 A 
ATOM      5  C   UNL     1      45.626   5.363  13.088  0.00  0.00    +0.000 A 
ATOM      6  C   UNL     1      45.207   6.291  12.126  0.00  0.00    +0.000 A 
ATOM      7  C   UNL     1      46.064   7.361  11.875  0.00  0.00    +0.000 A 
ATOM      8 CL   UNL     1      45.461   8.988  12.170  0.00  0.00    +0.000 Cl
ATOM      9  C   UNL     1      47.413   7.291  12.203  0.00  0.00    +0.000 A 
BRANCH   6  10
ATOM     10  O   UNL     1      43.903   6.199  11.744  0.00  0.00    +0.000 OA
BRANCH  10  11
ATOM     11  C   UNL     1      43.377   5.145  10.913  0.00  0.00    +0.000 C 
ATOM     12  C   UNL     1      42.697   3.963  11.604  0.00  0.00    +0.000 C 
ATOM     13  C   UNL     1      43.642   2.802  11.867  0.00  0.00    +0.000 C 
ATOM     14  N   UNL     1      44.345   2.339  10.678  0.00  0.00    +0.000 NA
ATOM     15  C   UNL     1      44.983   3.386   9.893  0.00  0.00    +0.000 C 
ATOM     16  C   UNL     1      44.211   4.699   9.713  0.00  0.00    +0.000 C 
ATOM     17  H   UNL     1      43.749   1.763  10.091  0.00  0.00    +0.000 HD
ENDBRANCH  10  11
ENDBRANCH   6  10
ENDBRANCH   2   3
BRANCH   2  18
ATOM     18  N   UNL     1      48.556   7.157  15.514  0.00  0.00    +0.000 N 
ATOM     19  C   UNL     1      49.305   6.611  16.525  0.00  0.00    +0.000 C 
ATOM     20  O   UNL     1      50.394   6.071  16.346  0.00  0.00    +0.000 OA
ATOM     21  H   UNL     1      47.559   7.244  15.673  0.00  0.00    +0.000 HD
BRANCH  19  22
ATOM     22  C   UNL     1      48.747   6.775  17.871  0.00  0.00    +0.000 A 
ATOM     23  C   UNL     1      48.673   5.683  18.722  0.00  0.00    +0.000 A 
ATOM     24  S   UNL     1      48.067   6.073  20.265  0.00  0.00    +0.000 S 
ATOM     25  C   UNL     1      47.832   7.701  19.823  0.00  0.00    +0.000 A 
ATOM     26  N   UNL     1      47.317   8.601  20.705  0.00  0.00    +0.000 NA
ATOM     27  C   UNL     1      47.188   9.796  20.231  0.00  0.00    +0.000 A 
ATOM     28  N   UNL     1      47.518  10.174  18.955  0.00  0.00    +0.000 N 
ATOM     29  C   UNL     1      48.051   9.305  18.038  0.00  0.00    +0.000 A 
ATOM     30  O   UNL     1      48.364   9.681  16.909  0.00  0.00    +0.000 OA
ATOM     31  C   UNL     1      48.224   7.949  18.521  0.00  0.00    +0.000 A 
ATOM     32  H   UNL     1      47.395  11.127  18.647  0.00  0.00    +0.000 HD
ENDBRANCH  19  22
ENDBRANCH   2  18
TORSDOF 5
ENDMDL
MODEL 8
REMARK VINA RESULT:    -7.544      4.790     10.048
REMARK INTER + INTRA:          -9.147
REMARK INTER:                  -7.706
REMARK INTRA:                  -1.441
REMARK UNBOUND:                 0.603
REMARK  Name = 
REMARK  6 active torsions:
REMARK  status: ('A' for Active; 'I' for Inactive)
REMARK    1  A    between atoms: C_1  and  C_2
REMARK    2  A    between atoms: C_2  and  N_3
REMARK    3  A    between atoms: C_2  and  C_16
REMARK    4  A    between atoms: C_4  and  C_6
REMARK    5  A    between atoms: C_19  and  O_20
REMARK    6  A    between atoms: O_20  and  C_21
REMARK                            x       y       z     vdW  Elec       q    Type
REMARK                         _______ _______ _______ _____ _____    ______ ____
ROOT
ATOM      1  C   UNL     1      47.215   3.126  17.408  0.00  0.00    +0.000 C 
ATOM      2  C   UNL     1      47.818   4.189  16.479  0.00  0.00    +0.000 C 
ENDROOT
BRANCH   2   3
ATOM      3  C   UNL     1      48.411   5.303  17.331  0.00  0.00    +0.000 A 
ATOM      4  C   UNL     1      48.240   5.387  18.722  0.00  0.00    +0.000 A 
ATOM      5  C   UNL     1      49.081   6.216  19.484  0.00  0.00    +0.000 A 
ATOM      6  C   UNL     1      50.193   6.831  18.892  0.00  0.00    +0.000 A 
ATOM      7  C   UNL     1      50.414   6.556  17.544  0.00  0.00    +0.000 A 
ATOM      8 CL   UNL     1      51.932   5.787  17.097  0.00  0.00    +0.000 Cl
ATOM      9  C   UNL     1      49.389   6.087  16.730  0.00  0.00    +0.000 A 
BRANCH   6  10
ATOM     10  O   UNL     1      51.080   7.402  19.753  0.00  0.00    +0.000 OA
BRANCH  10  11
ATOM     11  C   UNL     1      50.960   8.745  20.262  0.00  0.00    +0.000 C 
ATOM     12  C   UNL     1      50.692   8.920  21.756  0.00  0.00    +0.000 C 
ATOM     13  C   UNL     1      49.214   9.043  22.087  0.00  0.00    +0.000 C 
ATOM     14  N   UNL     1      48.531  10.090  21.338  0.00  0.00    +0.000 NA
ATOM     15  C   UNL     1      48.764  10.070  19.901  0.00  0.00    +0.000 C 
ATOM     16  C   UNL     1      50.187   9.760  19.422  0.00  0.00    +0.000 C 
ATOM     17  H   UNL     1      48.727  11.011  21.719  0.00  0.00    +0.000 HD
ENDBRANCH  10  11
ENDBRANCH   6  10
ENDBRANCH   2   3
BRANCH   2  18
ATOM     18  N   UNL     1      46.881   4.714  15.524  0.00  0.00    +0.000 N 
ATOM     19  C   UNL     1      46.772   4.182  14.265  0.00  0.00    +0.000 C 
ATOM     20  O   UNL     1      47.358   3.164  13.906  0.00  0.00    +0.000 OA
ATOM     21  H   UNL     1      46.680   5.701  15.628  0.00  0.00    +0.000 HD
BRANCH  19  22
ATOM     22  C   UNL     1      45.839   4.879  13.374  0.00  0.00    +0.000 A 
ATOM     23  C   UNL     1      44.750   4.197  12.853  0.00  0.00    +0.000 A 
ATOM     24  S   UNL     1      43.736   5.180  11.900  0.00  0.00    +0.000 S 
ATOM     25  C   UNL     1      44.754   6.531  12.110  0.00  0.00    +0.000 A 
ATOM     26  N   UNL     1      44.461   7.728  11.532  0.00  0.00    +0.000 NA
ATOM     27  C   UNL     1      45.324   8.659  11.771  0.00  0.00    +0.000 A 
ATOM     28  N   UNL     1      46.457   8.503  12.527  0.00  0.00    +0.000 N 
ATOM     29  C   UNL     1      46.785   7.321  13.138  0.00  0.00    +0.000 A 
ATOM     30  O   UNL     1      47.794   7.221  13.834  0.00  0.00    +0.000 OA
ATOM     31  C   UNL     1      45.845   6.241  12.908  0.00  0.00    +0.000 A 
ATOM     32  H   UNL     1      47.091   9.274  12.678  0.00  0.00    +0.000 HD
ENDBRANCH  19  22
ENDBRANCH   2  18
TORSDOF 5
ENDMDL
MODEL 9
REMARK VINA RESULT:    -7.527      4.611     10.001
REMARK INTER + INTRA:          -9.125
REMARK INTER:                  -8.092
REMARK INTRA:                  -1.033
REMARK UNBOUND:                 0.603
REMARK  Name = 
REMARK  6 active torsions:
REMARK  status: ('A' for Active; 'I' for Inactive)
REMARK    1  A    between atoms: C_1  and  C_2
REMARK    2  A    between atoms: C_2  and  N_3
REMARK    3  A    between atoms: C_2  and  C_16
REMARK    4  A    between atoms: C_4  and  C_6
REMARK    5  A    between atoms: C_19  and  O_20
REMARK    6  A    between atoms: O_20  and  C_21
REMARK                            x       y       z     vdW  Elec       q    Type
REMARK                         _______ _______ _______ _____ _____    ______ ____
ROOT
ATOM      1  C   UNL     1      47.180   3.085  17.093  0.00  0.00    +0.000 C 
ATOM      2  C   UNL     1      47.934   4.162  16.301  0.00  0.00    +0.000 C 
ENDROOT
BRANCH   2   3
ATOM      3  C   UNL     1      48.663   5.070  17.281  0.00  0.00    +0.000 A 
ATOM      4  C   UNL     1      48.291   5.212  18.628  0.00  0.00    +0.000 A 
ATOM      5  C   UNL     1      49.189   5.775  19.549  0.00  0.00    +0.000 A 
ATOM      6  C   UNL     1      50.512   6.045  19.173  0.00  0.00    +0.000 A 
ATOM      7  C   UNL     1      50.871   5.707  17.870  0.00  0.00    +0.000 A 
ATOM      8 CL   UNL     1      52.166   4.535  17.649  0.00  0.00    +0.000 Cl
ATOM      9  C   UNL     1      49.909   5.539  16.881  0.00  0.00    +0.000 A 
BRANCH   6  10
ATOM     10  O   UNL     1      51.365   6.350  20.190  0.00  0.00    +0.000 OA
BRANCH  10  11
ATOM     11  C   UNL     1      51.696   7.694  20.591  0.00  0.00    +0.000 C 
ATOM     12  C   UNL     1      50.790   8.377  21.613  0.00  0.00    +0.000 C 
ATOM     13  C   UNL     1      49.696   9.217  20.974  0.00  0.00    +0.000 C 
ATOM     14  N   UNL     1      50.194  10.201  20.022  0.00  0.00    +0.000 NA
ATOM     15  C   UNL     1      51.126   9.682  19.031  0.00  0.00    +0.000 C 
ATOM     16  C   UNL     1      52.168   8.664  19.510  0.00  0.00    +0.000 C 
ATOM     17  H   UNL     1      50.587  11.011  20.492  0.00  0.00    +0.000 HD
ENDBRANCH  10  11
ENDBRANCH   6  10
ENDBRANCH   2   3
BRANCH   2  18
ATOM     18  N   UNL     1      47.090   4.924  15.423  0.00  0.00    +0.000 N 
ATOM     19  C   UNL     1      46.912   4.563  14.112  0.00  0.00    +0.000 C 
ATOM     20  O   UNL     1      47.344   3.518  13.632  0.00  0.00    +0.000 OA
ATOM     21  H   UNL     1      47.034   5.912  15.642  0.00  0.00    +0.000 HD
BRANCH  19  22
ATOM     22  C   UNL     1      46.095   5.487  13.318  0.00  0.00    +0.000 A 
ATOM     23  C   UNL     1      46.523   6.792  13.130  0.00  0.00    +0.000 A 
ATOM     24  S   UNL     1      45.490   7.699  12.125  0.00  0.00    +0.000 S 
ATOM     25  C   UNL     1      44.411   6.391  11.957  0.00  0.00    +0.000 A 
ATOM     26  N   UNL     1      43.279   6.504  11.211  0.00  0.00    +0.000 NA
ATOM     27  C   UNL     1      42.552   5.436  11.180  0.00  0.00    +0.000 A 
ATOM     28  N   UNL     1      42.849   4.267  11.831  0.00  0.00    +0.000 N 
ATOM     29  C   UNL     1      43.983   4.103  12.583  0.00  0.00    +0.000 A 
ATOM     30  O   UNL     1      44.236   3.032  13.133  0.00  0.00    +0.000 OA
ATOM     31  C   UNL     1      44.840   5.272  12.647  0.00  0.00    +0.000 A 
ATOM     32  H   UNL     1      42.240   3.465  11.764  0.00  0.00    +0.000 HD
ENDBRANCH  19  22
ENDBRANCH   2  18
TORSDOF 5
ENDMDL
