MODEL 1
REMARK VINA RESULT:    -8.031      0.000      0.000
REMARK INTER + INTRA:         -12.356
REMARK INTER:                 -11.317
REMARK INTRA:                  -1.039
REMARK UNBOUND:                -1.039
REMARK  Name = 
REMARK  7 active torsions:
REMARK  status: ('A' for Active; 'I' for Inactive)
REMARK    1  A    between atoms: C_2  and  C_3
REMARK    2  A    between atoms: C_6  and  O_7
REMARK    3  A    between atoms: O_7  and  C_8
REMARK    4  A    between atoms: C_8  and  C_9
REMARK    5  A    between atoms: C_9  and  C_10
REMARK    6  A    between atoms: C_14  and  O_15
REMARK    7  A    between atoms: O_15  and  C_16
REMARK                            x       y       z     vdW  Elec       q    Type
REMARK                         _______ _______ _______ _____ _____    ______ ____
ROOT
ATOM      1  C   UNL     1      43.751   4.526  12.493  0.00  0.00    +0.000 C 
ENDROOT
BRANCH   1   2
ATOM      2  C   UNL     1      45.136   5.112  12.624  0.00  0.00    +0.000 A 
ATOM      3  C   UNL     1      45.606   6.044  11.692  0.00  0.00    +0.000 A 
ATOM      4  C   UNL     1      46.870   6.619  11.843  0.00  0.00    +0.000 A 
ATOM      5  C   UNL     1      47.685   6.270  12.928  0.00  0.00    +0.000 A 
ATOM      6  C   UNL     1      47.229   5.340  13.858  0.00  0.00    +0.000 A 
ATOM      7  C   UNL     1      45.958   4.773  13.709  0.00  0.00    +0.000 A 
BRANCH   6   8
ATOM      8  O   UNL     1      47.915   4.945  14.979  0.00  0.00    +0.000 OA
BRANCH   8   9
ATOM      9  C   UNL     1      47.251   4.147  15.982  0.00  0.00    +0.000 C 
ATOM     10  C   UNL     1      47.403   4.591  17.459  0.00  0.00    +0.000 C 
ATOM     11  C   UNL     1      47.661   3.123  17.837  0.00  0.00    +0.000 C 
ATOM     12  C   UNL     1      48.032   2.861  16.371  0.00  0.00    +0.000 C 
ENDBRANCH   8   9
ENDBRANCH   6   8
ENDBRANCH   1   2
BRANCH   1  13
ATOM     13  C   UNL     1      43.744   3.286  11.598  0.00  0.00    +0.000 C 
BRANCH  13  14
ATOM     14  O   UNL     1      43.531   3.684  10.238  0.00  0.00    +0.000 OA
BRANCH  14  18
ATOM     15  C   UNL     1      46.506   2.431   7.584  0.00  0.00    +0.000 A 
ATOM     16  C   UNL     1      46.188   3.791   7.640  0.00  0.00    +0.000 A 
ATOM     17  C   UNL     1      45.197   4.251   8.515  0.00  0.00    +0.000 A 
ATOM     18  C   UNL     1      44.516   3.356   9.343  0.00  0.00    +0.000 A 
ATOM     19  C   UNL     1      44.837   1.997   9.285  0.00  0.00    +0.000 A 
ATOM     20  C   UNL     1      45.827   1.533   8.411  0.00  0.00    +0.000 A 
BRANCH  15  22
ATOM     21  N   UNL     1      48.348   1.595   5.959  0.00  0.00    +0.000 NA
ATOM     22  C   UNL     1      47.521   1.966   6.686  0.00  0.00    +0.000 C 
ENDBRANCH  15  22
ENDBRANCH  14  18
ENDBRANCH  13  14
ENDBRANCH   1  13
TORSDOF 7
ENDMDL
MODEL 2
REMARK VINA RESULT:    -7.066      0.741      1.295
REMARK INTER + INTRA:         -10.997
REMARK INTER:                 -10.075
REMARK INTRA:                  -0.921
REMARK UNBOUND:                -1.039
REMARK  Name = 
REMARK  7 active torsions:
REMARK  status: ('A' for Active; 'I' for Inactive)
REMARK    1  A    between atoms: C_2  and  C_3
REMARK    2  A    between atoms: C_6  and  O_7
REMARK    3  A    between atoms: O_7  and  C_8
REMARK    4  A    between atoms: C_8  and  C_9
REMARK    5  A    between atoms: C_9  and  C_10
REMARK    6  A    between atoms: C_14  and  O_15
REMARK    7  A    between atoms: O_15  and  C_16
REMARK                            x       y       z     vdW  Elec       q    Type
REMARK                         _______ _______ _______ _____ _____    ______ ____
ROOT
ATOM      1  C   UNL     1      44.587   4.494  12.200  0.00  0.00    +0.000 C 
ENDROOT
BRANCH   1   2
ATOM      2  C   UNL     1      45.774   5.309  12.657  0.00  0.00    +0.000 A 
ATOM      3  C   UNL     1      46.062   6.541  12.060  0.00  0.00    +0.000 A 
ATOM      4  C   UNL     1      47.133   7.314  12.518  0.00  0.00    +0.000 A 
ATOM      5  C   UNL     1      47.932   6.865  13.576  0.00  0.00    +0.000 A 
ATOM      6  C   UNL     1      47.657   5.638  14.173  0.00  0.00    +0.000 A 
ATOM      7  C   UNL     1      46.577   4.871  13.719  0.00  0.00    +0.000 A 
BRANCH   6   8
ATOM      8  O   UNL     1      48.341   5.108  15.239  0.00  0.00    +0.000 OA
BRANCH   8   9
ATOM      9  C   UNL     1      47.624   4.727  16.433  0.00  0.00    +0.000 C 
ATOM     10  C   UNL     1      47.853   5.584  17.703  0.00  0.00    +0.000 C 
ATOM     11  C   UNL     1      47.973   4.284  18.516  0.00  0.00    +0.000 C 
ATOM     12  C   UNL     1      48.282   3.550  17.204  0.00  0.00    +0.000 C 
ENDBRANCH   8   9
ENDBRANCH   6   8
ENDBRANCH   1   2
BRANCH   1  13
ATOM     13  C   UNL     1      43.950   5.081  10.940  0.00  0.00    +0.000 C 
BRANCH  13  14
ATOM     14  O   UNL     1      43.505   4.016  10.093  0.00  0.00    +0.000 OA
BRANCH  14  18
ATOM     15  C   UNL     1      46.471   2.444   7.603  0.00  0.00    +0.000 A 
ATOM     16  C   UNL     1      45.739   1.567   8.407  0.00  0.00    +0.000 A 
ATOM     17  C   UNL     1      44.737   2.054   9.256  0.00  0.00    +0.000 A 
ATOM     18  C   UNL     1      44.458   3.421   9.306  0.00  0.00    +0.000 A 
ATOM     19  C   UNL     1      45.192   4.295   8.500  0.00  0.00    +0.000 A 
ATOM     20  C   UNL     1      46.195   3.813   7.651  0.00  0.00    +0.000 A 
BRANCH  15  22
ATOM     21  N   UNL     1      48.322   1.535   6.028  0.00  0.00    +0.000 NA
ATOM     22  C   UNL     1      47.495   1.940   6.736  0.00  0.00    +0.000 C 
ENDBRANCH  15  22
ENDBRANCH  14  18
ENDBRANCH  13  14
ENDBRANCH   1  13
TORSDOF 7
ENDMDL
MODEL 3
REMARK VINA RESULT:    -6.818      2.828      5.037
REMARK INTER + INTRA:         -10.646
REMARK INTER:                  -9.925
REMARK INTRA:                  -0.721
REMARK UNBOUND:                -1.039
REMARK  Name = 
REMARK  7 active torsions:
REMARK  status: ('A' for Active; 'I' for Inactive)
REMARK    1  A    between atoms: C_2  and  C_3
REMARK    2  A    between atoms: C_6  and  O_7
REMARK    3  A    between atoms: O_7  and  C_8
REMARK    4  A    between atoms: C_8  and  C_9
REMARK    5  A    between atoms: C_9  and  C_10
REMARK    6  A    between atoms: C_14  and  O_15
REMARK    7  A    between atoms: O_15  and  C_16
REMARK                            x       y       z     vdW  Elec       q    Type
REMARK                         _______ _______ _______ _____ _____    ______ ____
ROOT
ATOM      1  C   UNL     1      44.933   4.882  11.808  0.00  0.00    +0.000 C 
ENDROOT
BRANCH   1   2
ATOM      2  C   UNL     1      45.520   6.203  12.245  0.00  0.00    +0.000 A 
ATOM      3  C   UNL     1      46.788   6.257  12.836  0.00  0.00    +0.000 A 
ATOM      4  C   UNL     1      47.347   7.487  13.195  0.00  0.00    +0.000 A 
ATOM      5  C   UNL     1      46.648   8.679  12.971  0.00  0.00    +0.000 A 
ATOM      6  C   UNL     1      45.385   8.635  12.388  0.00  0.00    +0.000 A 
ATOM      7  C   UNL     1      44.831   7.403  12.020  0.00  0.00    +0.000 A 
BRANCH   6   8
ATOM      8  O   UNL     1      44.618   9.732  12.083  0.00  0.00    +0.000 OA
BRANCH   8   9
ATOM      9  C   UNL     1      44.166   9.937  10.728  0.00  0.00    +0.000 C 
ATOM     10  C   UNL     1      43.946  11.400  10.265  0.00  0.00    +0.000 C 
ATOM     11  C   UNL     1      42.620  10.960   9.623  0.00  0.00    +0.000 C 
ATOM     12  C   UNL     1      42.637   9.733  10.544  0.00  0.00    +0.000 C 
ENDBRANCH   8   9
ENDBRANCH   6   8
ENDBRANCH   1   2
BRANCH   1  13
ATOM     13  C   UNL     1      43.892   5.065  10.703  0.00  0.00    +0.000 C 
BRANCH  13  14
ATOM     14  O   UNL     1      43.601   3.793  10.111  0.00  0.00    +0.000 OA
BRANCH  14  18
ATOM     15  C   UNL     1      46.550   2.449   7.472  0.00  0.00    +0.000 A 
ATOM     16  C   UNL     1      45.958   1.527   8.340  0.00  0.00    +0.000 A 
ATOM     17  C   UNL     1      44.967   1.938   9.240  0.00  0.00    +0.000 A 
ATOM     18  C   UNL     1      44.558   3.273   9.278  0.00  0.00    +0.000 A 
ATOM     19  C   UNL     1      45.152   4.191   8.409  0.00  0.00    +0.000 A 
ATOM     20  C   UNL     1      46.144   3.785   7.508  0.00  0.00    +0.000 A 
BRANCH  15  22
ATOM     21  N   UNL     1      48.387   1.672   5.812  0.00  0.00    +0.000 NA
ATOM     22  C   UNL     1      47.564   2.023   6.553  0.00  0.00    +0.000 C 
ENDBRANCH  15  22
ENDBRANCH  14  18
ENDBRANCH  13  14
ENDBRANCH   1  13
TORSDOF 7
ENDMDL
MODEL 4
REMARK VINA RESULT:    -6.770      2.283      3.284
REMARK INTER + INTRA:         -10.579
REMARK INTER:                 -10.000
REMARK INTRA:                  -0.579
REMARK UNBOUND:                -1.039
REMARK  Name = 
REMARK  7 active torsions:
REMARK  status: ('A' for Active; 'I' for Inactive)
REMARK    1  A    between atoms: C_2  and  C_3
REMARK    2  A    between atoms: C_6  and  O_7
REMARK    3  A    between atoms: O_7  and  C_8
REMARK    4  A    between atoms: C_8  and  C_9
REMARK    5  A    between atoms: C_9  and  C_10
REMARK    6  A    between atoms: C_14  and  O_15
REMARK    7  A    between atoms: O_15  and  C_16
REMARK                            x       y       z     vdW  Elec       q    Type
REMARK                         _______ _______ _______ _____ _____    ______ ____
ROOT
ATOM      1  C   UNL     1      45.172   4.043  11.744  0.00  0.00    +0.000 C 
ENDROOT
BRANCH   1   2
ATOM      2  C   UNL     1      45.508   5.492  12.004  0.00  0.00    +0.000 A 
ATOM      3  C   UNL     1      44.650   6.509  11.570  0.00  0.00    +0.000 A 
ATOM      4  C   UNL     1      44.940   7.847  11.855  0.00  0.00    +0.000 A 
ATOM      5  C   UNL     1      46.092   8.186  12.575  0.00  0.00    +0.000 A 
ATOM      6  C   UNL     1      46.954   7.182  13.006  0.00  0.00    +0.000 A 
ATOM      7  C   UNL     1      46.656   5.843  12.728  0.00  0.00    +0.000 A 
BRANCH   6   8
ATOM      8  O   UNL     1      48.091   7.383  13.749  0.00  0.00    +0.000 OA
BRANCH   8   9
ATOM      9  C   UNL     1      49.387   7.266  13.123  0.00  0.00    +0.000 C 
ATOM     10  C   UNL     1      50.417   8.388  13.407  0.00  0.00    +0.000 C 
ATOM     11  C   UNL     1      50.760   8.405  11.908  0.00  0.00    +0.000 C 
ATOM     12  C   UNL     1      49.406   7.733  11.641  0.00  0.00    +0.000 C 
ENDBRANCH   8   9
ENDBRANCH   6   8
ENDBRANCH   1   2
BRANCH   1  13
ATOM     13  C   UNL     1      43.686   3.853  11.438  0.00  0.00    +0.000 C 
BRANCH  13  14
ATOM     14  O   UNL     1      43.483   3.901  10.021  0.00  0.00    +0.000 OA
BRANCH  14  18
ATOM     15  C   UNL     1      46.515   2.423   7.553  0.00  0.00    +0.000 A 
ATOM     16  C   UNL     1      45.832   1.529   8.383  0.00  0.00    +0.000 A 
ATOM     17  C   UNL     1      44.811   1.985   9.225  0.00  0.00    +0.000 A 
ATOM     18  C   UNL     1      44.462   3.337   9.244  0.00  0.00    +0.000 A 
ATOM     19  C   UNL     1      45.146   4.228   8.411  0.00  0.00    +0.000 A 
ATOM     20  C   UNL     1      46.169   3.776   7.568  0.00  0.00    +0.000 A 
BRANCH  15  22
ATOM     21  N   UNL     1      48.402   1.567   5.990  0.00  0.00    +0.000 NA
ATOM     22  C   UNL     1      47.560   1.951   6.693  0.00  0.00    +0.000 C 
ENDBRANCH  15  22
ENDBRANCH  14  18
ENDBRANCH  13  14
ENDBRANCH   1  13
TORSDOF 7
ENDMDL
MODEL 5
REMARK VINA RESULT:    -6.539      3.144      7.879
REMARK INTER + INTRA:         -10.253
REMARK INTER:                  -9.385
REMARK INTRA:                  -0.868
REMARK UNBOUND:                -1.039
REMARK  Name = 
REMARK  7 active torsions:
REMARK  status: ('A' for Active; 'I' for Inactive)
REMARK    1  A    between atoms: C_2  and  C_3
REMARK    2  A    between atoms: C_6  and  O_7
REMARK    3  A    between atoms: O_7  and  C_8
REMARK    4  A    between atoms: C_8  and  C_9
REMARK    5  A    between atoms: C_9  and  C_10
REMARK    6  A    between atoms: C_14  and  O_15
REMARK    7  A    between atoms: O_15  and  C_16
REMARK                            x       y       z     vdW  Elec       q    Type
REMARK                         _______ _______ _______ _____ _____    ______ ____
ROOT
ATOM      1  C   UNL     1      45.368   6.655  11.167  0.00  0.00    +0.000 C 
ENDROOT
BRANCH   1   2
ATOM      2  C   UNL     1      45.023   5.252  10.730  0.00  0.00    +0.000 A 
ATOM      3  C   UNL     1      44.394   4.366  11.612  0.00  0.00    +0.000 A 
ATOM      4  C   UNL     1      44.034   3.084  11.188  0.00  0.00    +0.000 A 
ATOM      5  C   UNL     1      44.299   2.668   9.878  0.00  0.00    +0.000 A 
ATOM      6  C   UNL     1      44.929   3.539   8.994  0.00  0.00    +0.000 A 
ATOM      7  C   UNL     1      45.280   4.826   9.418  0.00  0.00    +0.000 A 
BRANCH   6   8
ATOM      8  O   UNL     1      45.208   3.263   7.679  0.00  0.00    +0.000 OA
BRANCH   8   9
ATOM      9  C   UNL     1      46.581   3.202   7.235  0.00  0.00    +0.000 C 
ATOM     10  C   UNL     1      46.831   3.140   5.707  0.00  0.00    +0.000 C 
ATOM     11  C   UNL     1      47.869   2.033   5.958  0.00  0.00    +0.000 C 
ATOM     12  C   UNL     1      47.197   1.778   7.314  0.00  0.00    +0.000 C 
ENDBRANCH   8   9
ENDBRANCH   6   8
ENDBRANCH   1   2
BRANCH   1  13
ATOM     13  C   UNL     1      45.717   6.714  12.655  0.00  0.00    +0.000 C 
BRANCH  13  14
ATOM     14  O   UNL     1      47.078   6.309  12.839  0.00  0.00    +0.000 OA
BRANCH  14  18
ATOM     15  C   UNL     1      48.207   4.861  16.593  0.00  0.00    +0.000 A 
ATOM     16  C   UNL     1      47.289   4.123  15.840  0.00  0.00    +0.000 A 
ATOM     17  C   UNL     1      46.885   4.575  14.578  0.00  0.00    +0.000 A 
ATOM     18  C   UNL     1      47.396   5.766  14.058  0.00  0.00    +0.000 A 
ATOM     19  C   UNL     1      48.313   6.500  14.813  0.00  0.00    +0.000 A 
ATOM     20  C   UNL     1      48.720   6.053  16.076  0.00  0.00    +0.000 A 
BRANCH  15  22
ATOM     21  N   UNL     1      48.957   4.018  18.931  0.00  0.00    +0.000 NA
ATOM     22  C   UNL     1      48.617   4.394  17.885  0.00  0.00    +0.000 C 
ENDBRANCH  15  22
ENDBRANCH  14  18
ENDBRANCH  13  14
ENDBRANCH   1  13
TORSDOF 7
ENDMDL
MODEL 6
REMARK VINA RESULT:    -6.256      3.398      8.100
REMARK INTER + INTRA:          -9.855
REMARK INTER:                  -9.280
REMARK INTRA:                  -0.575
REMARK UNBOUND:                -1.039
REMARK  Name = 
REMARK  7 active torsions:
REMARK  status: ('A' for Active; 'I' for Inactive)
REMARK    1  A    between atoms: C_2  and  C_3
REMARK    2  A    between atoms: C_6  and  O_7
REMARK    3  A    between atoms: O_7  and  C_8
REMARK    4  A    between atoms: C_8  and  C_9
REMARK    5  A    between atoms: C_9  and  C_10
REMARK    6  A    between atoms: C_14  and  O_15
REMARK    7  A    between atoms: O_15  and  C_16
REMARK                            x       y       z     vdW  Elec       q    Type
REMARK                         _______ _______ _______ _____ _____    ______ ____
ROOT
ATOM      1  C   UNL     1      46.215   5.085  13.984  0.00  0.00    +0.000 C 
ENDROOT
BRANCH   1   2
ATOM      2  C   UNL     1      45.135   4.785  12.972  0.00  0.00    +0.000 A 
ATOM      3  C   UNL     1      43.967   5.554  12.930  0.00  0.00    +0.000 A 
ATOM      4  C   UNL     1      42.991   5.303  11.961  0.00  0.00    +0.000 A 
ATOM      5  C   UNL     1      43.168   4.280  11.022  0.00  0.00    +0.000 A 
ATOM      6  C   UNL     1      44.325   3.507  11.058  0.00  0.00    +0.000 A 
ATOM      7  C   UNL     1      45.305   3.766  12.024  0.00  0.00    +0.000 A 
BRANCH   6   8
ATOM      8  O   UNL     1      44.631   2.503  10.173  0.00  0.00    +0.000 OA
BRANCH   8   9
ATOM      9  C   UNL     1      44.774   2.806   8.768  0.00  0.00    +0.000 C 
ATOM     10  C   UNL     1      45.955   2.143   8.015  0.00  0.00    +0.000 C 
ATOM     11  C   UNL     1      46.249   3.500   7.354  0.00  0.00    +0.000 C 
ATOM     12  C   UNL     1      45.466   4.169   8.492  0.00  0.00    +0.000 C 
ENDBRANCH   8   9
ENDBRANCH   6   8
ENDBRANCH   1   2
BRANCH   1  13
ATOM     13  C   UNL     1      46.974   3.822  14.392  0.00  0.00    +0.000 C 
BRANCH  13  14
ATOM     14  O   UNL     1      46.964   3.702  15.819  0.00  0.00    +0.000 OA
BRANCH  14  18
ATOM     15  C   UNL     1      50.682   3.514  17.718  0.00  0.00    +0.000 A 
ATOM     16  C   UNL     1      50.113   2.329  17.243  0.00  0.00    +0.000 A 
ATOM     17  C   UNL     1      48.868   2.350  16.602  0.00  0.00    +0.000 A 
ATOM     18  C   UNL     1      48.183   3.555  16.429  0.00  0.00    +0.000 A 
ATOM     19  C   UNL     1      48.756   4.737  16.905  0.00  0.00    +0.000 A 
ATOM     20  C   UNL     1      50.000   4.721  17.547  0.00  0.00    +0.000 A 
BRANCH  15  22
ATOM     21  N   UNL     1      52.988   3.459  18.908  0.00  0.00    +0.000 NA
ATOM     22  C   UNL     1      51.956   3.487  18.374  0.00  0.00    +0.000 C 
ENDBRANCH  15  22
ENDBRANCH  14  18
ENDBRANCH  13  14
ENDBRANCH   1  13
TORSDOF 7
ENDMDL
MODEL 7
REMARK VINA RESULT:    -6.242      3.050      7.004
REMARK INTER + INTRA:          -9.835
REMARK INTER:                  -8.973
REMARK INTRA:                  -0.862
REMARK UNBOUND:                -1.039
REMARK  Name = 
REMARK  7 active torsions:
REMARK  status: ('A' for Active; 'I' for Inactive)
REMARK    1  A    between atoms: C_2  and  C_3
REMARK    2  A    between atoms: C_6  and  O_7
REMARK    3  A    between atoms: O_7  and  C_8
REMARK    4  A    between atoms: C_8  and  C_9
REMARK    5  A    between atoms: C_9  and  C_10
REMARK    6  A    between atoms: C_14  and  O_15
REMARK    7  A    between atoms: O_15  and  C_16
REMARK                            x       y       z     vdW  Elec       q    Type
REMARK                         _______ _______ _______ _____ _____    ______ ____
ROOT
ATOM      1  C   UNL     1      46.723   4.075  13.683  0.00  0.00    +0.000 C 
ENDROOT
BRANCH   1   2
ATOM      2  C   UNL     1      45.513   4.244  12.796  0.00  0.00    +0.000 A 
ATOM      3  C   UNL     1      44.710   5.386  12.899  0.00  0.00    +0.000 A 
ATOM      4  C   UNL     1      43.618   5.560  12.044  0.00  0.00    +0.000 A 
ATOM      5  C   UNL     1      43.312   4.597  11.075  0.00  0.00    +0.000 A 
ATOM      6  C   UNL     1      44.102   3.455  10.968  0.00  0.00    +0.000 A 
ATOM      7  C   UNL     1      45.201   3.288  11.819  0.00  0.00    +0.000 A 
BRANCH   6   8
ATOM      8  O   UNL     1      43.928   2.460  10.039  0.00  0.00    +0.000 OA
BRANCH   8   9
ATOM      9  C   UNL     1      44.460   2.623   8.706  0.00  0.00    +0.000 C 
ATOM     10  C   UNL     1      45.867   2.037   8.426  0.00  0.00    +0.000 C 
ATOM     11  C   UNL     1      46.224   3.341   7.692  0.00  0.00    +0.000 C 
ATOM     12  C   UNL     1      45.079   4.025   8.450  0.00  0.00    +0.000 C 
ENDBRANCH   8   9
ENDBRANCH   6   8
ENDBRANCH   1   2
BRANCH   1  13
ATOM     13  C   UNL     1      47.288   5.424  14.132  0.00  0.00    +0.000 C 
BRANCH  13  14
ATOM     14  O   UNL     1      48.422   5.756  13.322  0.00  0.00    +0.000 OA
BRANCH  14  18
ATOM     15  C   UNL     1      48.709   9.541  11.573  0.00  0.00    +0.000 A 
ATOM     16  C   UNL     1      47.509   9.180  12.193  0.00  0.00    +0.000 A 
ATOM     17  C   UNL     1      47.373   7.921  12.790  0.00  0.00    +0.000 A 
ATOM     18  C   UNL     1      48.434   7.013  12.774  0.00  0.00    +0.000 A 
ATOM     19  C   UNL     1      49.632   7.378  12.154  0.00  0.00    +0.000 A 
ATOM     20  C   UNL     1      49.772   8.636  11.555  0.00  0.00    +0.000 A 
BRANCH  15  22
ATOM     21  N   UNL     1      48.959  11.877  10.470  0.00  0.00    +0.000 NA
ATOM     22  C   UNL     1      48.843  10.831  10.964  0.00  0.00    +0.000 C 
ENDBRANCH  15  22
ENDBRANCH  14  18
ENDBRANCH  13  14
ENDBRANCH   1  13
TORSDOF 7
ENDMDL
MODEL 8
REMARK VINA RESULT:    -5.913      3.450      7.341
REMARK INTER + INTRA:          -9.371
REMARK INTER:                  -8.275
REMARK INTRA:                  -1.096
REMARK UNBOUND:                -1.039
REMARK  Name = 
REMARK  7 active torsions:
REMARK  status: ('A' for Active; 'I' for Inactive)
REMARK    1  A    between atoms: C_2  and  C_3
REMARK    2  A    between atoms: C_6  and  O_7
REMARK    3  A    between atoms: O_7  and  C_8
REMARK    4  A    between atoms: C_8  and  C_9
REMARK    5  A    between atoms: C_9  and  C_10
REMARK    6  A    between atoms: C_14  and  O_15
REMARK    7  A    between atoms: O_15  and  C_16
REMARK                            x       y       z     vdW  Elec       q    Type
REMARK                         _______ _______ _______ _____ _____    ______ ____
ROOT
ATOM      1  C   UNL     1      46.478   4.922  13.517  0.00  0.00    +0.000 C 
ENDROOT
BRANCH   1   2
ATOM      2  C   UNL     1      45.230   4.873  12.668  0.00  0.00    +0.000 A 
ATOM      3  C   UNL     1      43.985   5.204  13.214  0.00  0.00    +0.000 A 
ATOM      4  C   UNL     1      42.840   5.203  12.413  0.00  0.00    +0.000 A 
ATOM      5  C   UNL     1      42.922   4.869  11.056  0.00  0.00    +0.000 A 
ATOM      6  C   UNL     1      44.155   4.533  10.504  0.00  0.00    +0.000 A 
ATOM      7  C   UNL     1      45.302   4.544  11.307  0.00  0.00    +0.000 A 
BRANCH   6   8
ATOM      8  O   UNL     1      44.370   4.224   9.184  0.00  0.00    +0.000 OA
BRANCH   8   9
ATOM      9  C   UNL     1      45.620   3.622   8.784  0.00  0.00    +0.000 C 
ATOM     10  C   UNL     1      45.930   3.571   7.266  0.00  0.00    +0.000 C 
ATOM     11  C   UNL     1      46.390   2.115   7.445  0.00  0.00    +0.000 C 
ATOM     12  C   UNL     1      45.579   2.070   8.747  0.00  0.00    +0.000 C 
ENDBRANCH   8   9
ENDBRANCH   6   8
ENDBRANCH   1   2
BRANCH   1  13
ATOM     13  C   UNL     1      47.488   5.936  12.978  0.00  0.00    +0.000 C 
BRANCH  13  14
ATOM     14  O   UNL     1      47.390   7.150  13.732  0.00  0.00    +0.000 OA
BRANCH  14  18
ATOM     15  C   UNL     1      46.075  10.552  11.690  0.00  0.00    +0.000 A 
ATOM     16  C   UNL     1      45.121   9.651  12.175  0.00  0.00    +0.000 A 
ATOM     17  C   UNL     1      45.521   8.500  12.863  0.00  0.00    +0.000 A 
ATOM     18  C   UNL     1      46.877   8.239  13.074  0.00  0.00    +0.000 A 
ATOM     19  C   UNL     1      47.827   9.141  12.589  0.00  0.00    +0.000 A 
ATOM     20  C   UNL     1      47.431  10.293  11.899  0.00  0.00    +0.000 A 
BRANCH  15  22
ATOM     21  N   UNL     1      45.325  12.680  10.409  0.00  0.00    +0.000 NA
ATOM     22  C   UNL     1      45.660  11.729  10.986  0.00  0.00    +0.000 C 
ENDBRANCH  15  22
ENDBRANCH  14  18
ENDBRANCH  13  14
ENDBRANCH   1  13
TORSDOF 7
ENDMDL
MODEL 9
REMARK VINA RESULT:    -5.742      3.502      7.681
REMARK INTER + INTRA:          -9.130
REMARK INTER:                  -8.432
REMARK INTRA:                  -0.697
REMARK UNBOUND:                -1.039
REMARK  Name = 
REMARK  7 active torsions:
REMARK  status: ('A' for Active; 'I' for Inactive)
REMARK    1  A    between atoms: C_2  and  C_3
REMARK    2  A    between atoms: C_6  and  O_7
REMARK    3  A    between atoms: O_7  and  C_8
REMARK    4  A    between atoms: C_8  and  C_9
REMARK    5  A    between atoms: C_9  and  C_10
REMARK    6  A    between atoms: C_14  and  O_15
REMARK    7  A    between atoms: O_15  and  C_16
REMARK                            x       y       z     vdW  Elec       q    Type
REMARK                         _______ _______ _______ _____ _____    ______ ____
ROOT
ATOM      1  C   UNL     1      45.796   6.512  11.231  0.00  0.00    +0.000 C 
ENDROOT
BRANCH   1   2
ATOM      2  C   UNL     1      45.272   5.164  10.797  0.00  0.00    +0.000 A 
ATOM      3  C   UNL     1      44.558   4.358  11.689  0.00  0.00    +0.000 A 
ATOM      4  C   UNL     1      44.033   3.132  11.270  0.00  0.00    +0.000 A 
ATOM      5  C   UNL     1      44.218   2.693   9.953  0.00  0.00    +0.000 A 
ATOM      6  C   UNL     1      44.932   3.485   9.059  0.00  0.00    +0.000 A 
ATOM      7  C   UNL     1      45.447   4.717   9.479  0.00  0.00    +0.000 A 
BRANCH   6   8
ATOM      8  O   UNL     1      45.148   3.184   7.737  0.00  0.00    +0.000 OA
BRANCH   8   9
ATOM      9  C   UNL     1      46.493   3.189   7.211  0.00  0.00    +0.000 C 
ATOM     10  C   UNL     1      46.656   3.055   5.675  0.00  0.00    +0.000 C 
ATOM     11  C   UNL     1      47.781   2.035   5.919  0.00  0.00    +0.000 C 
ATOM     12  C   UNL     1      47.211   1.816   7.327  0.00  0.00    +0.000 C 
ENDBRANCH   8   9
ENDBRANCH   6   8
ENDBRANCH   1   2
BRANCH   1  13
ATOM     13  C   UNL     1      45.275   6.902  12.614  0.00  0.00    +0.000 C 
BRANCH  13  14
ATOM     14  O   UNL     1      45.860   8.148  13.008  0.00  0.00    +0.000 OA
BRANCH  14  18
ATOM     15  C   UNL     1      50.024   8.461  13.179  0.00  0.00    +0.000 A 
ATOM     16  C   UNL     1      49.409   7.370  13.799  0.00  0.00    +0.000 A 
ATOM     17  C   UNL     1      48.016   7.229  13.765  0.00  0.00    +0.000 A 
ATOM     18  C   UNL     1      47.227   8.177  13.110  0.00  0.00    +0.000 A 
ATOM     19  C   UNL     1      47.846   9.267  12.490  0.00  0.00    +0.000 A 
ATOM     20  C   UNL     1      49.238   9.411  12.523  0.00  0.00    +0.000 A 
BRANCH  15  22
ATOM     21  N   UNL     1      52.607   8.706  13.247  0.00  0.00    +0.000 NA
ATOM     22  C   UNL     1      51.450   8.600  13.217  0.00  0.00    +0.000 C 
ENDBRANCH  15  22
ENDBRANCH  14  18
ENDBRANCH  13  14
ENDBRANCH   1  13
TORSDOF 7
ENDMDL
