MODEL 1
REMARK VINA RESULT:    -8.000      0.000      0.000
REMARK INTER + INTRA:         -11.313
REMARK INTER:                 -10.338
REMARK INTRA:                  -0.975
REMARK UNBOUND:                -0.975
REMARK  Name = 
REMARK  5 active torsions:
REMARK  status: ('A' for Active; 'I' for Inactive)
REMARK    1  A    between atoms: C_2  and  C_18
REMARK    2  A    between atoms: N_3  and  C_4
REMARK    3  A    between atoms: C_4  and  C_5
REMARK    4  A    between atoms: C_8  and  C_9
REMARK    5  A    between atoms: C_9  and  C_10
REMARK                            x       y       z     vdW  Elec       q    Type
REMARK                         _______ _______ _______ _____ _____    ______ ____
ROOT
ATOM      1  O   UNL     1      48.411   7.571  12.950  0.00  0.00    +0.000 OA
ATOM      2  C   UNL     1      47.751   7.063  13.852  0.00  0.00    +0.000 C 
ATOM      3  N   UNL     1      46.397   6.894  13.767  0.00  0.00    +0.000 N 
ATOM      4  H   UNL     1      45.879   6.636  14.602  0.00  0.00    +0.000 HD
ENDROOT
BRANCH   2   5
ATOM      5  C   UNL     1      48.387   6.551  15.073  0.00  0.00    +0.000 A 
ATOM      6  C   UNL     1      49.396   7.282  15.686  0.00  0.00    +0.000 A 
ATOM      7  S   UNL     1      50.027   6.536  17.084  0.00  0.00    +0.000 S 
ATOM      8  C   UNL     1      48.940   5.234  16.947  0.00  0.00    +0.000 A 
ATOM      9  N   UNL     1      48.925   4.236  17.870  0.00  0.00    +0.000 NA
ATOM     10  C   UNL     1      48.020   3.336  17.670  0.00  0.00    +0.000 A 
ATOM     11  N   UNL     1      47.135   3.341  16.620  0.00  0.00    +0.000 N 
ATOM     12  C   UNL     1      47.171   4.280  15.625  0.00  0.00    +0.000 A 
ATOM     13  O   UNL     1      46.467   4.164  14.625  0.00  0.00    +0.000 OA
ATOM     14  C   UNL     1      48.131   5.347  15.831  0.00  0.00    +0.000 A 
ATOM     15  H   UNL     1      46.474   2.587  16.501  0.00  0.00    +0.000 HD
ENDBRANCH   2   5
BRANCH   3  16
ATOM     16  C   UNL     1      45.602   7.452  12.702  0.00  0.00    +0.000 C 
BRANCH  16  17
ATOM     17  C   UNL     1      45.404   6.456  11.589  0.00  0.00    +0.000 A 
ATOM     18  C   UNL     1      46.283   6.444  10.499  0.00  0.00    +0.000 A 
ATOM     19  C   UNL     1      46.109   5.529   9.460  0.00  0.00    +0.000 A 
ATOM     20  C   UNL     1      45.055   4.607   9.487  0.00  0.00    +0.000 A 
ATOM     21  C   UNL     1      44.162   4.634  10.564  0.00  0.00    +0.000 A 
ATOM     22  C   UNL     1      44.328   5.559  11.601  0.00  0.00    +0.000 A 
BRANCH  20  23
ATOM     23  C   UNL     1      44.869   3.622   8.359  0.00  0.00    +0.000 C 
BRANCH  23  24
ATOM     24  C   UNL     1      46.148   2.869   7.927  0.00  0.00    +0.000 C 
ATOM     25  C   UNL     1      46.470   3.097   6.439  0.00  0.00    +0.000 C 
ATOM     26  C   UNL     1      47.449   2.077   5.876  0.00  0.00    +0.000 C 
ATOM     27  O   UNL     1      47.006   0.751   6.146  0.00  0.00    +0.000 OA
ATOM     28  C   UNL     1      46.992   0.488   7.545  0.00  0.00    +0.000 C 
ATOM     29  C   UNL     1      45.970   1.372   8.243  0.00  0.00    +0.000 C 
ENDBRANCH  23  24
ENDBRANCH  20  23
ENDBRANCH  16  17
ENDBRANCH   3  16
TORSDOF 5
ENDMDL
MODEL 2
REMARK VINA RESULT:    -7.718      1.600      2.373
REMARK INTER + INTRA:         -10.949
REMARK INTER:                 -10.786
REMARK INTRA:                  -0.164
REMARK UNBOUND:                -0.975
REMARK  Name = 
REMARK  5 active torsions:
REMARK  status: ('A' for Active; 'I' for Inactive)
REMARK    1  A    between atoms: C_2  and  C_18
REMARK    2  A    between atoms: N_3  and  C_4
REMARK    3  A    between atoms: C_4  and  C_5
REMARK    4  A    between atoms: C_8  and  C_9
REMARK    5  A    between atoms: C_9  and  C_10
REMARK                            x       y       z     vdW  Elec       q    Type
REMARK                         _______ _______ _______ _____ _____    ______ ____
ROOT
ATOM      1  O   UNL     1      46.652   3.125  13.929  0.00  0.00    +0.000 OA
ATOM      2  C   UNL     1      46.428   4.276  14.288  0.00  0.00    +0.000 C 
ATOM      3  N   UNL     1      45.239   4.907  14.042  0.00  0.00    +0.000 N 
ATOM      4  H   UNL     1      45.169   5.908  14.201  0.00  0.00    +0.000 HD
ENDROOT
BRANCH   2   5
ATOM      5  C   UNL     1      47.414   5.045  15.058  0.00  0.00    +0.000 A 
ATOM      6  C   UNL     1      48.100   6.092  14.456  0.00  0.00    +0.000 A 
ATOM      7  S   UNL     1      49.211   6.866  15.492  0.00  0.00    +0.000 S 
ATOM      8  C   UNL     1      48.781   5.861  16.797  0.00  0.00    +0.000 A 
ATOM      9  N   UNL     1      49.348   6.024  18.021  0.00  0.00    +0.000 NA
ATOM     10  C   UNL     1      48.896   5.225  18.930  0.00  0.00    +0.000 A 
ATOM     11  N   UNL     1      47.934   4.269  18.719  0.00  0.00    +0.000 N 
ATOM     12  C   UNL     1      47.398   4.016  17.485  0.00  0.00    +0.000 A 
ATOM     13  O   UNL     1      46.657   3.055  17.305  0.00  0.00    +0.000 OA
ATOM     14  C   UNL     1      47.828   4.924  16.438  0.00  0.00    +0.000 A 
ATOM     15  H   UNL     1      47.650   3.651  19.465  0.00  0.00    +0.000 HD
ENDBRANCH   2   5
BRANCH   3  16
ATOM     16  C   UNL     1      44.216   4.349  13.193  0.00  0.00    +0.000 C 
BRANCH  16  17
ATOM     17  C   UNL     1      44.619   4.410  11.742  0.00  0.00    +0.000 A 
ATOM     18  C   UNL     1      44.171   3.427  10.851  0.00  0.00    +0.000 A 
ATOM     19  C   UNL     1      44.539   3.470   9.506  0.00  0.00    +0.000 A 
ATOM     20  C   UNL     1      45.362   4.494   9.022  0.00  0.00    +0.000 A 
ATOM     21  C   UNL     1      45.830   5.464   9.916  0.00  0.00    +0.000 A 
ATOM     22  C   UNL     1      45.471   5.416  11.268  0.00  0.00    +0.000 A 
BRANCH  20  23
ATOM     23  C   UNL     1      45.761   4.535   7.567  0.00  0.00    +0.000 C 
BRANCH  23  24
ATOM     24  C   UNL     1      46.032   3.156   6.921  0.00  0.00    +0.000 C 
ATOM     25  C   UNL     1      46.583   2.146   7.943  0.00  0.00    +0.000 C 
ATOM     26  C   UNL     1      47.241   0.936   7.294  0.00  0.00    +0.000 C 
ATOM     27  O   UNL     1      48.218   1.345   6.343  0.00  0.00    +0.000 OA
ATOM     28  C   UNL     1      47.619   2.044   5.257  0.00  0.00    +0.000 C 
ATOM     29  C   UNL     1      47.000   3.346   5.738  0.00  0.00    +0.000 C 
ENDBRANCH  23  24
ENDBRANCH  20  23
ENDBRANCH  16  17
ENDBRANCH   3  16
TORSDOF 5
ENDMDL
MODEL 3
REMARK VINA RESULT:    -7.216      1.725      2.446
REMARK INTER + INTRA:         -10.301
REMARK INTER:                  -9.582
REMARK INTRA:                  -0.718
REMARK UNBOUND:                -0.975
REMARK  Name = 
REMARK  5 active torsions:
REMARK  status: ('A' for Active; 'I' for Inactive)
REMARK    1  A    between atoms: C_2  and  C_18
REMARK    2  A    between atoms: N_3  and  C_4
REMARK    3  A    between atoms: C_4  and  C_5
REMARK    4  A    between atoms: C_8  and  C_9
REMARK    5  A    between atoms: C_9  and  C_10
REMARK                            x       y       z     vdW  Elec       q    Type
REMARK                         _______ _______ _______ _____ _____    ______ ____
ROOT
ATOM      1  O   UNL     1      47.043   4.616  13.943  0.00  0.00    +0.000 OA
ATOM      2  C   UNL     1      47.095   5.840  13.877  0.00  0.00    +0.000 C 
ATOM      3  N   UNL     1      45.996   6.611  13.616  0.00  0.00    +0.000 N 
ATOM      4  H   UNL     1      46.124   7.594  13.397  0.00  0.00    +0.000 HD
ENDROOT
BRANCH   2   5
ATOM      5  C   UNL     1      48.346   6.568  14.126  0.00  0.00    +0.000 A 
ATOM      6  C   UNL     1      48.920   7.325  13.113  0.00  0.00    +0.000 A 
ATOM      7  S   UNL     1      50.371   8.094  13.574  0.00  0.00    +0.000 S 
ATOM      8  C   UNL     1      50.257   7.483  15.158  0.00  0.00    +0.000 A 
ATOM      9  N   UNL     1      51.185   7.801  16.098  0.00  0.00    +0.000 NA
ATOM     10  C   UNL     1      50.953   7.307  17.269  0.00  0.00    +0.000 A 
ATOM     11  N   UNL     1      49.876   6.514  17.580  0.00  0.00    +0.000 N 
ATOM     12  C   UNL     1      48.965   6.102  16.645  0.00  0.00    +0.000 A 
ATOM     13  O   UNL     1      48.107   5.271  16.927  0.00  0.00    +0.000 OA
ATOM     14  C   UNL     1      49.147   6.675  15.325  0.00  0.00    +0.000 A 
ATOM     15  H   UNL     1      49.771   6.130  18.508  0.00  0.00    +0.000 HD
ENDBRANCH   2   5
BRANCH   3  16
ATOM     16  C   UNL     1      44.725   6.057  13.221  0.00  0.00    +0.000 C 
BRANCH  16  17
ATOM     17  C   UNL     1      44.791   5.473  11.834  0.00  0.00    +0.000 A 
ATOM     18  C   UNL     1      44.048   4.328  11.521  0.00  0.00    +0.000 A 
ATOM     19  C   UNL     1      44.103   3.776  10.241  0.00  0.00    +0.000 A 
ATOM     20  C   UNL     1      44.901   4.354   9.246  0.00  0.00    +0.000 A 
ATOM     21  C   UNL     1      45.663   5.484   9.564  0.00  0.00    +0.000 A 
ATOM     22  C   UNL     1      45.618   6.032  10.851  0.00  0.00    +0.000 A 
BRANCH  20  23
ATOM     23  C   UNL     1      44.961   3.751   7.864  0.00  0.00    +0.000 C 
BRANCH  23  24
ATOM     24  C   UNL     1      46.325   3.136   7.473  0.00  0.00    +0.000 C 
ATOM     25  C   UNL     1      46.590   3.249   5.962  0.00  0.00    +0.000 C 
ATOM     26  C   UNL     1      47.692   2.317   5.477  0.00  0.00    +0.000 C 
ATOM     27  O   UNL     1      47.439   0.979   5.893  0.00  0.00    +0.000 OA
ATOM     28  C   UNL     1      47.482   0.864   7.311  0.00  0.00    +0.000 C 
ATOM     29  C   UNL     1      46.359   1.670   7.945  0.00  0.00    +0.000 C 
ENDBRANCH  23  24
ENDBRANCH  20  23
ENDBRANCH  16  17
ENDBRANCH   3  16
TORSDOF 5
ENDMDL
MODEL 4
REMARK VINA RESULT:    -7.039      2.352      3.179
REMARK INTER + INTRA:         -10.072
REMARK INTER:                  -9.542
REMARK INTRA:                  -0.530
REMARK UNBOUND:                -0.975
REMARK  Name = 
REMARK  5 active torsions:
REMARK  status: ('A' for Active; 'I' for Inactive)
REMARK    1  A    between atoms: C_2  and  C_18
REMARK    2  A    between atoms: N_3  and  C_4
REMARK    3  A    between atoms: C_4  and  C_5
REMARK    4  A    between atoms: C_8  and  C_9
REMARK    5  A    between atoms: C_9  and  C_10
REMARK                            x       y       z     vdW  Elec       q    Type
REMARK                         _______ _______ _______ _____ _____    ______ ____
ROOT
ATOM      1  O   UNL     1      50.277   6.167  16.012  0.00  0.00    +0.000 OA
ATOM      2  C   UNL     1      49.120   6.502  16.244  0.00  0.00    +0.000 C 
ATOM      3  N   UNL     1      48.174   6.616  15.262  0.00  0.00    +0.000 N 
ATOM      4  H   UNL     1      47.289   7.064  15.479  0.00  0.00    +0.000 HD
ENDROOT
BRANCH   2   5
ATOM      5  C   UNL     1      48.656   6.758  17.614  0.00  0.00    +0.000 A 
ATOM      6  C   UNL     1      48.179   8.015  17.960  0.00  0.00    +0.000 A 
ATOM      7  S   UNL     1      47.692   8.136  19.590  0.00  0.00    +0.000 S 
ATOM      8  C   UNL     1      48.056   6.499  19.878  0.00  0.00    +0.000 A 
ATOM      9  N   UNL     1      47.831   5.937  21.095  0.00  0.00    +0.000 NA
ATOM     10  C   UNL     1      48.108   4.676  21.162  0.00  0.00    +0.000 A 
ATOM     11  N   UNL     1      48.601   3.931  20.119  0.00  0.00    +0.000 N 
ATOM     12  C   UNL     1      48.920   4.475  18.905  0.00  0.00    +0.000 A 
ATOM     13  O   UNL     1      49.501   3.812  18.051  0.00  0.00    +0.000 OA
ATOM     14  C   UNL     1      48.575   5.877  18.757  0.00  0.00    +0.000 A 
ATOM     15  H   UNL     1      48.830   2.956  20.248  0.00  0.00    +0.000 HD
ENDBRANCH   2   5
BRANCH   3  16
ATOM     16  C   UNL     1      48.488   6.528  13.858  0.00  0.00    +0.000 C 
BRANCH  16  17
ATOM     17  C   UNL     1      47.296   6.068  13.060  0.00  0.00    +0.000 A 
ATOM     18  C   UNL     1      46.786   6.874  12.036  0.00  0.00    +0.000 A 
ATOM     19  C   UNL     1      45.680   6.461  11.292  0.00  0.00    +0.000 A 
ATOM     20  C   UNL     1      45.059   5.234  11.555  0.00  0.00    +0.000 A 
ATOM     21  C   UNL     1      45.553   4.437  12.594  0.00  0.00    +0.000 A 
ATOM     22  C   UNL     1      46.654   4.855  13.349  0.00  0.00    +0.000 A 
BRANCH  20  23
ATOM     23  C   UNL     1      43.861   4.793  10.751  0.00  0.00    +0.000 C 
BRANCH  23  24
ATOM     24  C   UNL     1      44.186   3.949   9.496  0.00  0.00    +0.000 C 
ATOM     25  C   UNL     1      44.411   2.468   9.847  0.00  0.00    +0.000 C 
ATOM     26  C   UNL     1      45.123   1.694   8.747  0.00  0.00    +0.000 C 
ATOM     27  O   UNL     1      46.323   2.357   8.360  0.00  0.00    +0.000 OA
ATOM     28  C   UNL     1      46.045   3.624   7.774  0.00  0.00    +0.000 C 
ATOM     29  C   UNL     1      45.416   4.558   8.797  0.00  0.00    +0.000 C 
ENDBRANCH  23  24
ENDBRANCH  20  23
ENDBRANCH  16  17
ENDBRANCH   3  16
TORSDOF 5
ENDMDL
MODEL 5
REMARK VINA RESULT:    -6.931      3.934      8.223
REMARK INTER + INTRA:          -9.932
REMARK INTER:                  -8.898
REMARK INTRA:                  -1.034
REMARK UNBOUND:                -0.975
REMARK  Name = 
REMARK  5 active torsions:
REMARK  status: ('A' for Active; 'I' for Inactive)
REMARK    1  A    between atoms: C_2  and  C_18
REMARK    2  A    between atoms: N_3  and  C_4
REMARK    3  A    between atoms: C_4  and  C_5
REMARK    4  A    between atoms: C_8  and  C_9
REMARK    5  A    between atoms: C_9  and  C_10
REMARK                            x       y       z     vdW  Elec       q    Type
REMARK                         _______ _______ _______ _____ _____    ______ ____
ROOT
ATOM      1  O   UNL     1      47.997   7.011  11.888  0.00  0.00    +0.000 OA
ATOM      2  C   UNL     1      47.052   6.974  12.670  0.00  0.00    +0.000 C 
ATOM      3  N   UNL     1      47.134   7.457  13.947  0.00  0.00    +0.000 N 
ATOM      4  H   UNL     1      46.389   7.243  14.604  0.00  0.00    +0.000 HD
ENDROOT
BRANCH   2   5
ATOM      5  C   UNL     1      45.742   6.448  12.265  0.00  0.00    +0.000 A 
ATOM      6  C   UNL     1      44.805   7.294  11.687  0.00  0.00    +0.000 A 
ATOM      7  S   UNL     1      43.339   6.519  11.288  0.00  0.00    +0.000 S 
ATOM      8  C   UNL     1      43.923   5.015  11.828  0.00  0.00    +0.000 A 
ATOM      9  N   UNL     1      43.160   3.894  11.732  0.00  0.00    +0.000 NA
ATOM     10  C   UNL     1      43.743   2.814  12.137  0.00  0.00    +0.000 A 
ATOM     11  N   UNL     1      45.019   2.759  12.639  0.00  0.00    +0.000 N 
ATOM     12  C   UNL     1      45.790   3.874  12.830  0.00  0.00    +0.000 A 
ATOM     13  O   UNL     1      46.862   3.804  13.423  0.00  0.00    +0.000 OA
ATOM     14  C   UNL     1      45.205   5.108  12.339  0.00  0.00    +0.000 A 
ATOM     15  H   UNL     1      45.404   1.887  12.971  0.00  0.00    +0.000 HD
ENDBRANCH   2   5
BRANCH   3  16
ATOM     16  C   UNL     1      48.373   7.886  14.546  0.00  0.00    +0.000 C 
BRANCH  16  17
ATOM     17  C   UNL     1      48.905   6.849  15.501  0.00  0.00    +0.000 A 
ATOM     18  C   UNL     1      48.064   5.834  15.971  0.00  0.00    +0.000 A 
ATOM     19  C   UNL     1      48.543   4.870  16.859  0.00  0.00    +0.000 A 
ATOM     20  C   UNL     1      49.873   4.899  17.296  0.00  0.00    +0.000 A 
ATOM     21  C   UNL     1      50.709   5.927  16.845  0.00  0.00    +0.000 A 
ATOM     22  C   UNL     1      50.227   6.901  15.965  0.00  0.00    +0.000 A 
BRANCH  20  23
ATOM     23  C   UNL     1      50.387   3.857  18.259  0.00  0.00    +0.000 C 
BRANCH  23  24
ATOM     24  C   UNL     1      51.681   3.135  17.817  0.00  0.00    +0.000 C 
ATOM     25  C   UNL     1      51.426   1.651  17.500  0.00  0.00    +0.000 C 
ATOM     26  C   UNL     1      52.701   0.820  17.465  0.00  0.00    +0.000 C 
ATOM     27  O   UNL     1      53.456   1.006  18.657  0.00  0.00    +0.000 OA
ATOM     28  C   UNL     1      53.916   2.348  18.770  0.00  0.00    +0.000 C 
ATOM     29  C   UNL     1      52.742   3.303  18.920  0.00  0.00    +0.000 C 
ENDBRANCH  23  24
ENDBRANCH  20  23
ENDBRANCH  16  17
ENDBRANCH   3  16
TORSDOF 5
ENDMDL
MODEL 6
REMARK VINA RESULT:    -6.904      2.242      3.678
REMARK INTER + INTRA:          -9.897
REMARK INTER:                  -9.290
REMARK INTRA:                  -0.607
REMARK UNBOUND:                -0.975
REMARK  Name = 
REMARK  5 active torsions:
REMARK  status: ('A' for Active; 'I' for Inactive)
REMARK    1  A    between atoms: C_2  and  C_18
REMARK    2  A    between atoms: N_3  and  C_4
REMARK    3  A    between atoms: C_4  and  C_5
REMARK    4  A    between atoms: C_8  and  C_9
REMARK    5  A    between atoms: C_9  and  C_10
REMARK                            x       y       z     vdW  Elec       q    Type
REMARK                         _______ _______ _______ _____ _____    ______ ____
ROOT
ATOM      1  O   UNL     1      48.573   5.046  16.584  0.00  0.00    +0.000 OA
ATOM      2  C   UNL     1      48.343   5.891  15.724  0.00  0.00    +0.000 C 
ATOM      3  N   UNL     1      47.440   5.690  14.717  0.00  0.00    +0.000 N 
ATOM      4  H   UNL     1      47.416   6.342  13.938  0.00  0.00    +0.000 HD
ENDROOT
BRANCH   2   5
ATOM      5  C   UNL     1      48.992   7.208  15.750  0.00  0.00    +0.000 A 
ATOM      6  C   UNL     1      49.061   7.923  16.939  0.00  0.00    +0.000 A 
ATOM      7  S   UNL     1      49.840   9.432  16.785  0.00  0.00    +0.000 S 
ATOM      8  C   UNL     1      50.156   9.163  15.134  0.00  0.00    +0.000 A 
ATOM      9  N   UNL     1      50.842  10.075  14.397  0.00  0.00    +0.000 NA
ATOM     10  C   UNL     1      51.051   9.724  13.171  0.00  0.00    +0.000 A 
ATOM     11  N   UNL     1      50.624   8.543  12.616  0.00  0.00    +0.000 N 
ATOM     12  C   UNL     1      49.859   7.636  13.299  0.00  0.00    +0.000 A 
ATOM     13  O   UNL     1      49.368   6.668  12.725  0.00  0.00    +0.000 OA
ATOM     14  C   UNL     1      49.644   7.955  14.698  0.00  0.00    +0.000 A 
ATOM     15  H   UNL     1      50.790   8.344  11.640  0.00  0.00    +0.000 HD
ENDBRANCH   2   5
BRANCH   3  16
ATOM     16  C   UNL     1      46.813   4.416  14.468  0.00  0.00    +0.000 C 
BRANCH  16  17
ATOM     17  C   UNL     1      46.161   4.384  13.110  0.00  0.00    +0.000 A 
ATOM     18  C   UNL     1      46.246   5.499  12.268  0.00  0.00    +0.000 A 
ATOM     19  C   UNL     1      45.643   5.484  11.009  0.00  0.00    +0.000 A 
ATOM     20  C   UNL     1      44.943   4.356  10.565  0.00  0.00    +0.000 A 
ATOM     21  C   UNL     1      44.837   3.249  11.416  0.00  0.00    +0.000 A 
ATOM     22  C   UNL     1      45.430   3.267  12.683  0.00  0.00    +0.000 A 
BRANCH  20  23
ATOM     23  C   UNL     1      44.290   4.345   9.205  0.00  0.00    +0.000 C 
BRANCH  23  24
ATOM     24  C   UNL     1      44.956   3.417   8.163  0.00  0.00    +0.000 C 
ATOM     25  C   UNL     1      45.325   2.051   8.770  0.00  0.00    +0.000 C 
ATOM     26  C   UNL     1      46.330   1.276   7.929  0.00  0.00    +0.000 C 
ATOM     27  O   UNL     1      47.471   2.077   7.641  0.00  0.00    +0.000 OA
ATOM     28  C   UNL     1      47.124   3.194   6.830  0.00  0.00    +0.000 C 
ATOM     29  C   UNL     1      46.192   4.130   7.584  0.00  0.00    +0.000 C 
ENDBRANCH  23  24
ENDBRANCH  20  23
ENDBRANCH  16  17
ENDBRANCH   3  16
TORSDOF 5
ENDMDL
MODEL 7
REMARK VINA RESULT:    -6.822      2.817      3.916
REMARK INTER + INTRA:          -9.791
REMARK INTER:                  -9.140
REMARK INTRA:                  -0.651
REMARK UNBOUND:                -0.975
REMARK  Name = 
REMARK  5 active torsions:
REMARK  status: ('A' for Active; 'I' for Inactive)
REMARK    1  A    between atoms: C_2  and  C_18
REMARK    2  A    between atoms: N_3  and  C_4
REMARK    3  A    between atoms: C_4  and  C_5
REMARK    4  A    between atoms: C_8  and  C_9
REMARK    5  A    between atoms: C_9  and  C_10
REMARK                            x       y       z     vdW  Elec       q    Type
REMARK                         _______ _______ _______ _____ _____    ______ ____
ROOT
ATOM      1  O   UNL     1      49.955   5.778  16.078  0.00  0.00    +0.000 OA
ATOM      2  C   UNL     1      48.888   6.365  16.226  0.00  0.00    +0.000 C 
ATOM      3  N   UNL     1      48.063   6.670  15.178  0.00  0.00    +0.000 N 
ATOM      4  H   UNL     1      47.286   7.307  15.331  0.00  0.00    +0.000 HD
ENDROOT
BRANCH   2   5
ATOM      5  C   UNL     1      48.397   6.738  17.559  0.00  0.00    +0.000 A 
ATOM      6  C   UNL     1      48.244   5.766  18.538  0.00  0.00    +0.000 A 
ATOM      7  S   UNL     1      47.656   6.374  20.019  0.00  0.00    +0.000 S 
ATOM      8  C   UNL     1      47.632   7.966  19.420  0.00  0.00    +0.000 A 
ATOM      9  N   UNL     1      47.255   9.005  20.211  0.00  0.00    +0.000 NA
ATOM     10  C   UNL     1      47.327  10.163  19.643  0.00  0.00    +0.000 A 
ATOM     11  N   UNL     1      47.734  10.373  18.349  0.00  0.00    +0.000 N 
ATOM     12  C   UNL     1      48.042   9.349  17.494  0.00  0.00    +0.000 A 
ATOM     13  O   UNL     1      48.251   9.565  16.304  0.00  0.00    +0.000 OA
ATOM     14  C   UNL     1      48.033   8.030  18.097  0.00  0.00    +0.000 A 
ATOM     15  H   UNL     1      47.734  11.302  17.954  0.00  0.00    +0.000 HD
ENDBRANCH   2   5
BRANCH   3  16
ATOM     16  C   UNL     1      48.448   6.493  13.800  0.00  0.00    +0.000 C 
BRANCH  16  17
ATOM     17  C   UNL     1      47.271   6.084  12.954  0.00  0.00    +0.000 A 
ATOM     18  C   UNL     1      46.474   5.000  13.341  0.00  0.00    +0.000 A 
ATOM     19  C   UNL     1      45.383   4.608  12.564  0.00  0.00    +0.000 A 
ATOM     20  C   UNL     1      45.064   5.291  11.384  0.00  0.00    +0.000 A 
ATOM     21  C   UNL     1      45.873   6.360  10.983  0.00  0.00    +0.000 A 
ATOM     22  C   UNL     1      46.975   6.747  11.755  0.00  0.00    +0.000 A 
BRANCH  20  23
ATOM     23  C   UNL     1      43.886   4.862  10.544  0.00  0.00    +0.000 C 
BRANCH  23  24
ATOM     24  C   UNL     1      44.230   3.942   9.350  0.00  0.00    +0.000 C 
ATOM     25  C   UNL     1      44.457   2.487   9.797  0.00  0.00    +0.000 C 
ATOM     26  C   UNL     1      45.185   1.648   8.757  0.00  0.00    +0.000 C 
ATOM     27  O   UNL     1      46.387   2.291   8.343  0.00  0.00    +0.000 OA
ATOM     28  C   UNL     1      46.111   3.517   7.675  0.00  0.00    +0.000 C 
ATOM     29  C   UNL     1      45.466   4.510   8.628  0.00  0.00    +0.000 C 
ENDBRANCH  23  24
ENDBRANCH  20  23
ENDBRANCH  16  17
ENDBRANCH   3  16
TORSDOF 5
ENDMDL
MODEL 8
REMARK VINA RESULT:    -6.763      2.976      3.990
REMARK INTER + INTRA:          -9.715
REMARK INTER:                  -8.419
REMARK INTRA:                  -1.296
REMARK UNBOUND:                -0.975
REMARK  Name = 
REMARK  5 active torsions:
REMARK  status: ('A' for Active; 'I' for Inactive)
REMARK    1  A    between atoms: C_2  and  C_18
REMARK    2  A    between atoms: N_3  and  C_4
REMARK    3  A    between atoms: C_4  and  C_5
REMARK    4  A    between atoms: C_8  and  C_9
REMARK    5  A    between atoms: C_9  and  C_10
REMARK                            x       y       z     vdW  Elec       q    Type
REMARK                         _______ _______ _______ _____ _____    ______ ____
ROOT
ATOM      1  O   UNL     1      48.634   8.672  16.428  0.00  0.00    +0.000 OA
ATOM      2  C   UNL     1      49.000   7.549  16.096  0.00  0.00    +0.000 C 
ATOM      3  N   UNL     1      49.339   7.236  14.808  0.00  0.00    +0.000 N 
ATOM      4  H   UNL     1      49.462   6.260  14.554  0.00  0.00    +0.000 HD
ENDROOT
BRANCH   2   5
ATOM      5  C   UNL     1      49.150   6.469  17.080  0.00  0.00    +0.000 A 
ATOM      6  C   UNL     1      49.971   6.648  18.186  0.00  0.00    +0.000 A 
ATOM      7  S   UNL     1      50.034   5.291  19.217  0.00  0.00    +0.000 S 
ATOM      8  C   UNL     1      48.928   4.434  18.248  0.00  0.00    +0.000 A 
ATOM      9  N   UNL     1      48.514   3.187  18.596  0.00  0.00    +0.000 NA
ATOM     10  C   UNL     1      47.640   2.671  17.797  0.00  0.00    +0.000 A 
ATOM     11  N   UNL     1      47.150   3.290  16.673  0.00  0.00    +0.000 N 
ATOM     12  C   UNL     1      47.601   4.508  16.242  0.00  0.00    +0.000 A 
ATOM     13  O   UNL     1      47.254   4.958  15.154  0.00  0.00    +0.000 OA
ATOM     14  C   UNL     1      48.542   5.158  17.134  0.00  0.00    +0.000 A 
ATOM     15  H   UNL     1      46.493   2.816  16.070  0.00  0.00    +0.000 HD
ENDBRANCH   2   5
BRANCH   3  16
ATOM     16  C   UNL     1      49.128   8.134  13.701  0.00  0.00    +0.000 C 
BRANCH  16  17
ATOM     17  C   UNL     1      47.830   7.837  12.997  0.00  0.00    +0.000 A 
ATOM     18  C   UNL     1      46.685   8.586  13.294  0.00  0.00    +0.000 A 
ATOM     19  C   UNL     1      45.476   8.319  12.651  0.00  0.00    +0.000 A 
ATOM     20  C   UNL     1      45.383   7.298  11.698  0.00  0.00    +0.000 A 
ATOM     21  C   UNL     1      46.521   6.532  11.416  0.00  0.00    +0.000 A 
ATOM     22  C   UNL     1      47.731   6.791  12.069  0.00  0.00    +0.000 A 
BRANCH  20  23
ATOM     23  C   UNL     1      44.073   7.009  11.008  0.00  0.00    +0.000 C 
BRANCH  23  24
ATOM     24  C   UNL     1      43.385   5.690  11.429  0.00  0.00    +0.000 C 
ATOM     25  C   UNL     1      43.584   5.395  12.926  0.00  0.00    +0.000 C 
ATOM     26  C   UNL     1      43.294   3.947  13.293  0.00  0.00    +0.000 C 
ATOM     27  O   UNL     1      44.026   3.058  12.455  0.00  0.00    +0.000 OA
ATOM     28  C   UNL     1      43.606   3.166  11.100  0.00  0.00    +0.000 C 
ATOM     29  C   UNL     1      43.928   4.547  10.550  0.00  0.00    +0.000 C 
ENDBRANCH  23  24
ENDBRANCH  20  23
ENDBRANCH  16  17
ENDBRANCH   3  16
TORSDOF 5
ENDMDL
MODEL 9
REMARK VINA RESULT:    -6.731      4.641      7.204
REMARK INTER + INTRA:          -9.673
REMARK INTER:                  -8.680
REMARK INTRA:                  -0.994
REMARK UNBOUND:                -0.975
REMARK  Name = 
REMARK  5 active torsions:
REMARK  status: ('A' for Active; 'I' for Inactive)
REMARK    1  A    between atoms: C_2  and  C_18
REMARK    2  A    between atoms: N_3  and  C_4
REMARK    3  A    between atoms: C_4  and  C_5
REMARK    4  A    between atoms: C_8  and  C_9
REMARK    5  A    between atoms: C_9  and  C_10
REMARK                            x       y       z     vdW  Elec       q    Type
REMARK                         _______ _______ _______ _____ _____    ______ ____
ROOT
ATOM      1  O   UNL     1      44.434   7.682  11.071  0.00  0.00    +0.000 OA
ATOM      2  C   UNL     1      44.912   6.795  11.770  0.00  0.00    +0.000 C 
ATOM      3  N   UNL     1      45.770   7.053  12.804  0.00  0.00    +0.000 N 
ATOM      4  H   UNL     1      46.272   6.282  13.234  0.00  0.00    +0.000 HD
ENDROOT
BRANCH   2   5
ATOM      5  C   UNL     1      44.552   5.385  11.572  0.00  0.00    +0.000 A 
ATOM      6  C   UNL     1      43.808   4.718  12.537  0.00  0.00    +0.000 A 
ATOM      7  S   UNL     1      43.490   3.088  12.148  0.00  0.00    +0.000 S 
ATOM      8  C   UNL     1      44.293   3.229  10.655  0.00  0.00    +0.000 A 
ATOM      9  N   UNL     1      44.356   2.180   9.794  0.00  0.00    +0.000 NA
ATOM     10  C   UNL     1      44.955   2.438   8.678  0.00  0.00    +0.000 A 
ATOM     11  N   UNL     1      45.506   3.653   8.353  0.00  0.00    +0.000 N 
ATOM     12  C   UNL     1      45.538   4.709   9.223  0.00  0.00    +0.000 A 
ATOM     13  O   UNL     1      46.173   5.725   8.956  0.00  0.00    +0.000 OA
ATOM     14  C   UNL     1      44.828   4.491  10.470  0.00  0.00    +0.000 A 
ATOM     15  H   UNL     1      45.992   3.780   7.477  0.00  0.00    +0.000 HD
ENDBRANCH   2   5
BRANCH   3  16
ATOM     16  C   UNL     1      46.326   8.360  13.054  0.00  0.00    +0.000 C 
BRANCH  16  17
ATOM     17  C   UNL     1      47.708   8.485  12.468  0.00  0.00    +0.000 A 
ATOM     18  C   UNL     1      48.171   9.731  12.028  0.00  0.00    +0.000 A 
ATOM     19  C   UNL     1      49.447   9.860  11.480  0.00  0.00    +0.000 A 
ATOM     20  C   UNL     1      50.290   8.749  11.361  0.00  0.00    +0.000 A 
ATOM     21  C   UNL     1      49.821   7.498  11.778  0.00  0.00    +0.000 A 
ATOM     22  C   UNL     1      48.536   7.365  12.317  0.00  0.00    +0.000 A 
BRANCH  20  23
ATOM     23  C   UNL     1      51.669   8.892  10.764  0.00  0.00    +0.000 C 
BRANCH  23  24
ATOM     24  C   UNL     1      52.450   7.569  10.590  0.00  0.00    +0.000 C 
ATOM     25  C   UNL     1      53.855   7.650  11.212  0.00  0.00    +0.000 C 
ATOM     26  C   UNL     1      54.791   6.555  10.718  0.00  0.00    +0.000 C 
ATOM     27  O   UNL     1      54.821   6.522   9.295  0.00  0.00    +0.000 OA
ATOM     28  C   UNL     1      53.550   6.163   8.762  0.00  0.00    +0.000 C 
ATOM     29  C   UNL     1      52.515   7.228   9.089  0.00  0.00    +0.000 C 
ENDBRANCH  23  24
ENDBRANCH  20  23
ENDBRANCH  16  17
ENDBRANCH   3  16
TORSDOF 5
ENDMDL
