MODEL 1
REMARK VINA RESULT:    -8.313      0.000      0.000
REMARK INTER + INTRA:         -11.643
REMARK INTER:                 -10.743
REMARK INTRA:                  -0.900
REMARK UNBOUND:                -0.900
REMARK  Name = 
REMARK  5 active torsions:
REMARK  status: ('A' for Active; 'I' for Inactive)
REMARK    1  A    between atoms: C_6  and  C_7
REMARK    2  A    between atoms: C_9  and  C_10
REMARK    3  A    between atoms: C_10  and  C_11
REMARK    4  A    between atoms: C_11  and  C_12
REMARK    5  A    between atoms: C_16  and  C_17
REMARK                            x       y       z     vdW  Elec       q    Type
REMARK                         _______ _______ _______ _____ _____    ______ ____
ROOT
ATOM      1  C   UNL     1      44.825   3.584   9.661  0.00  0.00    +0.000 A 
ATOM      2  C   UNL     1      44.967   4.926   9.976  0.00  0.00    +0.000 A 
ATOM      3  C   UNL     1      44.220   5.417  11.031  0.00  0.00    +0.000 A 
ATOM      4  N   UNL     1      43.351   4.641  11.706  0.00  0.00    +0.000 NA
ATOM      5  C   UNL     1      43.266   3.360  11.318  0.00  0.00    +0.000 A 
ATOM      6  N   UNL     1      43.960   2.789  10.325  0.00  0.00    +0.000 NA
ENDROOT
BRANCH   1  12
ATOM      7  F   UNL     1      46.803  -0.389   7.653  0.00  0.00    +0.000 F 
ATOM      8  C   UNL     1      46.600   0.934   7.609  0.00  0.00    +0.000 A 
ATOM      9  C   UNL     1      47.119   1.672   6.555  0.00  0.00    +0.000 A 
ATOM     10  C   UNL     1      46.898   3.046   6.514  0.00  0.00    +0.000 A 
ATOM     11  C   UNL     1      46.156   3.665   7.529  0.00  0.00    +0.000 A 
ATOM     12  C   UNL     1      45.624   2.929   8.606  0.00  0.00    +0.000 A 
ATOM     13  C   UNL     1      45.864   1.543   8.621  0.00  0.00    +0.000 A 
ENDBRANCH   1  12
BRANCH   3  14
ATOM     14  C   UNL     1      44.324   6.876  11.413  0.00  0.00    +0.000 C 
BRANCH  14  15
ATOM     15  C   UNL     1      44.960   7.085  12.792  0.00  0.00    +0.000 C 
BRANCH  15  16
ATOM     16  C   UNL     1      46.463   7.055  12.742  0.00  0.00    +0.000 A 
ATOM     17  C   UNL     1      47.178   5.957  13.203  0.00  0.00    +0.000 A 
ATOM     18  N   UNL     1      48.528   5.877  13.197  0.00  0.00    +0.000 NA
ATOM     19  C   UNL     1      49.204   6.945  12.714  0.00  0.00    +0.000 A 
ATOM     20  C   UNL     1      48.595   8.088  12.220  0.00  0.00    +0.000 A 
ATOM     21  C   UNL     1      47.195   8.133  12.233  0.00  0.00    +0.000 A 
BRANCH  20  22
ATOM     22  C   UNL     1      49.413   9.229  11.703  0.00  0.00    +0.000 C 
ATOM     23  F   UNL     1      49.953  10.005  12.685  0.00  0.00    +0.000 F 
ATOM     24  F   UNL     1      50.461   8.815  10.940  0.00  0.00    +0.000 F 
ATOM     25  F   UNL     1      48.691  10.074  10.916  0.00  0.00    +0.000 F 
ENDBRANCH  20  22
ENDBRANCH  15  16
ENDBRANCH  14  15
ENDBRANCH   3  14
TORSDOF 5
ENDMDL
MODEL 2
REMARK VINA RESULT:    -8.213      1.016      1.391
REMARK INTER + INTRA:         -11.513
REMARK INTER:                 -10.661
REMARK INTRA:                  -0.852
REMARK UNBOUND:                -0.900
REMARK  Name = 
REMARK  5 active torsions:
REMARK  status: ('A' for Active; 'I' for Inactive)
REMARK    1  A    between atoms: C_6  and  C_7
REMARK    2  A    between atoms: C_9  and  C_10
REMARK    3  A    between atoms: C_10  and  C_11
REMARK    4  A    between atoms: C_11  and  C_12
REMARK    5  A    between atoms: C_16  and  C_17
REMARK                            x       y       z     vdW  Elec       q    Type
REMARK                         _______ _______ _______ _____ _____    ______ ____
ROOT
ATOM      1  C   UNL     1      44.841   3.333   9.474  0.00  0.00    +0.000 A 
ATOM      2  C   UNL     1      44.923   4.672   9.824  0.00  0.00    +0.000 A 
ATOM      3  C   UNL     1      44.201   5.088  10.927  0.00  0.00    +0.000 A 
ATOM      4  N   UNL     1      43.410   4.245  11.618  0.00  0.00    +0.000 NA
ATOM      5  C   UNL     1      43.378   2.973  11.194  0.00  0.00    +0.000 A 
ATOM      6  N   UNL     1      44.055   2.471  10.152  0.00  0.00    +0.000 NA
ENDROOT
BRANCH   1  12
ATOM      7  F   UNL     1      46.966   3.704   5.107  0.00  0.00    +0.000 F 
ATOM      8  C   UNL     1      46.689   2.957   6.184  0.00  0.00    +0.000 A 
ATOM      9  C   UNL     1      47.167   1.657   6.258  0.00  0.00    +0.000 A 
ATOM     10  C   UNL     1      46.880   0.891   7.384  0.00  0.00    +0.000 A 
ATOM     11  C   UNL     1      46.118   1.437   8.425  0.00  0.00    +0.000 A 
ATOM     12  C   UNL     1      45.625   2.755   8.364  0.00  0.00    +0.000 A 
ATOM     13  C   UNL     1      45.931   3.505   7.214  0.00  0.00    +0.000 A 
ENDBRANCH   1  12
BRANCH   3  14
ATOM     14  C   UNL     1      44.242   6.539  11.350  0.00  0.00    +0.000 C 
BRANCH  14  15
ATOM     15  C   UNL     1      44.824   6.732  12.755  0.00  0.00    +0.000 C 
BRANCH  15  16
ATOM     16  C   UNL     1      46.326   6.801  12.750  0.00  0.00    +0.000 A 
ATOM     17  C   UNL     1      47.098   5.746  13.222  0.00  0.00    +0.000 A 
ATOM     18  N   UNL     1      48.449   5.753  13.255  0.00  0.00    +0.000 NA
ATOM     19  C   UNL     1      49.069   6.868  12.803  0.00  0.00    +0.000 A 
ATOM     20  C   UNL     1      48.402   7.975  12.302  0.00  0.00    +0.000 A 
ATOM     21  C   UNL     1      47.002   7.929  12.273  0.00  0.00    +0.000 A 
BRANCH  20  22
ATOM     22  C   UNL     1      49.158   9.172  11.821  0.00  0.00    +0.000 C 
ATOM     23  F   UNL     1      49.647   9.952  12.826  0.00  0.00    +0.000 F 
ATOM     24  F   UNL     1      50.233   8.836  11.056  0.00  0.00    +0.000 F 
ATOM     25  F   UNL     1      48.397   9.995  11.049  0.00  0.00    +0.000 F 
ENDBRANCH  20  22
ENDBRANCH  15  16
ENDBRANCH  14  15
ENDBRANCH   3  14
TORSDOF 5
ENDMDL
MODEL 3
REMARK VINA RESULT:    -8.196      1.936      7.373
REMARK INTER + INTRA:         -11.491
REMARK INTER:                 -10.765
REMARK INTRA:                  -0.727
REMARK UNBOUND:                -0.900
REMARK  Name = 
REMARK  5 active torsions:
REMARK  status: ('A' for Active; 'I' for Inactive)
REMARK    1  A    between atoms: C_6  and  C_7
REMARK    2  A    between atoms: C_9  and  C_10
REMARK    3  A    between atoms: C_10  and  C_11
REMARK    4  A    between atoms: C_11  and  C_12
REMARK    5  A    between atoms: C_16  and  C_17
REMARK                            x       y       z     vdW  Elec       q    Type
REMARK                         _______ _______ _______ _____ _____    ______ ____
ROOT
ATOM      1  C   UNL     1      47.162   5.714  12.997  0.00  0.00    +0.000 A 
ATOM      2  C   UNL     1      45.945   5.589  12.344  0.00  0.00    +0.000 A 
ATOM      3  C   UNL     1      45.257   4.401  12.501  0.00  0.00    +0.000 A 
ATOM      4  N   UNL     1      45.758   3.379  13.221  0.00  0.00    +0.000 NA
ATOM      5  C   UNL     1      46.950   3.584  13.800  0.00  0.00    +0.000 A 
ATOM      6  N   UNL     1      47.682   4.703  13.723  0.00  0.00    +0.000 NA
ENDROOT
BRANCH   1  12
ATOM      7  F   UNL     1      50.019   9.008  15.169  0.00  0.00    +0.000 F 
ATOM      8  C   UNL     1      49.386   8.595  14.063  0.00  0.00    +0.000 A 
ATOM      9  C   UNL     1      49.504   9.329  12.892  0.00  0.00    +0.000 A 
ATOM     10  C   UNL     1      48.848   8.890  11.746  0.00  0.00    +0.000 A 
ATOM     11  C   UNL     1      48.082   7.717  11.786  0.00  0.00    +0.000 A 
ATOM     12  C   UNL     1      47.952   6.961  12.968  0.00  0.00    +0.000 A 
ATOM     13  C   UNL     1      48.626   7.430  14.110  0.00  0.00    +0.000 A 
ENDBRANCH   1  12
BRANCH   3  14
ATOM     14  C   UNL     1      43.930   4.203  11.804  0.00  0.00    +0.000 C 
BRANCH  14  15
ATOM     15  C   UNL     1      43.924   2.985  10.872  0.00  0.00    +0.000 C 
BRANCH  15  16
ATOM     16  C   UNL     1      44.811   3.177   9.672  0.00  0.00    +0.000 A 
ATOM     17  C   UNL     1      44.983   4.428   9.094  0.00  0.00    +0.000 A 
ATOM     18  N   UNL     1      45.755   4.661   8.009  0.00  0.00    +0.000 NA
ATOM     19  C   UNL     1      46.385   3.595   7.464  0.00  0.00    +0.000 A 
ATOM     20  C   UNL     1      46.293   2.304   7.961  0.00  0.00    +0.000 A 
ATOM     21  C   UNL     1      45.492   2.101   9.092  0.00  0.00    +0.000 A 
BRANCH  20  22
ATOM     22  C   UNL     1      47.020   1.175   7.301  0.00  0.00    +0.000 C 
ATOM     23  F   UNL     1      46.668   0.984   5.998  0.00  0.00    +0.000 F 
ATOM     24  F   UNL     1      48.369   1.357   7.296  0.00  0.00    +0.000 F 
ATOM     25  F   UNL     1      46.807  -0.017   7.922  0.00  0.00    +0.000 F 
ENDBRANCH  20  22
ENDBRANCH  15  16
ENDBRANCH  14  15
ENDBRANCH   3  14
TORSDOF 5
ENDMDL
MODEL 4
REMARK VINA RESULT:    -7.998      3.041      3.552
REMARK INTER + INTRA:         -11.235
REMARK INTER:                 -10.416
REMARK INTRA:                  -0.819
REMARK UNBOUND:                -0.900
REMARK  Name = 
REMARK  5 active torsions:
REMARK  status: ('A' for Active; 'I' for Inactive)
REMARK    1  A    between atoms: C_6  and  C_7
REMARK    2  A    between atoms: C_9  and  C_10
REMARK    3  A    between atoms: C_10  and  C_11
REMARK    4  A    between atoms: C_11  and  C_12
REMARK    5  A    between atoms: C_16  and  C_17
REMARK                            x       y       z     vdW  Elec       q    Type
REMARK                         _______ _______ _______ _____ _____    ______ ____
ROOT
ATOM      1  C   UNL     1      44.848   3.362   9.912  0.00  0.00    +0.000 A 
ATOM      2  C   UNL     1      45.119   4.545  10.582  0.00  0.00    +0.000 A 
ATOM      3  C   UNL     1      44.398   4.807  11.732  0.00  0.00    +0.000 A 
ATOM      4  N   UNL     1      43.436   3.974  12.171  0.00  0.00    +0.000 NA
ATOM      5  C   UNL     1      43.230   2.863  11.448  0.00  0.00    +0.000 A 
ATOM      6  N   UNL     1      43.889   2.513  10.335  0.00  0.00    +0.000 NA
ENDROOT
BRANCH   1  12
ATOM      7  F   UNL     1      46.997  -0.086   7.225  0.00  0.00    +0.000 F 
ATOM      8  C   UNL     1      46.668   1.203   7.380  0.00  0.00    +0.000 A 
ATOM      9  C   UNL     1      47.015   2.122   6.400  0.00  0.00    +0.000 A 
ATOM     10  C   UNL     1      46.663   3.458   6.567  0.00  0.00    +0.000 A 
ATOM     11  C   UNL     1      45.964   3.859   7.713  0.00  0.00    +0.000 A 
ATOM     12  C   UNL     1      45.605   2.937   8.717  0.00  0.00    +0.000 A 
ATOM     13  C   UNL     1      45.975   1.594   8.521  0.00  0.00    +0.000 A 
ENDBRANCH   1  12
BRANCH   3  14
ATOM     14  C   UNL     1      44.641   6.087  12.498  0.00  0.00    +0.000 C 
BRANCH  14  15
ATOM     15  C   UNL     1      46.043   6.662  12.264  0.00  0.00    +0.000 C 
BRANCH  15  16
ATOM     16  C   UNL     1      46.949   6.467  13.449  0.00  0.00    +0.000 A 
ATOM     17  C   UNL     1      47.876   7.435  13.815  0.00  0.00    +0.000 A 
ATOM     18  N   UNL     1      48.725   7.312  14.860  0.00  0.00    +0.000 NA
ATOM     19  C   UNL     1      48.655   6.166  15.576  0.00  0.00    +0.000 A 
ATOM     20  C   UNL     1      47.765   5.139  15.308  0.00  0.00    +0.000 A 
ATOM     21  C   UNL     1      46.893   5.304  14.224  0.00  0.00    +0.000 A 
BRANCH  20  22
ATOM     22  C   UNL     1      47.749   3.899  16.146  0.00  0.00    +0.000 C 
ATOM     23  F   UNL     1      48.797   3.810  17.012  0.00  0.00    +0.000 F 
ATOM     24  F   UNL     1      46.627   3.803  16.912  0.00  0.00    +0.000 F 
ATOM     25  F   UNL     1      47.787   2.763  15.398  0.00  0.00    +0.000 F 
ENDBRANCH  20  22
ENDBRANCH  15  16
ENDBRANCH  14  15
ENDBRANCH   3  14
TORSDOF 5
ENDMDL
MODEL 5
REMARK VINA RESULT:    -7.872      3.289      7.647
REMARK INTER + INTRA:         -11.073
REMARK INTER:                 -10.357
REMARK INTRA:                  -0.715
REMARK UNBOUND:                -0.900
REMARK  Name = 
REMARK  5 active torsions:
REMARK  status: ('A' for Active; 'I' for Inactive)
REMARK    1  A    between atoms: C_6  and  C_7
REMARK    2  A    between atoms: C_9  and  C_10
REMARK    3  A    between atoms: C_10  and  C_11
REMARK    4  A    between atoms: C_11  and  C_12
REMARK    5  A    between atoms: C_16  and  C_17
REMARK                            x       y       z     vdW  Elec       q    Type
REMARK                         _______ _______ _______ _____ _____    ______ ____
ROOT
ATOM      1  C   UNL     1      47.467   5.563  14.350  0.00  0.00    +0.000 A 
ATOM      2  C   UNL     1      46.273   5.336  13.683  0.00  0.00    +0.000 A 
ATOM      3  C   UNL     1      46.154   5.839  12.401  0.00  0.00    +0.000 A 
ATOM      4  N   UNL     1      47.134   6.562  11.828  0.00  0.00    +0.000 NA
ATOM      5  C   UNL     1      48.244   6.747  12.556  0.00  0.00    +0.000 A 
ATOM      6  N   UNL     1      48.462   6.285  13.794  0.00  0.00    +0.000 NA
ENDROOT
BRANCH   1  12
ATOM      7  F   UNL     1      46.709   2.247  17.837  0.00  0.00    +0.000 F 
ATOM      8  C   UNL     1      47.359   3.343  17.423  0.00  0.00    +0.000 A 
ATOM      9  C   UNL     1      48.306   3.931  18.249  0.00  0.00    +0.000 A 
ATOM     10  C   UNL     1      48.981   5.065  17.808  0.00  0.00    +0.000 A 
ATOM     11  C   UNL     1      48.701   5.597  16.542  0.00  0.00    +0.000 A 
ATOM     12  C   UNL     1      47.741   5.011  15.692  0.00  0.00    +0.000 A 
ATOM     13  C   UNL     1      47.075   3.866  16.165  0.00  0.00    +0.000 A 
ENDBRANCH   1  12
BRANCH   3  14
ATOM     14  C   UNL     1      44.871   5.633  11.629  0.00  0.00    +0.000 C 
BRANCH  14  15
ATOM     15  C   UNL     1      45.080   5.657  10.110  0.00  0.00    +0.000 C 
BRANCH  15  16
ATOM     16  C   UNL     1      45.165   4.276   9.520  0.00  0.00    +0.000 A 
ATOM     17  C   UNL     1      44.449   3.216  10.061  0.00  0.00    +0.000 A 
ATOM     18  N   UNL     1      44.494   1.951   9.585  0.00  0.00    +0.000 NA
ATOM     19  C   UNL     1      45.295   1.725   8.518  0.00  0.00    +0.000 A 
ATOM     20  C   UNL     1      46.046   2.708   7.892  0.00  0.00    +0.000 A 
ATOM     21  C   UNL     1      45.968   4.009   8.407  0.00  0.00    +0.000 A 
BRANCH  20  22
ATOM     22  C   UNL     1      46.911   2.380   6.716  0.00  0.00    +0.000 C 
ATOM     23  F   UNL     1      46.540   3.015   5.569  0.00  0.00    +0.000 F 
ATOM     24  F   UNL     1      48.215   2.714   6.919  0.00  0.00    +0.000 F 
ATOM     25  F   UNL     1      46.910   1.051   6.422  0.00  0.00    +0.000 F 
ENDBRANCH  20  22
ENDBRANCH  15  16
ENDBRANCH  14  15
ENDBRANCH   3  14
TORSDOF 5
ENDMDL
MODEL 6
REMARK VINA RESULT:    -7.866      1.318      1.716
REMARK INTER + INTRA:         -11.064
REMARK INTER:                 -10.338
REMARK INTRA:                  -0.726
REMARK UNBOUND:                -0.900
REMARK  Name = 
REMARK  5 active torsions:
REMARK  status: ('A' for Active; 'I' for Inactive)
REMARK    1  A    between atoms: C_6  and  C_7
REMARK    2  A    between atoms: C_9  and  C_10
REMARK    3  A    between atoms: C_10  and  C_11
REMARK    4  A    between atoms: C_11  and  C_12
REMARK    5  A    between atoms: C_16  and  C_17
REMARK                            x       y       z     vdW  Elec       q    Type
REMARK                         _______ _______ _______ _____ _____    ______ ____
ROOT
ATOM      1  C   UNL     1      44.912   3.607   9.619  0.00  0.00    +0.000 A 
ATOM      2  C   UNL     1      45.173   4.905  10.028  0.00  0.00    +0.000 A 
ATOM      3  C   UNL     1      44.458   5.391  11.106  0.00  0.00    +0.000 A 
ATOM      4  N   UNL     1      43.508   4.657  11.717  0.00  0.00    +0.000 NA
ATOM      5  C   UNL     1      43.311   3.419  11.240  0.00  0.00    +0.000 A 
ATOM      6  N   UNL     1      43.965   2.854  10.217  0.00  0.00    +0.000 NA
ENDROOT
BRANCH   1  12
ATOM      7  F   UNL     1      46.895  -0.346   7.578  0.00  0.00    +0.000 F 
ATOM      8  C   UNL     1      46.643   0.968   7.516  0.00  0.00    +0.000 A 
ATOM      9  C   UNL     1      47.067   1.696   6.414  0.00  0.00    +0.000 A 
ATOM     10  C   UNL     1      46.796   3.060   6.356  0.00  0.00    +0.000 A 
ATOM     11  C   UNL     1      46.100   3.679   7.403  0.00  0.00    +0.000 A 
ATOM     12  C   UNL     1      45.664   2.953   8.529  0.00  0.00    +0.000 A 
ATOM     13  C   UNL     1      45.953   1.577   8.560  0.00  0.00    +0.000 A 
ENDBRANCH   1  12
BRANCH   3  14
ATOM     14  C   UNL     1      44.692   6.804  11.590  0.00  0.00    +0.000 C 
BRANCH  14  15
ATOM     15  C   UNL     1      45.817   6.898  12.627  0.00  0.00    +0.000 C 
BRANCH  15  16
ATOM     16  C   UNL     1      46.822   7.965  12.288  0.00  0.00    +0.000 A 
ATOM     17  C   UNL     1      46.449   9.299  12.180  0.00  0.00    +0.000 A 
ATOM     18  N   UNL     1      47.302  10.300  11.865  0.00  0.00    +0.000 NA
ATOM     19  C   UNL     1      48.592   9.959  11.640  0.00  0.00    +0.000 A 
ATOM     20  C   UNL     1      49.077   8.663  11.729  0.00  0.00    +0.000 A 
ATOM     21  C   UNL     1      48.167   7.653  12.066  0.00  0.00    +0.000 A 
BRANCH  20  22
ATOM     22  C   UNL     1      50.519   8.365  11.464  0.00  0.00    +0.000 C 
ATOM     23  F   UNL     1      51.188   9.386  10.858  0.00  0.00    +0.000 F 
ATOM     24  F   UNL     1      51.212   8.093  12.604  0.00  0.00    +0.000 F 
ATOM     25  F   UNL     1      50.689   7.281  10.659  0.00  0.00    +0.000 F 
ENDBRANCH  20  22
ENDBRANCH  15  16
ENDBRANCH  14  15
ENDBRANCH   3  14
TORSDOF 5
ENDMDL
MODEL 7
REMARK VINA RESULT:    -7.628      2.632      3.241
REMARK INTER + INTRA:         -10.757
REMARK INTER:                 -10.310
REMARK INTRA:                  -0.447
REMARK UNBOUND:                -0.900
REMARK  Name = 
REMARK  5 active torsions:
REMARK  status: ('A' for Active; 'I' for Inactive)
REMARK    1  A    between atoms: C_6  and  C_7
REMARK    2  A    between atoms: C_9  and  C_10
REMARK    3  A    between atoms: C_10  and  C_11
REMARK    4  A    between atoms: C_11  and  C_12
REMARK    5  A    between atoms: C_16  and  C_17
REMARK                            x       y       z     vdW  Elec       q    Type
REMARK                         _______ _______ _______ _____ _____    ______ ____
ROOT
ATOM      1  C   UNL     1      45.105   4.227   9.520  0.00  0.00    +0.000 A 
ATOM      2  C   UNL     1      45.780   5.250  10.168  0.00  0.00    +0.000 A 
ATOM      3  C   UNL     1      45.097   5.943  11.149  0.00  0.00    +0.000 A 
ATOM      4  N   UNL     1      43.810   5.675  11.444  0.00  0.00    +0.000 NA
ATOM      5  C   UNL     1      43.234   4.681  10.752  0.00  0.00    +0.000 A 
ATOM      6  N   UNL     1      43.817   3.941   9.799  0.00  0.00    +0.000 NA
ENDROOT
BRANCH   1  12
ATOM      7  F   UNL     1      46.526  -0.148   7.917  0.00  0.00    +0.000 F 
ATOM      8  C   UNL     1      46.450   1.174   7.716  0.00  0.00    +0.000 A 
ATOM      9  C   UNL     1      46.954   1.719   6.544  0.00  0.00    +0.000 A 
ATOM     10  C   UNL     1      46.865   3.093   6.340  0.00  0.00    +0.000 A 
ATOM     11  C   UNL     1      46.269   3.907   7.313  0.00  0.00    +0.000 A 
ATOM     12  C   UNL     1      45.753   3.368   8.508  0.00  0.00    +0.000 A 
ATOM     13  C   UNL     1      45.858   1.976   8.686  0.00  0.00    +0.000 A 
ENDBRANCH   1  12
BRANCH   3  14
ATOM     14  C   UNL     1      45.777   7.077  11.882  0.00  0.00    +0.000 C 
BRANCH  14  15
ATOM     15  C   UNL     1      47.228   6.756  12.257  0.00  0.00    +0.000 C 
BRANCH  15  16
ATOM     16  C   UNL     1      47.329   5.957  13.528  0.00  0.00    +0.000 A 
ATOM     17  C   UNL     1      46.618   4.775  13.695  0.00  0.00    +0.000 A 
ATOM     18  N   UNL     1      46.657   4.021  14.817  0.00  0.00    +0.000 NA
ATOM     19  C   UNL     1      47.438   4.465  15.829  0.00  0.00    +0.000 A 
ATOM     20  C   UNL     1      48.197   5.624  15.769  0.00  0.00    +0.000 A 
ATOM     21  C   UNL     1      48.140   6.375  14.588  0.00  0.00    +0.000 A 
BRANCH  20  22
ATOM     22  C   UNL     1      49.036   6.051  16.932  0.00  0.00    +0.000 C 
ATOM     23  F   UNL     1      50.077   5.211  17.194  0.00  0.00    +0.000 F 
ATOM     24  F   UNL     1      49.590   7.281  16.750  0.00  0.00    +0.000 F 
ATOM     25  F   UNL     1      48.323   6.132  18.089  0.00  0.00    +0.000 F 
ENDBRANCH  20  22
ENDBRANCH  15  16
ENDBRANCH  14  15
ENDBRANCH   3  14
TORSDOF 5
ENDMDL
MODEL 8
REMARK VINA RESULT:    -7.291      2.239      7.704
REMARK INTER + INTRA:         -10.322
REMARK INTER:                  -9.903
REMARK INTRA:                  -0.419
REMARK UNBOUND:                -0.900
REMARK  Name = 
REMARK  5 active torsions:
REMARK  status: ('A' for Active; 'I' for Inactive)
REMARK    1  A    between atoms: C_6  and  C_7
REMARK    2  A    between atoms: C_9  and  C_10
REMARK    3  A    between atoms: C_10  and  C_11
REMARK    4  A    between atoms: C_11  and  C_12
REMARK    5  A    between atoms: C_16  and  C_17
REMARK                            x       y       z     vdW  Elec       q    Type
REMARK                         _______ _______ _______ _____ _____    ______ ____
ROOT
ATOM      1  C   UNL     1      46.626   5.658  13.795  0.00  0.00    +0.000 A 
ATOM      2  C   UNL     1      46.151   4.412  13.418  0.00  0.00    +0.000 A 
ATOM      3  C   UNL     1      45.154   4.372  12.461  0.00  0.00    +0.000 A 
ATOM      4  N   UNL     1      44.625   5.495  11.940  0.00  0.00    +0.000 NA
ATOM      5  C   UNL     1      45.134   6.655  12.379  0.00  0.00    +0.000 A 
ATOM      6  N   UNL     1      46.110   6.796  13.285  0.00  0.00    +0.000 NA
ENDROOT
BRANCH   1  12
ATOM      7  F   UNL     1      50.669   7.933  15.280  0.00  0.00    +0.000 F 
ATOM      8  C   UNL     1      49.755   6.976  15.486  0.00  0.00    +0.000 A 
ATOM      9  C   UNL     1      49.847   6.171  16.611  0.00  0.00    +0.000 A 
ATOM     10  C   UNL     1      48.889   5.183  16.820  0.00  0.00    +0.000 A 
ATOM     11  C   UNL     1      47.846   5.015  15.899  0.00  0.00    +0.000 A 
ATOM     12  C   UNL     1      47.740   5.825  14.751  0.00  0.00    +0.000 A 
ATOM     13  C   UNL     1      48.723   6.814  14.566  0.00  0.00    +0.000 A 
ENDBRANCH   1  12
BRANCH   3  14
ATOM     14  C   UNL     1      44.588   3.042  12.019  0.00  0.00    +0.000 C 
BRANCH  14  15
ATOM     15  C   UNL     1      43.852   3.126  10.677  0.00  0.00    +0.000 C 
BRANCH  15  16
ATOM     16  C   UNL     1      44.796   3.240   9.511  0.00  0.00    +0.000 A 
ATOM     17  C   UNL     1      45.049   4.464   8.905  0.00  0.00    +0.000 A 
ATOM     18  N   UNL     1      45.875   4.628   7.847  0.00  0.00    +0.000 NA
ATOM     19  C   UNL     1      46.477   3.518   7.360  0.00  0.00    +0.000 A 
ATOM     20  C   UNL     1      46.305   2.249   7.890  0.00  0.00    +0.000 A 
ATOM     21  C   UNL     1      45.450   2.117   8.992  0.00  0.00    +0.000 A 
BRANCH  20  22
ATOM     22  C   UNL     1      47.005   1.069   7.294  0.00  0.00    +0.000 C 
ATOM     23  F   UNL     1      46.755  -0.103   7.945  0.00  0.00    +0.000 F 
ATOM     24  F   UNL     1      46.652   0.854   5.997  0.00  0.00    +0.000 F 
ATOM     25  F   UNL     1      48.359   1.211   7.292  0.00  0.00    +0.000 F 
ENDBRANCH  20  22
ENDBRANCH  15  16
ENDBRANCH  14  15
ENDBRANCH   3  14
TORSDOF 5
ENDMDL
MODEL 9
REMARK VINA RESULT:    -7.124      3.451      7.854
REMARK INTER + INTRA:         -10.106
REMARK INTER:                  -9.262
REMARK INTRA:                  -0.845
REMARK UNBOUND:                -0.900
REMARK  Name = 
REMARK  5 active torsions:
REMARK  status: ('A' for Active; 'I' for Inactive)
REMARK    1  A    between atoms: C_6  and  C_7
REMARK    2  A    between atoms: C_9  and  C_10
REMARK    3  A    between atoms: C_10  and  C_11
REMARK    4  A    between atoms: C_11  and  C_12
REMARK    5  A    between atoms: C_16  and  C_17
REMARK                            x       y       z     vdW  Elec       q    Type
REMARK                         _______ _______ _______ _____ _____    ______ ____
ROOT
ATOM      1  C   UNL     1      48.511   6.381  14.747  0.00  0.00    +0.000 A 
ATOM      2  C   UNL     1      47.546   6.286  13.756  0.00  0.00    +0.000 A 
ATOM      3  C   UNL     1      47.832   6.855  12.530  0.00  0.00    +0.000 A 
ATOM      4  N   UNL     1      48.983   7.519  12.306  0.00  0.00    +0.000 NA
ATOM      5  C   UNL     1      49.848   7.576  13.329  0.00  0.00    +0.000 A 
ATOM      6  N   UNL     1      49.670   7.041  14.544  0.00  0.00    +0.000 NA
ENDROOT
BRANCH   1  12
ATOM      7  F   UNL     1      46.792   2.822  17.594  0.00  0.00    +0.000 F 
ATOM      8  C   UNL     1      47.493   3.957  17.481  0.00  0.00    +0.000 A 
ATOM      9  C   UNL     1      48.089   4.510  18.605  0.00  0.00    +0.000 A 
ATOM     10  C   UNL     1      48.821   5.687  18.477  0.00  0.00    +0.000 A 
ATOM     11  C   UNL     1      48.951   6.296  17.221  0.00  0.00    +0.000 A 
ATOM     12  C   UNL     1      48.351   5.746  16.071  0.00  0.00    +0.000 A 
ATOM     13  C   UNL     1      47.617   4.557  16.232  0.00  0.00    +0.000 A 
ENDBRANCH   1  12
BRANCH   3  14
ATOM     14  C   UNL     1      46.814   6.793  11.414  0.00  0.00    +0.000 C 
BRANCH  14  15
ATOM     15  C   UNL     1      45.376   6.654  11.929  0.00  0.00    +0.000 C 
BRANCH  15  16
ATOM     16  C   UNL     1      44.798   5.293  11.655  0.00  0.00    +0.000 A 
ATOM     17  C   UNL     1      43.974   4.660  12.577  0.00  0.00    +0.000 A 
ATOM     18  N   UNL     1      43.436   3.433  12.394  0.00  0.00    +0.000 NA
ATOM     19  C   UNL     1      43.734   2.798  11.237  0.00  0.00    +0.000 A 
ATOM     20  C   UNL     1      44.536   3.337  10.243  0.00  0.00    +0.000 A 
ATOM     21  C   UNL     1      45.069   4.614  10.462  0.00  0.00    +0.000 A 
BRANCH  20  22
ATOM     22  C   UNL     1      44.821   2.572   8.990  0.00  0.00    +0.000 C 
ATOM     23  F   UNL     1      46.150   2.377   8.757  0.00  0.00    +0.000 F 
ATOM     24  F   UNL     1      44.262   1.331   8.999  0.00  0.00    +0.000 F 
ATOM     25  F   UNL     1      44.336   3.190   7.878  0.00  0.00    +0.000 F 
ENDBRANCH  20  22
ENDBRANCH  15  16
ENDBRANCH  14  15
ENDBRANCH   3  14
TORSDOF 5
ENDMDL
