MODEL 1
REMARK VINA RESULT:    -8.142      0.000      0.000
REMARK INTER + INTRA:         -11.317
REMARK INTER:                 -10.523
REMARK INTRA:                  -0.795
REMARK UNBOUND:                -0.795
REMARK  Name = 
REMARK  9 active torsions:
REMARK  status: ('A' for Active; 'I' for Inactive)
REMARK    1  A    between atoms: C_1  and  C_2
REMARK    2  A    between atoms: C_2  and  C_3
REMARK    3  A    between atoms: C_2  and  N_25
REMARK    4  A    between atoms: N_8  and  C_9
REMARK    5  A    between atoms: N_8  and  C_10
REMARK    6  A    between atoms: C_10  and  C_11
REMARK    7  A    between atoms: C_15  and  C_16
REMARK    8  A    between atoms: N_25  and  C_26
REMARK    9  A    between atoms: N_25  and  C_27
REMARK                            x       y       z     vdW  Elec       q    Type
REMARK                         _______ _______ _______ _____ _____    ______ ____
ROOT
ATOM      1  C   UNL     1      44.382   6.088  12.683  0.00  0.00    +0.000 C 
ENDROOT
BRANCH   1   7
ATOM      2  C   UNL     1      45.381  10.233  11.735  0.00  0.00    +0.000 A 
ATOM      3  C   UNL     1      46.708  10.623  11.881  0.00  0.00    +0.000 A 
ATOM      4  C   UNL     1      47.628   9.655  12.222  0.00  0.00    +0.000 A 
ATOM      5  N   UNL     1      47.315   8.360  12.442  0.00  0.00    +0.000 NA
ATOM      6  C   UNL     1      46.027   7.957  12.339  0.00  0.00    +0.000 A 
ATOM      7  N   UNL     1      45.733   6.641  12.659  0.00  0.00    +0.000 N 
ATOM      8  C   UNL     1      46.816   5.809  13.171  0.00  0.00    +0.000 C 
ATOM      9  C   UNL     1      45.055   8.880  11.948  0.00  0.00    +0.000 A 
BRANCH   2  11
ATOM     10  C   UNL     1      44.963  12.285  10.419  0.00  0.00    +0.000 C 
ATOM     11  C   UNL     1      44.313  11.263  11.370  0.00  0.00    +0.000 C 
BRANCH  11  12
ATOM     12  N   UNL     1      43.090  10.630  10.806  0.00  0.00    +0.000 NA
ATOM     13  C   UNL     1      41.867  11.282  11.299  0.00  0.00    +0.000 C 
ATOM     14  C   UNL     1      43.069  10.681   9.339  0.00  0.00    +0.000 C 
ENDBRANCH  11  12
ENDBRANCH   2  11
ENDBRANCH   1   7
BRANCH   1  15
ATOM     15  C   UNL     1      44.202   4.819  11.882  0.00  0.00    +0.000 A 
ATOM     16  C   UNL     1      43.368   3.824  12.383  0.00  0.00    +0.000 A 
ATOM     17  N   UNL     1      43.144   2.638  11.779  0.00  0.00    +0.000 NA
ATOM     18  C   UNL     1      43.807   2.413  10.620  0.00  0.00    +0.000 A 
ATOM     19  C   UNL     1      44.706   3.301  10.023  0.00  0.00    +0.000 A 
ATOM     20  C   UNL     1      44.875   4.530  10.687  0.00  0.00    +0.000 A 
BRANCH  19  21
ATOM     21  C   UNL     1      45.467   2.957   8.803  0.00  0.00    +0.000 A 
ATOM     22  C   UNL     1      45.798   3.931   7.840  0.00  0.00    +0.000 A 
ATOM     23  C   UNL     1      46.574   3.617   6.715  0.00  0.00    +0.000 A 
ATOM     24  C   UNL     1      47.024   2.317   6.523  0.00  0.00    +0.000 A 
ATOM     25  C   UNL     1      46.691   1.340   7.450  0.00  0.00    +0.000 A 
ATOM     26  F   UNL     1      47.121   0.086   7.268  0.00  0.00    +0.000 F 
ATOM     27  C   UNL     1      45.927   1.646   8.575  0.00  0.00    +0.000 A 
ENDBRANCH  19  21
ENDBRANCH   1  15
TORSDOF 5
ENDMDL
MODEL 2
REMARK VINA RESULT:    -7.252      2.361      4.461
REMARK INTER + INTRA:         -10.167
REMARK INTER:                  -9.297
REMARK INTRA:                  -0.870
REMARK UNBOUND:                -0.795
REMARK  Name = 
REMARK  9 active torsions:
REMARK  status: ('A' for Active; 'I' for Inactive)
REMARK    1  A    between atoms: C_1  and  C_2
REMARK    2  A    between atoms: C_2  and  C_3
REMARK    3  A    between atoms: C_2  and  N_25
REMARK    4  A    between atoms: N_8  and  C_9
REMARK    5  A    between atoms: N_8  and  C_10
REMARK    6  A    between atoms: C_10  and  C_11
REMARK    7  A    between atoms: C_15  and  C_16
REMARK    8  A    between atoms: N_25  and  C_26
REMARK    9  A    between atoms: N_25  and  C_27
REMARK                            x       y       z     vdW  Elec       q    Type
REMARK                         _______ _______ _______ _____ _____    ______ ____
ROOT
ATOM      1  C   UNL     1      45.741   7.176  12.958  0.00  0.00    +0.000 C 
ENDROOT
BRANCH   1   7
ATOM      2  C   UNL     1      49.620   8.904  11.936  0.00  0.00    +0.000 A 
ATOM      3  C   UNL     1      49.625  10.155  11.327  0.00  0.00    +0.000 A 
ATOM      4  C   UNL     1      48.417  10.801  11.176  0.00  0.00    +0.000 A 
ATOM      5  N   UNL     1      47.231  10.283  11.564  0.00  0.00    +0.000 NA
ATOM      6  C   UNL     1      47.191   9.054  12.129  0.00  0.00    +0.000 A 
ATOM      7  N   UNL     1      45.948   8.522  12.431  0.00  0.00    +0.000 N 
ATOM      8  C   UNL     1      44.769   9.284  12.034  0.00  0.00    +0.000 C 
ATOM      9  C   UNL     1      48.387   8.370  12.355  0.00  0.00    +0.000 A 
BRANCH   2  11
ATOM     10  C   UNL     1      51.403   7.692  10.724  0.00  0.00    +0.000 C 
ATOM     11  C   UNL     1      50.927   8.134  12.121  0.00  0.00    +0.000 C 
BRANCH  11  12
ATOM     12  N   UNL     1      51.945   8.922  12.867  0.00  0.00    +0.000 NA
ATOM     13  C   UNL     1      51.698   8.888  14.317  0.00  0.00    +0.000 C 
ATOM     14  C   UNL     1      53.307   8.429  12.628  0.00  0.00    +0.000 C 
ENDBRANCH  11  12
ENDBRANCH   2  11
ENDBRANCH   1   7
BRANCH   1  15
ATOM     15  C   UNL     1      44.995   6.241  12.035  0.00  0.00    +0.000 A 
ATOM     16  C   UNL     1      43.650   5.983  12.288  0.00  0.00    +0.000 A 
ATOM     17  N   UNL     1      42.881   5.150  11.557  0.00  0.00    +0.000 NA
ATOM     18  C   UNL     1      43.486   4.513  10.526  0.00  0.00    +0.000 A 
ATOM     19  C   UNL     1      44.834   4.643  10.182  0.00  0.00    +0.000 A 
ATOM     20  C   UNL     1      45.576   5.546  10.966  0.00  0.00    +0.000 A 
BRANCH  19  21
ATOM     21  C   UNL     1      45.456   3.850   9.100  0.00  0.00    +0.000 A 
ATOM     22  C   UNL     1      46.134   4.465   8.029  0.00  0.00    +0.000 A 
ATOM     23  C   UNL     1      46.777   3.711   7.038  0.00  0.00    +0.000 A 
ATOM     24  C   UNL     1      46.744   2.323   7.089  0.00  0.00    +0.000 A 
ATOM     25  C   UNL     1      46.063   1.700   8.124  0.00  0.00    +0.000 A 
ATOM     26  F   UNL     1      46.026   0.363   8.178  0.00  0.00    +0.000 F 
ATOM     27  C   UNL     1      45.428   2.442   9.119  0.00  0.00    +0.000 A 
ENDBRANCH  19  21
ENDBRANCH   1  15
TORSDOF 5
ENDMDL
MODEL 3
REMARK VINA RESULT:    -6.917      3.791      6.892
REMARK INTER + INTRA:          -9.734
REMARK INTER:                  -8.933
REMARK INTRA:                  -0.801
REMARK UNBOUND:                -0.795
REMARK  Name = 
REMARK  9 active torsions:
REMARK  status: ('A' for Active; 'I' for Inactive)
REMARK    1  A    between atoms: C_1  and  C_2
REMARK    2  A    between atoms: C_2  and  C_3
REMARK    3  A    between atoms: C_2  and  N_25
REMARK    4  A    between atoms: N_8  and  C_9
REMARK    5  A    between atoms: N_8  and  C_10
REMARK    6  A    between atoms: C_10  and  C_11
REMARK    7  A    between atoms: C_15  and  C_16
REMARK    8  A    between atoms: N_25  and  C_26
REMARK    9  A    between atoms: N_25  and  C_27
REMARK                            x       y       z     vdW  Elec       q    Type
REMARK                         _______ _______ _______ _____ _____    ______ ____
ROOT
ATOM      1  C   UNL     1      49.039   7.653  13.478  0.00  0.00    +0.000 C 
ENDROOT
BRANCH   1   7
ATOM      2  C   UNL     1      48.786   5.775  17.414  0.00  0.00    +0.000 A 
ATOM      3  C   UNL     1      49.010   6.581  18.525  0.00  0.00    +0.000 A 
ATOM      4  C   UNL     1      49.200   7.930  18.312  0.00  0.00    +0.000 A 
ATOM      5  N   UNL     1      49.203   8.508  17.092  0.00  0.00    +0.000 NA
ATOM      6  C   UNL     1      49.021   7.744  15.990  0.00  0.00    +0.000 A 
ATOM      7  N   UNL     1      49.120   8.360  14.752  0.00  0.00    +0.000 N 
ATOM      8  C   UNL     1      49.503   9.768  14.724  0.00  0.00    +0.000 C 
ATOM      9  C   UNL     1      48.774   6.379  16.142  0.00  0.00    +0.000 A 
BRANCH   2  11
ATOM     10  C   UNL     1      47.149   3.945  17.121  0.00  0.00    +0.000 C 
ATOM     11  C   UNL     1      48.581   4.270  17.584  0.00  0.00    +0.000 C 
BRANCH  11  12
ATOM     12  N   UNL     1      49.622   3.477  16.876  0.00  0.00    +0.000 NA
ATOM     13  C   UNL     1      50.880   3.432  17.639  0.00  0.00    +0.000 C 
ATOM     14  C   UNL     1      49.192   2.094  16.633  0.00  0.00    +0.000 C 
ENDBRANCH  11  12
ENDBRANCH   2  11
ENDBRANCH   1   7
BRANCH   1  15
ATOM     15  C   UNL     1      47.650   7.565  12.889  0.00  0.00    +0.000 A 
ATOM     16  C   UNL     1      46.708   8.525  13.250  0.00  0.00    +0.000 A 
ATOM     17  N   UNL     1      45.430   8.543  12.816  0.00  0.00    +0.000 NA
ATOM     18  C   UNL     1      45.055   7.535  11.993  0.00  0.00    +0.000 A 
ATOM     19  C   UNL     1      45.879   6.485  11.581  0.00  0.00    +0.000 A 
ATOM     20  C   UNL     1      47.206   6.537  12.046  0.00  0.00    +0.000 A 
BRANCH  19  21
ATOM     21  C   UNL     1      45.382   5.365  10.754  0.00  0.00    +0.000 A 
ATOM     22  C   UNL     1      45.706   5.255   9.387  0.00  0.00    +0.000 A 
ATOM     23  C   UNL     1      45.287   4.160   8.619  0.00  0.00    +0.000 A 
ATOM     24  C   UNL     1      44.520   3.157   9.199  0.00  0.00    +0.000 A 
ATOM     25  C   UNL     1      44.173   3.258  10.538  0.00  0.00    +0.000 A 
ATOM     26  F   UNL     1      43.434   2.296  11.101  0.00  0.00    +0.000 F 
ATOM     27  C   UNL     1      44.593   4.340  11.311  0.00  0.00    +0.000 A 
ENDBRANCH  19  21
ENDBRANCH   1  15
TORSDOF 5
ENDMDL
MODEL 4
REMARK VINA RESULT:    -6.472      3.433      6.453
REMARK INTER + INTRA:          -9.159
REMARK INTER:                  -8.408
REMARK INTRA:                  -0.751
REMARK UNBOUND:                -0.795
REMARK  Name = 
REMARK  9 active torsions:
REMARK  status: ('A' for Active; 'I' for Inactive)
REMARK    1  A    between atoms: C_1  and  C_2
REMARK    2  A    between atoms: C_2  and  C_3
REMARK    3  A    between atoms: C_2  and  N_25
REMARK    4  A    between atoms: N_8  and  C_9
REMARK    5  A    between atoms: N_8  and  C_10
REMARK    6  A    between atoms: C_10  and  C_11
REMARK    7  A    between atoms: C_15  and  C_16
REMARK    8  A    between atoms: N_25  and  C_26
REMARK    9  A    between atoms: N_25  and  C_27
REMARK                            x       y       z     vdW  Elec       q    Type
REMARK                         _______ _______ _______ _____ _____    ______ ____
ROOT
ATOM      1  C   UNL     1      48.700   8.285  12.662  0.00  0.00    +0.000 C 
ENDROOT
BRANCH   1   7
ATOM      2  C   UNL     1      49.044   6.594  16.675  0.00  0.00    +0.000 A 
ATOM      3  C   UNL     1      49.186   7.484  17.736  0.00  0.00    +0.000 A 
ATOM      4  C   UNL     1      49.113   8.832  17.459  0.00  0.00    +0.000 A 
ATOM      5  N   UNL     1      48.934   9.338  16.220  0.00  0.00    +0.000 NA
ATOM      6  C   UNL     1      48.825   8.499  15.163  0.00  0.00    +0.000 A 
ATOM      7  N   UNL     1      48.732   9.059  13.900  0.00  0.00    +0.000 N 
ATOM      8  C   UNL     1      48.849  10.509  13.790  0.00  0.00    +0.000 C 
ATOM      9  C   UNL     1      48.842   7.121  15.386  0.00  0.00    +0.000 A 
BRANCH   2  11
ATOM     10  C   UNL     1      50.543   4.785  17.445  0.00  0.00    +0.000 C 
ATOM     11  C   UNL     1      49.128   5.088  16.918  0.00  0.00    +0.000 C 
BRANCH  11  12
ATOM     12  N   UNL     1      48.049   4.602  17.818  0.00  0.00    +0.000 NA
ATOM     13  C   UNL     1      47.185   3.619  17.145  0.00  0.00    +0.000 C 
ATOM     14  C   UNL     1      48.584   3.975  19.033  0.00  0.00    +0.000 C 
ENDBRANCH  11  12
ENDBRANCH   2  11
ENDBRANCH   1   7
BRANCH   1  15
ATOM     15  C   UNL     1      47.316   7.923  12.175  0.00  0.00    +0.000 A 
ATOM     16  C   UNL     1      46.268   8.806  12.422  0.00  0.00    +0.000 A 
ATOM     17  N   UNL     1      44.985   8.589  12.064  0.00  0.00    +0.000 NA
ATOM     18  C   UNL     1      44.720   7.414  11.444  0.00  0.00    +0.000 A 
ATOM     19  C   UNL     1      45.661   6.419  11.170  0.00  0.00    +0.000 A 
ATOM     20  C   UNL     1      46.984   6.717  11.545  0.00  0.00    +0.000 A 
BRANCH  19  21
ATOM     21  C   UNL     1      45.289   5.119  10.572  0.00  0.00    +0.000 A 
ATOM     22  C   UNL     1      44.704   4.092  11.340  0.00  0.00    +0.000 A 
ATOM     23  C   UNL     1      44.294   2.884  10.761  0.00  0.00    +0.000 A 
ATOM     24  C   UNL     1      44.474   2.671   9.399  0.00  0.00    +0.000 A 
ATOM     25  C   UNL     1      45.067   3.661   8.631  0.00  0.00    +0.000 A 
ATOM     26  F   UNL     1      45.244   3.460   7.320  0.00  0.00    +0.000 F 
ATOM     27  C   UNL     1      45.470   4.869   9.199  0.00  0.00    +0.000 A 
ENDBRANCH  19  21
ENDBRANCH   1  15
TORSDOF 5
ENDMDL
MODEL 5
REMARK VINA RESULT:    -6.105      3.752      7.790
REMARK INTER + INTRA:          -8.685
REMARK INTER:                  -7.558
REMARK INTRA:                  -1.126
REMARK UNBOUND:                -0.795
REMARK  Name = 
REMARK  9 active torsions:
REMARK  status: ('A' for Active; 'I' for Inactive)
REMARK    1  A    between atoms: C_1  and  C_2
REMARK    2  A    between atoms: C_2  and  C_3
REMARK    3  A    between atoms: C_2  and  N_25
REMARK    4  A    between atoms: N_8  and  C_9
REMARK    5  A    between atoms: N_8  and  C_10
REMARK    6  A    between atoms: C_10  and  C_11
REMARK    7  A    between atoms: C_15  and  C_16
REMARK    8  A    between atoms: N_25  and  C_26
REMARK    9  A    between atoms: N_25  and  C_27
REMARK                            x       y       z     vdW  Elec       q    Type
REMARK                         _______ _______ _______ _____ _____    ______ ____
ROOT
ATOM      1  C   UNL     1      48.779   8.387  12.454  0.00  0.00    +0.000 C 
ENDROOT
BRANCH   1   7
ATOM      2  C   UNL     1      45.319   5.862  11.600  0.00  0.00    +0.000 A 
ATOM      3  C   UNL     1      44.091   6.493  11.429  0.00  0.00    +0.000 A 
ATOM      4  C   UNL     1      44.069   7.871  11.446  0.00  0.00    +0.000 A 
ATOM      5  N   UNL     1      45.161   8.641  11.639  0.00  0.00    +0.000 NA
ATOM      6  C   UNL     1      46.364   8.055  11.842  0.00  0.00    +0.000 A 
ATOM      7  N   UNL     1      47.444   8.876  12.125  0.00  0.00    +0.000 N 
ATOM      8  C   UNL     1      47.188  10.305  12.275  0.00  0.00    +0.000 C 
ATOM      9  C   UNL     1      46.461   6.663  11.786  0.00  0.00    +0.000 A 
BRANCH   2  11
ATOM     10  C   UNL     1      45.803   3.900  13.026  0.00  0.00    +0.000 C 
ATOM     11  C   UNL     1      45.406   4.336  11.603  0.00  0.00    +0.000 C 
BRANCH  11  12
ATOM     12  N   UNL     1      44.150   3.700  11.122  0.00  0.00    +0.000 NA
ATOM     13  C   UNL     1      44.388   2.861   9.937  0.00  0.00    +0.000 C 
ATOM     14  C   UNL     1      43.527   2.860  12.153  0.00  0.00    +0.000 C 
ENDBRANCH  11  12
ENDBRANCH   2  11
ENDBRANCH   1   7
BRANCH   1  15
ATOM     15  C   UNL     1      49.032   8.176  13.929  0.00  0.00    +0.000 A 
ATOM     16  C   UNL     1      49.533   9.235  14.680  0.00  0.00    +0.000 A 
ATOM     17  N   UNL     1      49.825   9.169  15.996  0.00  0.00    +0.000 NA
ATOM     18  C   UNL     1      49.633   7.972  16.600  0.00  0.00    +0.000 A 
ATOM     19  C   UNL     1      49.177   6.815  15.964  0.00  0.00    +0.000 A 
ATOM     20  C   UNL     1      48.865   6.956  14.599  0.00  0.00    +0.000 A 
BRANCH  19  21
ATOM     21  C   UNL     1      49.074   5.515  16.660  0.00  0.00    +0.000 A 
ATOM     22  C   UNL     1      50.160   4.972  17.376  0.00  0.00    +0.000 A 
ATOM     23  C   UNL     1      50.043   3.771  18.088  0.00  0.00    +0.000 A 
ATOM     24  C   UNL     1      48.838   3.078  18.089  0.00  0.00    +0.000 A 
ATOM     25  C   UNL     1      47.765   3.586  17.373  0.00  0.00    +0.000 A 
ATOM     26  F   UNL     1      46.603   2.922  17.369  0.00  0.00    +0.000 F 
ATOM     27  C   UNL     1      47.870   4.785  16.669  0.00  0.00    +0.000 A 
ENDBRANCH  19  21
ENDBRANCH   1  15
TORSDOF 5
ENDMDL
MODEL 6
REMARK VINA RESULT:    -5.982      4.236      7.798
REMARK INTER + INTRA:          -8.525
REMARK INTER:                  -7.559
REMARK INTRA:                  -0.966
REMARK UNBOUND:                -0.795
REMARK  Name = 
REMARK  9 active torsions:
REMARK  status: ('A' for Active; 'I' for Inactive)
REMARK    1  A    between atoms: C_1  and  C_2
REMARK    2  A    between atoms: C_2  and  C_3
REMARK    3  A    between atoms: C_2  and  N_25
REMARK    4  A    between atoms: N_8  and  C_9
REMARK    5  A    between atoms: N_8  and  C_10
REMARK    6  A    between atoms: C_10  and  C_11
REMARK    7  A    between atoms: C_15  and  C_16
REMARK    8  A    between atoms: N_25  and  C_26
REMARK    9  A    between atoms: N_25  and  C_27
REMARK                            x       y       z     vdW  Elec       q    Type
REMARK                         _______ _______ _______ _____ _____    ______ ____
ROOT
ATOM      1  C   UNL     1      49.244   8.058  14.913  0.00  0.00    +0.000 C 
ENDROOT
BRANCH   1   7
ATOM      2  C   UNL     1      48.544   5.199  18.141  0.00  0.00    +0.000 A 
ATOM      3  C   UNL     1      48.285   5.712  19.408  0.00  0.00    +0.000 A 
ATOM      4  C   UNL     1      48.173   7.080  19.536  0.00  0.00    +0.000 A 
ATOM      5  N   UNL     1      48.321   7.949  18.512  0.00  0.00    +0.000 NA
ATOM      6  C   UNL     1      48.606   7.481  17.275  0.00  0.00    +0.000 A 
ATOM      7  N   UNL     1      48.838   8.408  16.271  0.00  0.00    +0.000 N 
ATOM      8  C   UNL     1      48.848   9.819  16.640  0.00  0.00    +0.000 C 
ATOM      9  C   UNL     1      48.683   6.102  17.070  0.00  0.00    +0.000 A 
BRANCH   2  11
ATOM     10  C   UNL     1      47.356   3.170  17.375  0.00  0.00    +0.000 C 
ATOM     11  C   UNL     1      48.691   3.692  17.937  0.00  0.00    +0.000 C 
BRANCH  11  12
ATOM     12  N   UNL     1      49.861   3.351  17.083  0.00  0.00    +0.000 NA
ATOM     13  C   UNL     1      51.132   3.581  17.789  0.00  0.00    +0.000 C 
ATOM     14  C   UNL     1      49.835   1.950  16.645  0.00  0.00    +0.000 C 
ENDBRANCH  11  12
ENDBRANCH   2  11
ENDBRANCH   1   7
BRANCH   1  15
ATOM     15  C   UNL     1      48.146   8.153  13.879  0.00  0.00    +0.000 A 
ATOM     16  C   UNL     1      47.911   9.380  13.265  0.00  0.00    +0.000 A 
ATOM     17  N   UNL     1      46.946   9.603  12.347  0.00  0.00    +0.000 NA
ATOM     18  C   UNL     1      46.151   8.552  12.036  0.00  0.00    +0.000 A 
ATOM     19  C   UNL     1      46.244   7.278  12.602  0.00  0.00    +0.000 A 
ATOM     20  C   UNL     1      47.286   7.103  13.532  0.00  0.00    +0.000 A 
BRANCH  19  21
ATOM     21  C   UNL     1      45.286   6.198  12.285  0.00  0.00    +0.000 A 
ATOM     22  C   UNL     1      44.049   6.465  11.666  0.00  0.00    +0.000 A 
ATOM     23  C   UNL     1      43.168   5.435  11.309  0.00  0.00    +0.000 A 
ATOM     24  C   UNL     1      43.501   4.112  11.578  0.00  0.00    +0.000 A 
ATOM     25  C   UNL     1      44.706   3.831  12.205  0.00  0.00    +0.000 A 
ATOM     26  F   UNL     1      45.031   2.560  12.467  0.00  0.00    +0.000 F 
ATOM     27  C   UNL     1      45.591   4.850  12.556  0.00  0.00    +0.000 A 
ENDBRANCH  19  21
ENDBRANCH   1  15
TORSDOF 5
ENDMDL
MODEL 7
REMARK VINA RESULT:    -5.833      6.115      9.378
REMARK INTER + INTRA:          -8.333
REMARK INTER:                  -7.618
REMARK INTRA:                  -0.715
REMARK UNBOUND:                -0.795
REMARK  Name = 
REMARK  9 active torsions:
REMARK  status: ('A' for Active; 'I' for Inactive)
REMARK    1  A    between atoms: C_1  and  C_2
REMARK    2  A    between atoms: C_2  and  C_3
REMARK    3  A    between atoms: C_2  and  N_25
REMARK    4  A    between atoms: N_8  and  C_9
REMARK    5  A    between atoms: N_8  and  C_10
REMARK    6  A    between atoms: C_10  and  C_11
REMARK    7  A    between atoms: C_15  and  C_16
REMARK    8  A    between atoms: N_25  and  C_26
REMARK    9  A    between atoms: N_25  and  C_27
REMARK                            x       y       z     vdW  Elec       q    Type
REMARK                         _______ _______ _______ _____ _____    ______ ____
ROOT
ATOM      1  C   UNL     1      48.767   4.998  17.499  0.00  0.00    +0.000 C 
ENDROOT
BRANCH   1   7
ATOM      2  C   UNL     1      52.760   3.283  17.940  0.00  0.00    +0.000 A 
ATOM      3  C   UNL     1      52.876   1.899  17.862  0.00  0.00    +0.000 A 
ATOM      4  C   UNL     1      51.743   1.175  17.557  0.00  0.00    +0.000 A 
ATOM      5  N   UNL     1      50.528   1.727  17.351  0.00  0.00    +0.000 NA
ATOM      6  C   UNL     1      50.376   3.068  17.453  0.00  0.00    +0.000 A 
ATOM      7  N   UNL     1      49.098   3.587  17.324  0.00  0.00    +0.000 N 
ATOM      8  C   UNL     1      47.995   2.644  17.178  0.00  0.00    +0.000 C 
ATOM      9  C   UNL     1      51.497   3.861  17.711  0.00  0.00    +0.000 A 
BRANCH   2  11
ATOM     10  C   UNL     1      54.272   5.036  17.071  0.00  0.00    +0.000 C 
ATOM     11  C   UNL     1      53.977   4.138  18.287  0.00  0.00    +0.000 C 
BRANCH  11  12
ATOM     12  N   UNL     1      53.786   4.903  19.549  0.00  0.00    +0.000 NA
ATOM     13  C   UNL     1      54.826   4.582  20.539  0.00  0.00    +0.000 C 
ATOM     14  C   UNL     1      53.809   6.354  19.324  0.00  0.00    +0.000 C 
ENDBRANCH  11  12
ENDBRANCH   2  11
ENDBRANCH   1   7
BRANCH   1  15
ATOM     15  C   UNL     1      48.531   5.758  16.214  0.00  0.00    +0.000 A 
ATOM     16  C   UNL     1      49.075   7.033  16.081  0.00  0.00    +0.000 A 
ATOM     17  N   UNL     1      48.916   7.823  14.998  0.00  0.00    +0.000 NA
ATOM     18  C   UNL     1      48.150   7.330  13.996  0.00  0.00    +0.000 A 
ATOM     19  C   UNL     1      47.509   6.089  14.010  0.00  0.00    +0.000 A 
ATOM     20  C   UNL     1      47.735   5.303  15.154  0.00  0.00    +0.000 A 
BRANCH  19  21
ATOM     21  C   UNL     1      46.611   5.648  12.920  0.00  0.00    +0.000 A 
ATOM     22  C   UNL     1      46.507   6.367  11.713  0.00  0.00    +0.000 A 
ATOM     23  C   UNL     1      45.704   5.914  10.656  0.00  0.00    +0.000 A 
ATOM     24  C   UNL     1      44.976   4.738  10.791  0.00  0.00    +0.000 A 
ATOM     25  C   UNL     1      45.050   4.028  11.980  0.00  0.00    +0.000 A 
ATOM     26  F   UNL     1      44.351   2.896  12.117  0.00  0.00    +0.000 F 
ATOM     27  C   UNL     1      45.853   4.467  13.033  0.00  0.00    +0.000 A 
ENDBRANCH  19  21
ENDBRANCH   1  15
TORSDOF 5
ENDMDL
MODEL 8
REMARK VINA RESULT:    -5.798      3.953      7.266
REMARK INTER + INTRA:          -8.288
REMARK INTER:                  -7.250
REMARK INTRA:                  -1.038
REMARK UNBOUND:                -0.795
REMARK  Name = 
REMARK  9 active torsions:
REMARK  status: ('A' for Active; 'I' for Inactive)
REMARK    1  A    between atoms: C_1  and  C_2
REMARK    2  A    between atoms: C_2  and  C_3
REMARK    3  A    between atoms: C_2  and  N_25
REMARK    4  A    between atoms: N_8  and  C_9
REMARK    5  A    between atoms: N_8  and  C_10
REMARK    6  A    between atoms: C_10  and  C_11
REMARK    7  A    between atoms: C_15  and  C_16
REMARK    8  A    between atoms: N_25  and  C_26
REMARK    9  A    between atoms: N_25  and  C_27
REMARK                            x       y       z     vdW  Elec       q    Type
REMARK                         _______ _______ _______ _____ _____    ______ ____
ROOT
ATOM      1  C   UNL     1      50.016   7.897  12.478  0.00  0.00    +0.000 C 
ENDROOT
BRANCH   1   7
ATOM      2  C   UNL     1      50.021   6.495  16.615  0.00  0.00    +0.000 A 
ATOM      3  C   UNL     1      50.702   7.266  17.553  0.00  0.00    +0.000 A 
ATOM      4  C   UNL     1      51.242   8.461  17.131  0.00  0.00    +0.000 A 
ATOM      5  N   UNL     1      51.170   8.916  15.862  0.00  0.00    +0.000 NA
ATOM      6  C   UNL     1      50.544   8.173  14.920  0.00  0.00    +0.000 A 
ATOM      7  N   UNL     1      50.568   8.632  13.613  0.00  0.00    +0.000 N 
ATOM      8  C   UNL     1      51.344   9.834  13.330  0.00  0.00    +0.000 C 
ATOM      9  C   UNL     1      49.932   6.976  15.295  0.00  0.00    +0.000 A 
BRANCH   2  11
ATOM     10  C   UNL     1      50.122   4.692  18.304  0.00  0.00    +0.000 C 
ATOM     11  C   UNL     1      49.411   5.154  17.019  0.00  0.00    +0.000 C 
BRANCH  11  12
ATOM     12  N   UNL     1      47.931   5.229  17.160  0.00  0.00    +0.000 NA
ATOM     13  C   UNL     1      47.280   3.996  16.690  0.00  0.00    +0.000 C 
ATOM     14  C   UNL     1      47.520   5.456  18.551  0.00  0.00    +0.000 C 
ENDBRANCH  11  12
ENDBRANCH   2  11
ENDBRANCH   1   7
BRANCH   1  15
ATOM     15  C   UNL     1      48.523   8.038  12.297  0.00  0.00    +0.000 A 
ATOM     16  C   UNL     1      47.961   9.311  12.333  0.00  0.00    +0.000 A 
ATOM     17  N   UNL     1      46.642   9.568  12.211  0.00  0.00    +0.000 NA
ATOM     18  C   UNL     1      45.826   8.497  12.069  0.00  0.00    +0.000 A 
ATOM     19  C   UNL     1      46.244   7.164  12.058  0.00  0.00    +0.000 A 
ATOM     20  C   UNL     1      47.633   6.963  12.163  0.00  0.00    +0.000 A 
BRANCH  19  21
ATOM     21  C   UNL     1      45.292   6.035  11.991  0.00  0.00    +0.000 A 
ATOM     22  C   UNL     1      45.714   4.701  12.156  0.00  0.00    +0.000 A 
ATOM     23  C   UNL     1      44.802   3.636  12.155  0.00  0.00    +0.000 A 
ATOM     24  C   UNL     1      43.447   3.883  11.975  0.00  0.00    +0.000 A 
ATOM     25  C   UNL     1      43.014   5.188  11.790  0.00  0.00    +0.000 A 
ATOM     26  F   UNL     1      41.710   5.431  11.615  0.00  0.00    +0.000 F 
ATOM     27  C   UNL     1      43.914   6.253  11.798  0.00  0.00    +0.000 A 
ENDBRANCH  19  21
ENDBRANCH   1  15
TORSDOF 5
ENDMDL
MODEL 9
REMARK VINA RESULT:    -5.793      3.984      7.508
REMARK INTER + INTRA:          -8.282
REMARK INTER:                  -7.502
REMARK INTRA:                  -0.780
REMARK UNBOUND:                -0.795
REMARK  Name = 
REMARK  9 active torsions:
REMARK  status: ('A' for Active; 'I' for Inactive)
REMARK    1  A    between atoms: C_1  and  C_2
REMARK    2  A    between atoms: C_2  and  C_3
REMARK    3  A    between atoms: C_2  and  N_25
REMARK    4  A    between atoms: N_8  and  C_9
REMARK    5  A    between atoms: N_8  and  C_10
REMARK    6  A    between atoms: C_10  and  C_11
REMARK    7  A    between atoms: C_15  and  C_16
REMARK    8  A    between atoms: N_25  and  C_26
REMARK    9  A    between atoms: N_25  and  C_27
REMARK                            x       y       z     vdW  Elec       q    Type
REMARK                         _______ _______ _______ _____ _____    ______ ____
ROOT
ATOM      1  C   UNL     1      47.729   8.839  12.776  0.00  0.00    +0.000 C 
ENDROOT
BRANCH   1   7
ATOM      2  C   UNL     1      45.857   4.920  12.308  0.00  0.00    +0.000 A 
ATOM      3  C   UNL     1      46.235   3.918  13.197  0.00  0.00    +0.000 A 
ATOM      4  C   UNL     1      47.097   4.256  14.217  0.00  0.00    +0.000 A 
ATOM      5  N   UNL     1      47.612   5.493  14.392  0.00  0.00    +0.000 NA
ATOM      6  C   UNL     1      47.289   6.480  13.524  0.00  0.00    +0.000 A 
ATOM      7  N   UNL     1      47.907   7.709  13.684  0.00  0.00    +0.000 N 
ATOM      8  C   UNL     1      48.929   7.826  14.720  0.00  0.00    +0.000 C 
ATOM      9  C   UNL     1      46.381   6.213  12.498  0.00  0.00    +0.000 A 
BRANCH   2  11
ATOM     10  C   UNL     1      45.530   5.209   9.874  0.00  0.00    +0.000 C 
ATOM     11  C   UNL     1      44.913   4.604  11.149  0.00  0.00    +0.000 C 
BRANCH  11  12
ATOM     12  N   UNL     1      44.633   3.148  11.032  0.00  0.00    +0.000 NA
ATOM     13  C   UNL     1      43.283   2.816  11.516  0.00  0.00    +0.000 C 
ATOM     14  C   UNL     1      44.745   2.673   9.647  0.00  0.00    +0.000 C 
ENDBRANCH  11  12
ENDBRANCH   2  11
ENDBRANCH   1   7
BRANCH   1  15
ATOM     15  C   UNL     1      49.013   9.444  12.258  0.00  0.00    +0.000 A 
ATOM     16  C   UNL     1      49.230  10.807  12.436  0.00  0.00    +0.000 A 
ATOM     17  N   UNL     1      50.320  11.472  11.998  0.00  0.00    +0.000 NA
ATOM     18  C   UNL     1      51.241  10.746  11.320  0.00  0.00    +0.000 A 
ATOM     19  C   UNL     1      51.136   9.383  11.031  0.00  0.00    +0.000 A 
ATOM     20  C   UNL     1      49.990   8.743  11.538  0.00  0.00    +0.000 A 
BRANCH  19  21
ATOM     21  C   UNL     1      52.134   8.669  10.207  0.00  0.00    +0.000 A 
ATOM     22  C   UNL     1      53.014   9.357   9.350  0.00  0.00    +0.000 A 
ATOM     23  C   UNL     1      54.002   8.685   8.616  0.00  0.00    +0.000 A 
ATOM     24  C   UNL     1      54.121   7.304   8.716  0.00  0.00    +0.000 A 
ATOM     25  C   UNL     1      53.250   6.606   9.539  0.00  0.00    +0.000 A 
ATOM     26  F   UNL     1      53.359   5.276   9.637  0.00  0.00    +0.000 F 
ATOM     27  C   UNL     1      52.270   7.269  10.278  0.00  0.00    +0.000 A 
ENDBRANCH  19  21
ENDBRANCH   1  15
TORSDOF 5
ENDMDL
