MODEL 1
REMARK VINA RESULT:    -8.639      0.000      0.000
REMARK INTER + INTRA:         -11.400
REMARK INTER:                 -10.659
REMARK INTRA:                  -0.741
REMARK UNBOUND:                -0.741
REMARK  Name = 
REMARK  4 active torsions:
REMARK  status: ('A' for Active; 'I' for Inactive)
REMARK    1  A    between atoms: C_2  and  C_5
REMARK    2  A    between atoms: N_9  and  C_10
REMARK    3  A    between atoms: C_10  and  C_11
REMARK    4  A    between atoms: C_15  and  C_16
REMARK                            x       y       z     vdW  Elec       q    Type
REMARK                         _______ _______ _______ _____ _____    ______ ____
ROOT
ATOM      1  C   UNL     1      43.648   4.610  11.270  0.00  0.00    +0.000 C 
ENDROOT
BRANCH   1   6
ATOM      2  C   UNL     1      46.196   2.268   7.826  0.00  0.00    +0.000 A 
ATOM      3  C   UNL     1      45.345   1.888   8.831  0.00  0.00    +0.000 A 
ATOM      4  N   UNL     1      44.583   2.753   9.527  0.00  0.00    +0.000 NA
ATOM      5  C   UNL     1      44.668   4.053   9.207  0.00  0.00    +0.000 A 
ATOM      6  N   UNL     1      43.905   4.986   9.895  0.00  0.00    +0.000 N 
ATOM      7  N   UNL     1      45.473   4.521   8.247  0.00  0.00    +0.000 NA
ATOM      8  C   UNL     1      46.214   3.618   7.569  0.00  0.00    +0.000 A 
ATOM      9  H   UNL     1      44.339   5.891   9.765  0.00  0.00    +0.000 HD
BRANCH   2  11
ATOM     10  F   UNL     1      46.766   0.001   7.387  0.00  0.00    +0.000 F 
ATOM     11  C   UNL     1      47.034   1.300   7.077  0.00  0.00    +0.000 C 
ATOM     12  F   UNL     1      48.362   1.470   7.316  0.00  0.00    +0.000 F 
ATOM     13  F   UNL     1      46.879   1.401   5.730  0.00  0.00    +0.000 F 
ENDBRANCH   2  11
ENDBRANCH   1   6
BRANCH   1  14
ATOM     14  C   UNL     1      44.841   4.916  12.149  0.00  0.00    +0.000 A 
ATOM     15  C   UNL     1      45.454   3.900  12.894  0.00  0.00    +0.000 A 
ATOM     16  C   UNL     1      46.615   4.157  13.618  0.00  0.00    +0.000 A 
ATOM     17  C   UNL     1      47.186   5.431  13.597  0.00  0.00    +0.000 A 
ATOM     18  C   UNL     1      46.601   6.466  12.853  0.00  0.00    +0.000 A 
ATOM     19  C   UNL     1      45.418   6.197  12.145  0.00  0.00    +0.000 A 
BRANCH  18  20
ATOM     20  C   UNL     1      47.240   7.839  12.757  0.00  0.00    +0.000 C 
ATOM     21  C   UNL     1      46.233   8.903  12.292  0.00  0.00    +0.000 C 
ATOM     22  C   UNL     1      46.916  10.256  12.145  0.00  0.00    +0.000 C 
ATOM     23  O   UNL     1      48.034  10.164  11.264  0.00  0.00    +0.000 OA
ATOM     24  C   UNL     1      49.035   9.270  11.749  0.00  0.00    +0.000 C 
ATOM     25  C   UNL     1      48.484   7.854  11.859  0.00  0.00    +0.000 C 
ENDBRANCH  18  20
ENDBRANCH   1  14
TORSDOF 4
ENDMDL
MODEL 2
REMARK VINA RESULT:    -8.250      2.423      3.750
REMARK INTER + INTRA:         -10.920
REMARK INTER:                 -10.421
REMARK INTRA:                  -0.499
REMARK UNBOUND:                -0.741
REMARK  Name = 
REMARK  4 active torsions:
REMARK  status: ('A' for Active; 'I' for Inactive)
REMARK    1  A    between atoms: C_2  and  C_5
REMARK    2  A    between atoms: N_9  and  C_10
REMARK    3  A    between atoms: C_10  and  C_11
REMARK    4  A    between atoms: C_15  and  C_16
REMARK                            x       y       z     vdW  Elec       q    Type
REMARK                         _______ _______ _______ _____ _____    ______ ____
ROOT
ATOM      1  C   UNL     1      44.200   4.764  11.590  0.00  0.00    +0.000 C 
ENDROOT
BRANCH   1   6
ATOM      2  C   UNL     1      46.265   2.355   7.880  0.00  0.00    +0.000 A 
ATOM      3  C   UNL     1      45.622   1.992   9.034  0.00  0.00    +0.000 A 
ATOM      4  N   UNL     1      44.938   2.856   9.808  0.00  0.00    +0.000 NA
ATOM      5  C   UNL     1      44.888   4.138   9.413  0.00  0.00    +0.000 A 
ATOM      6  N   UNL     1      44.197   5.070  10.175  0.00  0.00    +0.000 N 
ATOM      7  N   UNL     1      45.488   4.589   8.305  0.00  0.00    +0.000 NA
ATOM      8  C   UNL     1      46.157   3.686   7.556  0.00  0.00    +0.000 A 
ATOM      9  H   UNL     1      44.547   5.986   9.927  0.00  0.00    +0.000 HD
BRANCH   2  11
ATOM     10  F   UNL     1      46.794   1.533   5.711  0.00  0.00    +0.000 F 
ATOM     11  C   UNL     1      47.022   1.388   7.047  0.00  0.00    +0.000 C 
ATOM     12  F   UNL     1      46.709   0.097   7.336  0.00  0.00    +0.000 F 
ATOM     13  F   UNL     1      48.367   1.494   7.208  0.00  0.00    +0.000 F 
ENDBRANCH   2  11
ENDBRANCH   1   6
BRANCH   1  14
ATOM     14  C   UNL     1      45.482   5.233  12.244  0.00  0.00    +0.000 A 
ATOM     15  C   UNL     1      46.239   6.261  11.666  0.00  0.00    +0.000 A 
ATOM     16  C   UNL     1      47.360   6.766  12.320  0.00  0.00    +0.000 A 
ATOM     17  C   UNL     1      47.730   6.260  13.567  0.00  0.00    +0.000 A 
ATOM     18  C   UNL     1      46.986   5.238  14.175  0.00  0.00    +0.000 A 
ATOM     19  C   UNL     1      45.871   4.724  13.493  0.00  0.00    +0.000 A 
BRANCH  18  20
ATOM     20  C   UNL     1      47.327   4.720  15.561  0.00  0.00    +0.000 C 
ATOM     21  C   UNL     1      48.376   5.602  16.256  0.00  0.00    +0.000 C 
ATOM     22  C   UNL     1      48.743   5.024  17.615  0.00  0.00    +0.000 C 
ATOM     23  O   UNL     1      49.187   3.675  17.487  0.00  0.00    +0.000 OA
ATOM     24  C   UNL     1      48.177   2.819  16.957  0.00  0.00    +0.000 C 
ATOM     25  C   UNL     1      47.784   3.255  15.551  0.00  0.00    +0.000 C 
ENDBRANCH  18  20
ENDBRANCH   1  14
TORSDOF 4
ENDMDL
MODEL 3
REMARK VINA RESULT:    -7.230      1.741      2.665
REMARK INTER + INTRA:          -9.662
REMARK INTER:                  -9.148
REMARK INTRA:                  -0.514
REMARK UNBOUND:                -0.741
REMARK  Name = 
REMARK  4 active torsions:
REMARK  status: ('A' for Active; 'I' for Inactive)
REMARK    1  A    between atoms: C_2  and  C_5
REMARK    2  A    between atoms: N_9  and  C_10
REMARK    3  A    between atoms: C_10  and  C_11
REMARK    4  A    between atoms: C_15  and  C_16
REMARK                            x       y       z     vdW  Elec       q    Type
REMARK                         _______ _______ _______ _____ _____    ______ ____
ROOT
ATOM      1  C   UNL     1      43.632   5.320  10.779  0.00  0.00    +0.000 C 
ENDROOT
BRANCH   1   6
ATOM      2  C   UNL     1      46.262   2.692   7.614  0.00  0.00    +0.000 A 
ATOM      3  C   UNL     1      46.191   4.018   7.951  0.00  0.00    +0.000 A 
ATOM      4  N   UNL     1      45.527   4.478   9.028  0.00  0.00    +0.000 NA
ATOM      5  C   UNL     1      44.907   3.577   9.806  0.00  0.00    +0.000 A 
ATOM      6  N   UNL     1      44.206   3.999  10.928  0.00  0.00    +0.000 N 
ATOM      7  N   UNL     1      44.913   2.263   9.557  0.00  0.00    +0.000 NA
ATOM      8  C   UNL     1      45.599   1.845   8.470  0.00  0.00    +0.000 A 
ATOM      9  H   UNL     1      43.552   3.265  11.172  0.00  0.00    +0.000 HD
BRANCH   2  11
ATOM     10  F   UNL     1      46.473   2.668   5.245  0.00  0.00    +0.000 F 
ATOM     11  C   UNL     1      46.992   2.207   6.418  0.00  0.00    +0.000 C 
ATOM     12  F   UNL     1      46.983   0.850   6.318  0.00  0.00    +0.000 F 
ATOM     13  F   UNL     1      48.301   2.574   6.415  0.00  0.00    +0.000 F 
ENDBRANCH   2  11
ENDBRANCH   1   6
BRANCH   1  14
ATOM     14  C   UNL     1      44.406   6.342  11.583  0.00  0.00    +0.000 A 
ATOM     15  C   UNL     1      45.405   5.933  12.477  0.00  0.00    +0.000 A 
ATOM     16  C   UNL     1      46.190   6.875  13.137  0.00  0.00    +0.000 A 
ATOM     17  C   UNL     1      45.995   8.237  12.903  0.00  0.00    +0.000 A 
ATOM     18  C   UNL     1      45.010   8.676  12.006  0.00  0.00    +0.000 A 
ATOM     19  C   UNL     1      44.212   7.715  11.364  0.00  0.00    +0.000 A 
BRANCH  18  20
ATOM     20  C   UNL     1      44.826  10.147  11.680  0.00  0.00    +0.000 C 
ATOM     21  C   UNL     1      44.033  10.346  10.379  0.00  0.00    +0.000 C 
ATOM     22  C   UNL     1      43.917  11.827  10.046  0.00  0.00    +0.000 C 
ATOM     23  O   UNL     1      45.207  12.431   9.976  0.00  0.00    +0.000 OA
ATOM     24  C   UNL     1      45.906  12.362  11.218  0.00  0.00    +0.000 C 
ATOM     25  C   UNL     1      46.154  10.912  11.617  0.00  0.00    +0.000 C 
ENDBRANCH  18  20
ENDBRANCH   1  14
TORSDOF 4
ENDMDL
MODEL 4
REMARK VINA RESULT:    -7.155      5.531      8.015
REMARK INTER + INTRA:          -9.569
REMARK INTER:                  -9.059
REMARK INTRA:                  -0.509
REMARK UNBOUND:                -0.741
REMARK  Name = 
REMARK  4 active torsions:
REMARK  status: ('A' for Active; 'I' for Inactive)
REMARK    1  A    between atoms: C_2  and  C_5
REMARK    2  A    between atoms: N_9  and  C_10
REMARK    3  A    between atoms: C_10  and  C_11
REMARK    4  A    between atoms: C_15  and  C_16
REMARK                            x       y       z     vdW  Elec       q    Type
REMARK                         _______ _______ _______ _____ _____    ______ ____
ROOT
ATOM      1  C   UNL     1      45.592   3.622  12.937  0.00  0.00    +0.000 C 
ENDROOT
BRANCH   1   6
ATOM      2  C   UNL     1      48.521   4.005  16.824  0.00  0.00    +0.000 A 
ATOM      3  C   UNL     1      48.038   2.966  16.072  0.00  0.00    +0.000 A 
ATOM      4  N   UNL     1      47.406   3.132  14.895  0.00  0.00    +0.000 NA
ATOM      5  C   UNL     1      47.251   4.387  14.444  0.00  0.00    +0.000 A 
ATOM      6  N   UNL     1      46.605   4.612  13.236  0.00  0.00    +0.000 N 
ATOM      7  N   UNL     1      47.682   5.464  15.109  0.00  0.00    +0.000 NA
ATOM      8  C   UNL     1      48.317   5.252  16.282  0.00  0.00    +0.000 A 
ATOM      9  H   UNL     1      46.288   5.573  13.236  0.00  0.00    +0.000 HD
BRANCH   2  11
ATOM     10  F   UNL     1      50.213   2.885  18.066  0.00  0.00    +0.000 F 
ATOM     11  C   UNL     1      49.207   3.802  18.124  0.00  0.00    +0.000 C 
ATOM     12  F   UNL     1      48.361   3.361  19.094  0.00  0.00    +0.000 F 
ATOM     13  F   UNL     1      49.770   4.941  18.607  0.00  0.00    +0.000 F 
ENDBRANCH   2  11
ENDBRANCH   1   6
BRANCH   1  14
ATOM     14  C   UNL     1      45.015   3.835  11.555  0.00  0.00    +0.000 A 
ATOM     15  C   UNL     1      44.056   4.832  11.332  0.00  0.00    +0.000 A 
ATOM     16  C   UNL     1      43.603   5.100  10.043  0.00  0.00    +0.000 A 
ATOM     17  C   UNL     1      44.113   4.385   8.958  0.00  0.00    +0.000 A 
ATOM     18  C   UNL     1      45.081   3.388   9.149  0.00  0.00    +0.000 A 
ATOM     19  C   UNL     1      45.512   3.113  10.458  0.00  0.00    +0.000 A 
BRANCH  18  20
ATOM     20  C   UNL     1      45.703   2.645   7.980  0.00  0.00    +0.000 C 
ATOM     21  C   UNL     1      46.232   1.265   8.401  0.00  0.00    +0.000 C 
ATOM     22  C   UNL     1      46.904   0.570   7.225  0.00  0.00    +0.000 C 
ATOM     23  O   UNL     1      47.936   1.388   6.678  0.00  0.00    +0.000 OA
ATOM     24  C   UNL     1      47.436   2.624   6.169  0.00  0.00    +0.000 C 
ATOM     25  C   UNL     1      46.808   3.450   7.285  0.00  0.00    +0.000 C 
ENDBRANCH  18  20
ENDBRANCH   1  14
TORSDOF 4
ENDMDL
MODEL 5
REMARK VINA RESULT:    -7.072      5.536      8.058
REMARK INTER + INTRA:          -9.467
REMARK INTER:                  -8.969
REMARK INTRA:                  -0.498
REMARK UNBOUND:                -0.741
REMARK  Name = 
REMARK  4 active torsions:
REMARK  status: ('A' for Active; 'I' for Inactive)
REMARK    1  A    between atoms: C_2  and  C_5
REMARK    2  A    between atoms: N_9  and  C_10
REMARK    3  A    between atoms: C_10  and  C_11
REMARK    4  A    between atoms: C_15  and  C_16
REMARK                            x       y       z     vdW  Elec       q    Type
REMARK                         _______ _______ _______ _____ _____    ______ ____
ROOT
ATOM      1  C   UNL     1      46.340   5.275  13.675  0.00  0.00    +0.000 C 
ENDROOT
BRANCH   1   6
ATOM      2  C   UNL     1      49.440   4.177  17.284  0.00  0.00    +0.000 A 
ATOM      3  C   UNL     1      49.121   5.316  16.592  0.00  0.00    +0.000 A 
ATOM      4  N   UNL     1      48.057   5.414  15.771  0.00  0.00    +0.000 NA
ATOM      5  C   UNL     1      47.275   4.332  15.635  0.00  0.00    +0.000 A 
ATOM      6  N   UNL     1      46.168   4.380  14.800  0.00  0.00    +0.000 N 
ATOM      7  N   UNL     1      47.509   3.174  16.263  0.00  0.00    +0.000 NA
ATOM      8  C   UNL     1      48.581   3.122  17.083  0.00  0.00    +0.000 A 
ATOM      9  H   UNL     1      45.923   3.427  14.564  0.00  0.00    +0.000 HD
BRANCH   2  11
ATOM     10  F   UNL     1      50.334   4.360  19.480  0.00  0.00    +0.000 F 
ATOM     11  C   UNL     1      50.621   4.086  18.177  0.00  0.00    +0.000 C 
ATOM     12  F   UNL     1      51.606   4.955  17.824  0.00  0.00    +0.000 F 
ATOM     13  F   UNL     1      51.191   2.852  18.173  0.00  0.00    +0.000 F 
ENDBRANCH   2  11
ENDBRANCH   1   6
BRANCH   1  14
ATOM     14  C   UNL     1      45.263   5.056  12.636  0.00  0.00    +0.000 A 
ATOM     15  C   UNL     1      43.996   5.633  12.794  0.00  0.00    +0.000 A 
ATOM     16  C   UNL     1      43.038   5.521  11.790  0.00  0.00    +0.000 A 
ATOM     17  C   UNL     1      43.338   4.842  10.608  0.00  0.00    +0.000 A 
ATOM     18  C   UNL     1      44.601   4.262  10.417  0.00  0.00    +0.000 A 
ATOM     19  C   UNL     1      45.549   4.365  11.448  0.00  0.00    +0.000 A 
BRANCH  18  20
ATOM     20  C   UNL     1      44.976   3.579   9.114  0.00  0.00    +0.000 C 
ATOM     21  C   UNL     1      45.492   2.151   9.349  0.00  0.00    +0.000 C 
ATOM     22  C   UNL     1      45.918   1.515   8.033  0.00  0.00    +0.000 C 
ATOM     23  O   UNL     1      46.888   2.325   7.371  0.00  0.00    +0.000 OA
ATOM     24  C   UNL     1      46.378   3.615   7.036  0.00  0.00    +0.000 C 
ATOM     25  C   UNL     1      45.992   4.385   8.292  0.00  0.00    +0.000 C 
ENDBRANCH  18  20
ENDBRANCH   1  14
TORSDOF 4
ENDMDL
MODEL 6
REMARK VINA RESULT:    -7.026      2.030      3.327
REMARK INTER + INTRA:          -9.410
REMARK INTER:                  -9.167
REMARK INTRA:                  -0.243
REMARK UNBOUND:                -0.741
REMARK  Name = 
REMARK  4 active torsions:
REMARK  status: ('A' for Active; 'I' for Inactive)
REMARK    1  A    between atoms: C_2  and  C_5
REMARK    2  A    between atoms: N_9  and  C_10
REMARK    3  A    between atoms: C_10  and  C_11
REMARK    4  A    between atoms: C_15  and  C_16
REMARK                            x       y       z     vdW  Elec       q    Type
REMARK                         _______ _______ _______ _____ _____    ______ ____
ROOT
ATOM      1  C   UNL     1      43.552   5.138  10.789  0.00  0.00    +0.000 C 
ENDROOT
BRANCH   1   6
ATOM      2  C   UNL     1      46.213   2.612   7.568  0.00  0.00    +0.000 A 
ATOM      3  C   UNL     1      46.219   3.901   8.033  0.00  0.00    +0.000 A 
ATOM      4  N   UNL     1      45.508   4.310   9.101  0.00  0.00    +0.000 NA
ATOM      5  C   UNL     1      44.761   3.394   9.737  0.00  0.00    +0.000 A 
ATOM      6  N   UNL     1      44.007   3.764  10.843  0.00  0.00    +0.000 N 
ATOM      7  N   UNL     1      44.685   2.115   9.355  0.00  0.00    +0.000 NA
ATOM      8  C   UNL     1      45.420   1.746   8.284  0.00  0.00    +0.000 A 
ATOM      9  H   UNL     1      43.282   3.069  10.963  0.00  0.00    +0.000 HD
BRANCH   2  11
ATOM     10  F   UNL     1      48.315   2.520   6.459  0.00  0.00    +0.000 F 
ATOM     11  C   UNL     1      46.997   2.184   6.384  0.00  0.00    +0.000 C 
ATOM     12  F   UNL     1      46.539   2.740   5.230  0.00  0.00    +0.000 F 
ATOM     13  F   UNL     1      46.966   0.839   6.190  0.00  0.00    +0.000 F 
ENDBRANCH   2  11
ENDBRANCH   1   6
BRANCH   1  14
ATOM     14  C   UNL     1      44.535   6.063  11.472  0.00  0.00    +0.000 A 
ATOM     15  C   UNL     1      44.389   7.453  11.371  0.00  0.00    +0.000 A 
ATOM     16  C   UNL     1      45.228   8.305  12.085  0.00  0.00    +0.000 A 
ATOM     17  C   UNL     1      46.215   7.778  12.919  0.00  0.00    +0.000 A 
ATOM     18  C   UNL     1      46.379   6.391  13.048  0.00  0.00    +0.000 A 
ATOM     19  C   UNL     1      45.539   5.545  12.305  0.00  0.00    +0.000 A 
BRANCH  18  20
ATOM     20  C   UNL     1      47.397   5.793  14.002  0.00  0.00    +0.000 C 
ATOM     21  C   UNL     1      46.782   4.683  14.868  0.00  0.00    +0.000 C 
ATOM     22  C   UNL     1      47.808   4.145  15.855  0.00  0.00    +0.000 C 
ATOM     23  O   UNL     1      48.344   5.200  16.651  0.00  0.00    +0.000 OA
ATOM     24  C   UNL     1      49.028   6.177  15.867  0.00  0.00    +0.000 C 
ATOM     25  C   UNL     1      48.072   6.848  14.888  0.00  0.00    +0.000 C 
ENDBRANCH  18  20
ENDBRANCH   1  14
TORSDOF 4
ENDMDL
MODEL 7
REMARK VINA RESULT:    -6.783      1.646      2.591
REMARK INTER + INTRA:          -9.110
REMARK INTER:                  -8.846
REMARK INTRA:                  -0.264
REMARK UNBOUND:                -0.741
REMARK  Name = 
REMARK  4 active torsions:
REMARK  status: ('A' for Active; 'I' for Inactive)
REMARK    1  A    between atoms: C_2  and  C_5
REMARK    2  A    between atoms: N_9  and  C_10
REMARK    3  A    between atoms: C_10  and  C_11
REMARK    4  A    between atoms: C_15  and  C_16
REMARK                            x       y       z     vdW  Elec       q    Type
REMARK                         _______ _______ _______ _____ _____    ______ ____
ROOT
ATOM      1  C   UNL     1      43.852   5.539  10.630  0.00  0.00    +0.000 C 
ENDROOT
BRANCH   1   6
ATOM      2  C   UNL     1      46.340   2.705   7.528  0.00  0.00    +0.000 A 
ATOM      3  C   UNL     1      46.209   4.056   7.716  0.00  0.00    +0.000 A 
ATOM      4  N   UNL     1      45.622   4.603   8.798  0.00  0.00    +0.000 NA
ATOM      5  C   UNL     1      45.146   3.768   9.735  0.00  0.00    +0.000 A 
ATOM      6  N   UNL     1      44.529   4.281  10.868  0.00  0.00    +0.000 N 
ATOM      7  N   UNL     1      45.220   2.436   9.638  0.00  0.00    +0.000 NA
ATOM      8  C   UNL     1      45.824   1.931   8.541  0.00  0.00    +0.000 A 
ATOM      9  H   UNL     1      43.956   3.545  11.262  0.00  0.00    +0.000 HD
BRANCH   2  11
ATOM     10  F   UNL     1      46.837   0.770   6.237  0.00  0.00    +0.000 F 
ATOM     11  C   UNL     1      46.983   2.122   6.325  0.00  0.00    +0.000 C 
ATOM     12  F   UNL     1      48.322   2.353   6.289  0.00  0.00    +0.000 F 
ATOM     13  F   UNL     1      46.484   2.627   5.165  0.00  0.00    +0.000 F 
ENDBRANCH   2  11
ENDBRANCH   1   6
BRANCH   1  14
ATOM     14  C   UNL     1      44.675   6.702  11.138  0.00  0.00    +0.000 A 
ATOM     15  C   UNL     1      44.084   7.958  11.332  0.00  0.00    +0.000 A 
ATOM     16  C   UNL     1      44.812   9.001  11.900  0.00  0.00    +0.000 A 
ATOM     17  C   UNL     1      46.136   8.799  12.292  0.00  0.00    +0.000 A 
ATOM     18  C   UNL     1      46.751   7.550  12.119  0.00  0.00    +0.000 A 
ATOM     19  C   UNL     1      46.011   6.514  11.526  0.00  0.00    +0.000 A 
BRANCH  18  20
ATOM     20  C   UNL     1      48.166   7.284  12.602  0.00  0.00    +0.000 C 
ATOM     21  C   UNL     1      48.292   7.472  14.122  0.00  0.00    +0.000 C 
ATOM     22  C   UNL     1      49.732   7.259  14.568  0.00  0.00    +0.000 C 
ATOM     23  O   UNL     1      50.614   8.122  13.853  0.00  0.00    +0.000 OA
ATOM     24  C   UNL     1      50.598   7.873  12.449  0.00  0.00    +0.000 C 
ATOM     25  C   UNL     1      49.212   8.135  11.871  0.00  0.00    +0.000 C 
ENDBRANCH  18  20
ENDBRANCH   1  14
TORSDOF 4
ENDMDL
MODEL 8
REMARK VINA RESULT:    -6.777      5.917      8.033
REMARK INTER + INTRA:          -9.103
REMARK INTER:                  -8.471
REMARK INTRA:                  -0.632
REMARK UNBOUND:                -0.741
REMARK  Name = 
REMARK  4 active torsions:
REMARK  status: ('A' for Active; 'I' for Inactive)
REMARK    1  A    between atoms: C_2  and  C_5
REMARK    2  A    between atoms: N_9  and  C_10
REMARK    3  A    between atoms: C_10  and  C_11
REMARK    4  A    between atoms: C_15  and  C_16
REMARK                            x       y       z     vdW  Elec       q    Type
REMARK                         _______ _______ _______ _____ _____    ______ ____
ROOT
ATOM      1  C   UNL     1      48.732   6.430  15.805  0.00  0.00    +0.000 C 
ENDROOT
BRANCH   1   6
ATOM      2  C   UNL     1      50.875   2.329  17.362  0.00  0.00    +0.000 A 
ATOM      3  C   UNL     1      51.193   3.662  17.392  0.00  0.00    +0.000 A 
ATOM      4  N   UNL     1      50.322   4.641  17.083  0.00  0.00    +0.000 NA
ATOM      5  C   UNL     1      49.079   4.278  16.731  0.00  0.00    +0.000 A 
ATOM      6  N   UNL     1      48.143   5.248  16.401  0.00  0.00    +0.000 N 
ATOM      7  N   UNL     1      48.677   3.004  16.665  0.00  0.00    +0.000 NA
ATOM      8  C   UNL     1      49.581   2.054  16.991  0.00  0.00    +0.000 A 
ATOM      9  H   UNL     1      47.419   4.800  15.853  0.00  0.00    +0.000 HD
BRANCH   2  11
ATOM     10  F   UNL     1      52.502   0.765  16.608  0.00  0.00    +0.000 F 
ATOM     11  C   UNL     1      51.853   1.265  17.698  0.00  0.00    +0.000 C 
ATOM     12  F   UNL     1      51.269   0.195  18.302  0.00  0.00    +0.000 F 
ATOM     13  F   UNL     1      52.825   1.691  18.547  0.00  0.00    +0.000 F 
ENDBRANCH   2  11
ENDBRANCH   1   6
BRANCH   1  14
ATOM     14  C   UNL     1      48.246   6.622  14.385  0.00  0.00    +0.000 A 
ATOM     15  C   UNL     1      49.020   7.336  13.460  0.00  0.00    +0.000 A 
ATOM     16  C   UNL     1      48.626   7.423  12.127  0.00  0.00    +0.000 A 
ATOM     17  C   UNL     1      47.461   6.785  11.699  0.00  0.00    +0.000 A 
ATOM     18  C   UNL     1      46.671   6.055  12.599  0.00  0.00    +0.000 A 
ATOM     19  C   UNL     1      47.070   5.995  13.944  0.00  0.00    +0.000 A 
BRANCH  18  20
ATOM     20  C   UNL     1      45.438   5.295  12.144  0.00  0.00    +0.000 C 
ATOM     21  C   UNL     1      45.247   5.381  10.621  0.00  0.00    +0.000 C 
ATOM     22  C   UNL     1      43.972   4.663  10.202  0.00  0.00    +0.000 C 
ATOM     23  O   UNL     1      42.846   5.181  10.907  0.00  0.00    +0.000 OA
ATOM     24  C   UNL     1      42.955   4.995  12.317  0.00  0.00    +0.000 C 
ATOM     25  C   UNL     1      44.163   5.744  12.867  0.00  0.00    +0.000 C 
ENDBRANCH  18  20
ENDBRANCH   1  14
TORSDOF 4
ENDMDL
MODEL 9
REMARK VINA RESULT:    -6.546      5.165      6.194
REMARK INTER + INTRA:          -8.817
REMARK INTER:                  -8.283
REMARK INTRA:                  -0.534
REMARK UNBOUND:                -0.741
REMARK  Name = 
REMARK  4 active torsions:
REMARK  status: ('A' for Active; 'I' for Inactive)
REMARK    1  A    between atoms: C_2  and  C_5
REMARK    2  A    between atoms: N_9  and  C_10
REMARK    3  A    between atoms: C_10  and  C_11
REMARK    4  A    between atoms: C_15  and  C_16
REMARK                            x       y       z     vdW  Elec       q    Type
REMARK                         _______ _______ _______ _____ _____    ______ ____
ROOT
ATOM      1  C   UNL     1      47.345   3.705  15.377  0.00  0.00    +0.000 C 
ENDROOT
BRANCH   1   6
ATOM      2  C   UNL     1      45.107   4.365  11.088  0.00  0.00    +0.000 A 
ATOM      3  C   UNL     1      45.139   3.362  12.021  0.00  0.00    +0.000 A 
ATOM      4  N   UNL     1      45.672   3.506  13.250  0.00  0.00    +0.000 NA
ATOM      5  C   UNL     1      46.192   4.703  13.565  0.00  0.00    +0.000 A 
ATOM      6  N   UNL     1      46.755   4.904  14.818  0.00  0.00    +0.000 N 
ATOM      7  N   UNL     1      46.212   5.739  12.720  0.00  0.00    +0.000 NA
ATOM      8  C   UNL     1      45.661   5.553  11.501  0.00  0.00    +0.000 A 
ATOM      9  H   UNL     1      47.373   5.702  14.750  0.00  0.00    +0.000 HD
BRANCH   2  11
ATOM     10  F   UNL     1      44.198   2.889   9.460  0.00  0.00    +0.000 F 
ATOM     11  C   UNL     1      44.524   4.182   9.737  0.00  0.00    +0.000 C 
ATOM     12  F   UNL     1      45.374   4.569   8.748  0.00  0.00    +0.000 F 
ATOM     13  F   UNL     1      43.384   4.900   9.553  0.00  0.00    +0.000 F 
ENDBRANCH   2  11
ENDBRANCH   1   6
BRANCH   1  14
ATOM     14  C   UNL     1      47.889   3.964  16.765  0.00  0.00    +0.000 A 
ATOM     15  C   UNL     1      48.995   3.247  17.240  0.00  0.00    +0.000 A 
ATOM     16  C   UNL     1      49.562   3.558  18.473  0.00  0.00    +0.000 A 
ATOM     17  C   UNL     1      49.039   4.598  19.242  0.00  0.00    +0.000 A 
ATOM     18  C   UNL     1      47.939   5.341  18.789  0.00  0.00    +0.000 A 
ATOM     19  C   UNL     1      47.364   5.001  17.553  0.00  0.00    +0.000 A 
BRANCH  18  20
ATOM     20  C   UNL     1      47.396   6.522  19.573  0.00  0.00    +0.000 C 
ATOM     21  C   UNL     1      47.754   7.860  18.905  0.00  0.00    +0.000 C 
ATOM     22  C   UNL     1      47.251   9.026  19.744  0.00  0.00    +0.000 C 
ATOM     23  O   UNL     1      47.758   8.946  21.075  0.00  0.00    +0.000 OA
ATOM     24  C   UNL     1      47.329   7.764  21.749  0.00  0.00    +0.000 C 
ATOM     25  C   UNL     1      47.848   6.520  21.039  0.00  0.00    +0.000 C 
ENDBRANCH  18  20
ENDBRANCH   1  14
TORSDOF 4
ENDMDL
