MODEL 1
REMARK VINA RESULT:    -7.270      0.000      0.000
REMARK INTER + INTRA:         -10.282
REMARK INTER:                  -9.607
REMARK INTRA:                  -0.675
REMARK UNBOUND:                -0.675
REMARK  Name = 
REMARK  7 active torsions:
REMARK  status: ('A' for Active; 'I' for Inactive)
REMARK    1  A    between atoms: C_1  and  C_2
REMARK    2  A    between atoms: C_2  and  C_3
REMARK    3  A    between atoms: C_2  and  O_10
REMARK    4  A    between atoms: C_3  and  C_4
REMARK    5  A    between atoms: O_10  and  C_11
REMARK    6  A    between atoms: CA_14  and  C_15
REMARK    7  A    between atoms: C_15  and  OXT_17
REMARK                            x       y       z     vdW  Elec       q    Type
REMARK                         _______ _______ _______ _____ _____    ______ ____
ROOT
ATOM      1  O   UNL     1      43.517   3.608  10.350  0.00  0.00    +0.000 OA
ENDROOT
BRANCH   1   2
ATOM      2  C   UNL     1      44.477   3.259   9.429  0.00  0.00    +0.000 A 
ATOM      3  C   UNL     1      45.027   4.271   8.643  0.00  0.00    +0.000 A 
ATOM      4  N   UNL     1      45.989   4.047   7.708  0.00  0.00    +0.000 NA
ATOM      5  CA  UNL     1      46.384   2.742   7.614  0.00  0.00    +0.000 A 
ATOM      6  C   UNL     1      45.844   1.733   8.396  0.00  0.00    +0.000 A 
ATOM      7  N   UNL     1      44.872   1.972   9.312  0.00  0.00    +0.000 NA
BRANCH   5   8
ATOM      8  C   UNL     1      47.433   2.429   6.620  0.00  0.00    +0.000 C 
ATOM      9  O   UNL     1      48.299   1.583   6.764  0.00  0.00    +0.000 OA
BRANCH   8  10
ATOM     10  OXT UNL     1      47.297   3.210   5.522  0.00  0.00    +0.000 OA
ATOM     11  HXT UNL     1      47.850   2.846   4.790  0.00  0.00    +0.000 HD
ENDBRANCH   8  10
ENDBRANCH   5   8
ENDBRANCH   1   2
BRANCH   1  13
ATOM     12  C   UNL     1      42.485   5.322  11.647  0.00  0.00    +0.000 C 
ATOM     13  C   UNL     1      43.823   4.772  11.148  0.00  0.00    +0.000 C 
BRANCH  13  14
ATOM     14  C   UNL     1      44.743   4.356  12.313  0.00  0.00    +0.000 C 
BRANCH  14  15
ATOM     15  C   UNL     1      45.933   5.260  12.532  0.00  0.00    +0.000 A 
ATOM     16  C   UNL     1      46.681   5.179  13.716  0.00  0.00    +0.000 A 
ATOM     17  C   UNL     1      47.778   6.019  13.921  0.00  0.00    +0.000 A 
ATOM     18  C   UNL     1      48.140   6.947  12.948  0.00  0.00    +0.000 A 
ATOM     19  C   UNL     1      47.407   7.034  11.766  0.00  0.00    +0.000 A 
ATOM     20  C   UNL     1      46.314   6.193  11.555  0.00  0.00    +0.000 A 
ENDBRANCH  14  15
ENDBRANCH  13  14
ENDBRANCH   1  13
TORSDOF 6
ENDMDL
MODEL 2
REMARK VINA RESULT:    -7.186      3.173      6.449
REMARK INTER + INTRA:         -10.172
REMARK INTER:                  -9.824
REMARK INTRA:                  -0.348
REMARK UNBOUND:                -0.675
REMARK  Name = 
REMARK  7 active torsions:
REMARK  status: ('A' for Active; 'I' for Inactive)
REMARK    1  A    between atoms: C_1  and  C_2
REMARK    2  A    between atoms: C_2  and  C_3
REMARK    3  A    between atoms: C_2  and  O_10
REMARK    4  A    between atoms: C_3  and  C_4
REMARK    5  A    between atoms: O_10  and  C_11
REMARK    6  A    between atoms: CA_14  and  C_15
REMARK    7  A    between atoms: C_15  and  OXT_17
REMARK                            x       y       z     vdW  Elec       q    Type
REMARK                         _______ _______ _______ _____ _____    ______ ____
ROOT
ATOM      1  O   UNL     1      45.516   5.286  10.839  0.00  0.00    +0.000 OA
ENDROOT
BRANCH   1   2
ATOM      2  C   UNL     1      46.011   5.080  12.106  0.00  0.00    +0.000 A 
ATOM      3  C   UNL     1      45.955   3.787  12.627  0.00  0.00    +0.000 A 
ATOM      4  N   UNL     1      46.423   3.462  13.863  0.00  0.00    +0.000 NA
ATOM      5  CA  UNL     1      46.968   4.512  14.547  0.00  0.00    +0.000 A 
ATOM      6  C   UNL     1      47.030   5.798  14.033  0.00  0.00    +0.000 A 
ATOM      7  N   UNL     1      46.543   6.107  12.805  0.00  0.00    +0.000 NA
BRANCH   5   8
ATOM      8  C   UNL     1      47.502   4.227  15.897  0.00  0.00    +0.000 C 
ATOM      9  O   UNL     1      48.615   4.537  16.285  0.00  0.00    +0.000 OA
BRANCH   8  10
ATOM     10  OXT UNL     1      46.579   3.578  16.647  0.00  0.00    +0.000 OA
ATOM     11  HXT UNL     1      46.612   2.613  16.443  0.00  0.00    +0.000 HD
ENDBRANCH   8  10
ENDBRANCH   5   8
ENDBRANCH   1   2
BRANCH   1  13
ATOM     12  C   UNL     1      43.199   4.736  10.938  0.00  0.00    +0.000 C 
ATOM     13  C   UNL     1      44.558   4.306  10.384  0.00  0.00    +0.000 C 
BRANCH  13  14
ATOM     14  C   UNL     1      44.566   4.271   8.843  0.00  0.00    +0.000 C 
BRANCH  14  15
ATOM     15  C   UNL     1      45.542   3.290   8.238  0.00  0.00    +0.000 A 
ATOM     16  C   UNL     1      45.511   1.937   8.605  0.00  0.00    +0.000 A 
ATOM     17  C   UNL     1      46.417   1.029   8.052  0.00  0.00    +0.000 A 
ATOM     18  C   UNL     1      47.363   1.463   7.125  0.00  0.00    +0.000 A 
ATOM     19  C   UNL     1      47.401   2.804   6.750  0.00  0.00    +0.000 A 
ATOM     20  C   UNL     1      46.494   3.712   7.298  0.00  0.00    +0.000 A 
ENDBRANCH  14  15
ENDBRANCH  13  14
ENDBRANCH   1  13
TORSDOF 6
ENDMDL
MODEL 3
REMARK VINA RESULT:    -6.762      3.162      6.139
REMARK INTER + INTRA:          -9.611
REMARK INTER:                  -9.096
REMARK INTRA:                  -0.515
REMARK UNBOUND:                -0.675
REMARK  Name = 
REMARK  7 active torsions:
REMARK  status: ('A' for Active; 'I' for Inactive)
REMARK    1  A    between atoms: C_1  and  C_2
REMARK    2  A    between atoms: C_2  and  C_3
REMARK    3  A    between atoms: C_2  and  O_10
REMARK    4  A    between atoms: C_3  and  C_4
REMARK    5  A    between atoms: O_10  and  C_11
REMARK    6  A    between atoms: CA_14  and  C_15
REMARK    7  A    between atoms: C_15  and  OXT_17
REMARK                            x       y       z     vdW  Elec       q    Type
REMARK                         _______ _______ _______ _____ _____    ______ ____
ROOT
ATOM      1  O   UNL     1      44.327   4.754  11.199  0.00  0.00    +0.000 OA
ENDROOT
BRANCH   1   2
ATOM      2  C   UNL     1      45.414   5.326  11.820  0.00  0.00    +0.000 A 
ATOM      3  C   UNL     1      45.713   4.919  13.120  0.00  0.00    +0.000 A 
ATOM      4  N   UNL     1      46.767   5.406  13.828  0.00  0.00    +0.000 NA
ATOM      5  CA  UNL     1      47.521   6.321  13.149  0.00  0.00    +0.000 A 
ATOM      6  C   UNL     1      47.232   6.726  11.855  0.00  0.00    +0.000 A 
ATOM      7  N   UNL     1      46.165   6.242  11.170  0.00  0.00    +0.000 NA
BRANCH   5   8
ATOM      8  C   UNL     1      48.688   6.887  13.859  0.00  0.00    +0.000 C 
ATOM      9  O   UNL     1      48.672   7.300  15.006  0.00  0.00    +0.000 OA
BRANCH   8  10
ATOM     10  OXT UNL     1      49.782   6.879  13.061  0.00  0.00    +0.000 OA
ATOM     11  HXT UNL     1      50.390   7.607  13.331  0.00  0.00    +0.000 HD
ENDBRANCH   8  10
ENDBRANCH   5   8
ENDBRANCH   1   2
BRANCH   1  13
ATOM     12  C   UNL     1      43.524   2.514  11.331  0.00  0.00    +0.000 C 
ATOM     13  C   UNL     1      44.549   3.432  10.663  0.00  0.00    +0.000 C 
BRANCH  13  14
ATOM     14  C   UNL     1      44.373   3.472   9.132  0.00  0.00    +0.000 C 
BRANCH  14  15
ATOM     15  C   UNL     1      45.495   2.833   8.350  0.00  0.00    +0.000 A 
ATOM     16  C   UNL     1      45.731   1.453   8.443  0.00  0.00    +0.000 A 
ATOM     17  C   UNL     1      46.773   0.861   7.725  0.00  0.00    +0.000 A 
ATOM     18  C   UNL     1      47.589   1.639   6.907  0.00  0.00    +0.000 A 
ATOM     19  C   UNL     1      47.361   3.010   6.804  0.00  0.00    +0.000 A 
ATOM     20  C   UNL     1      46.318   3.603   7.516  0.00  0.00    +0.000 A 
ENDBRANCH  14  15
ENDBRANCH  13  14
ENDBRANCH   1  13
TORSDOF 6
ENDMDL
MODEL 4
REMARK VINA RESULT:    -6.687      3.242      6.451
REMARK INTER + INTRA:          -9.512
REMARK INTER:                  -9.204
REMARK INTRA:                  -0.308
REMARK UNBOUND:                -0.675
REMARK  Name = 
REMARK  7 active torsions:
REMARK  status: ('A' for Active; 'I' for Inactive)
REMARK    1  A    between atoms: C_1  and  C_2
REMARK    2  A    between atoms: C_2  and  C_3
REMARK    3  A    between atoms: C_2  and  O_10
REMARK    4  A    between atoms: C_3  and  C_4
REMARK    5  A    between atoms: O_10  and  C_11
REMARK    6  A    between atoms: CA_14  and  C_15
REMARK    7  A    between atoms: C_15  and  OXT_17
REMARK                            x       y       z     vdW  Elec       q    Type
REMARK                         _______ _______ _______ _____ _____    ______ ____
ROOT
ATOM      1  O   UNL     1      45.460   5.520  10.668  0.00  0.00    +0.000 OA
ENDROOT
BRANCH   1   2
ATOM      2  C   UNL     1      46.083   5.431  11.892  0.00  0.00    +0.000 A 
ATOM      3  C   UNL     1      46.822   6.529  12.332  0.00  0.00    +0.000 A 
ATOM      4  N   UNL     1      47.470   6.559  13.527  0.00  0.00    +0.000 NA
ATOM      5  CA  UNL     1      47.323   5.422  14.271  0.00  0.00    +0.000 A 
ATOM      6  C   UNL     1      46.586   4.329  13.841  0.00  0.00    +0.000 A 
ATOM      7  N   UNL     1      45.960   4.311  12.638  0.00  0.00    +0.000 NA
BRANCH   5   8
ATOM      8  C   UNL     1      47.998   5.390  15.586  0.00  0.00    +0.000 C 
ATOM      9  O   UNL     1      49.138   5.772  15.793  0.00  0.00    +0.000 OA
BRANCH   8  10
ATOM     10  OXT UNL     1      47.174   4.883  16.533  0.00  0.00    +0.000 OA
ATOM     11  HXT UNL     1      46.642   4.149  16.145  0.00  0.00    +0.000 HD
ENDBRANCH   8  10
ENDBRANCH   5   8
ENDBRANCH   1   2
BRANCH   1  13
ATOM     12  C   UNL     1      43.223   4.742  10.934  0.00  0.00    +0.000 C 
ATOM     13  C   UNL     1      44.592   4.416  10.336  0.00  0.00    +0.000 C 
BRANCH  13  14
ATOM     14  C   UNL     1      44.529   4.268   8.802  0.00  0.00    +0.000 C 
BRANCH  14  15
ATOM     15  C   UNL     1      45.527   3.295   8.220  0.00  0.00    +0.000 A 
ATOM     16  C   UNL     1      46.498   3.731   7.306  0.00  0.00    +0.000 A 
ATOM     17  C   UNL     1      47.417   2.832   6.763  0.00  0.00    +0.000 A 
ATOM     18  C   UNL     1      47.378   1.487   7.126  0.00  0.00    +0.000 A 
ATOM     19  C   UNL     1      46.421   1.043   8.036  0.00  0.00    +0.000 A 
ATOM     20  C   UNL     1      45.504   1.940   8.584  0.00  0.00    +0.000 A 
ENDBRANCH  14  15
ENDBRANCH  13  14
ENDBRANCH   1  13
TORSDOF 6
ENDMDL
MODEL 5
REMARK VINA RESULT:    -6.479      4.115      7.081
REMARK INTER + INTRA:          -9.237
REMARK INTER:                  -8.639
REMARK INTRA:                  -0.597
REMARK UNBOUND:                -0.675
REMARK  Name = 
REMARK  7 active torsions:
REMARK  status: ('A' for Active; 'I' for Inactive)
REMARK    1  A    between atoms: C_1  and  C_2
REMARK    2  A    between atoms: C_2  and  C_3
REMARK    3  A    between atoms: C_2  and  O_10
REMARK    4  A    between atoms: C_3  and  C_4
REMARK    5  A    between atoms: O_10  and  C_11
REMARK    6  A    between atoms: CA_14  and  C_15
REMARK    7  A    between atoms: C_15  and  OXT_17
REMARK                            x       y       z     vdW  Elec       q    Type
REMARK                         _______ _______ _______ _____ _____    ______ ____
ROOT
ATOM      1  O   UNL     1      47.297   6.110  12.614  0.00  0.00    +0.000 OA
ENDROOT
BRANCH   1   2
ATOM      2  C   UNL     1      47.431   5.483  13.832  0.00  0.00    +0.000 A 
ATOM      3  C   UNL     1      46.848   4.226  13.987  0.00  0.00    +0.000 A 
ATOM      4  N   UNL     1      46.923   3.507  15.139  0.00  0.00    +0.000 NA
ATOM      5  CA  UNL     1      47.636   4.119  16.133  0.00  0.00    +0.000 A 
ATOM      6  C   UNL     1      48.222   5.366  15.983  0.00  0.00    +0.000 A 
ATOM      7  N   UNL     1      48.121   6.076  14.831  0.00  0.00    +0.000 NA
BRANCH   5   8
ATOM      8  C   UNL     1      47.763   3.389  17.413  0.00  0.00    +0.000 C 
ATOM      9  O   UNL     1      48.780   3.328  18.082  0.00  0.00    +0.000 OA
BRANCH   8  10
ATOM     10  OXT UNL     1      46.589   2.800  17.744  0.00  0.00    +0.000 OA
ATOM     11  HXT UNL     1      45.927   2.966  17.032  0.00  0.00    +0.000 HD
ENDBRANCH   8  10
ENDBRANCH   5   8
ENDBRANCH   1   2
BRANCH   1  13
ATOM     12  C   UNL     1      45.508   7.681  12.720  0.00  0.00    +0.000 C 
ATOM     13  C   UNL     1      45.938   6.318  12.175  0.00  0.00    +0.000 C 
BRANCH  13  14
ATOM     14  C   UNL     1      45.895   6.276  10.634  0.00  0.00    +0.000 C 
BRANCH  14  15
ATOM     15  C   UNL     1      45.421   4.966  10.051  0.00  0.00    +0.000 A 
ATOM     16  C   UNL     1      45.673   4.652   8.707  0.00  0.00    +0.000 A 
ATOM     17  C   UNL     1      45.230   3.443   8.165  0.00  0.00    +0.000 A 
ATOM     18  C   UNL     1      44.533   2.535   8.959  0.00  0.00    +0.000 A 
ATOM     19  C   UNL     1      44.281   2.834  10.296  0.00  0.00    +0.000 A 
ATOM     20  C   UNL     1      44.726   4.039  10.842  0.00  0.00    +0.000 A 
ENDBRANCH  14  15
ENDBRANCH  13  14
ENDBRANCH   1  13
TORSDOF 6
ENDMDL
MODEL 6
REMARK VINA RESULT:    -5.664      4.179      6.472
REMARK INTER + INTRA:          -8.160
REMARK INTER:                  -7.704
REMARK INTRA:                  -0.456
REMARK UNBOUND:                -0.675
REMARK  Name = 
REMARK  7 active torsions:
REMARK  status: ('A' for Active; 'I' for Inactive)
REMARK    1  A    between atoms: C_1  and  C_2
REMARK    2  A    between atoms: C_2  and  C_3
REMARK    3  A    between atoms: C_2  and  O_10
REMARK    4  A    between atoms: C_3  and  C_4
REMARK    5  A    between atoms: O_10  and  C_11
REMARK    6  A    between atoms: CA_14  and  C_15
REMARK    7  A    between atoms: C_15  and  OXT_17
REMARK                            x       y       z     vdW  Elec       q    Type
REMARK                         _______ _______ _______ _____ _____    ______ ____
ROOT
ATOM      1  O   UNL     1      47.807   4.456  14.630  0.00  0.00    +0.000 OA
ENDROOT
BRANCH   1   2
ATOM      2  C   UNL     1      46.698   4.372  13.820  0.00  0.00    +0.000 A 
ATOM      3  C   UNL     1      45.971   5.539  13.585  0.00  0.00    +0.000 A 
ATOM      4  N   UNL     1      44.865   5.580  12.794  0.00  0.00    +0.000 NA
ATOM      5  CA  UNL     1      44.535   4.378  12.234  0.00  0.00    +0.000 A 
ATOM      6  C   UNL     1      45.257   3.216  12.459  0.00  0.00    +0.000 A 
ATOM      7  N   UNL     1      46.347   3.191  13.266  0.00  0.00    +0.000 NA
BRANCH   5   8
ATOM      8  C   UNL     1      43.344   4.353  11.356  0.00  0.00    +0.000 C 
ATOM      9  O   UNL     1      42.914   5.313  10.739  0.00  0.00    +0.000 OA
BRANCH   8  10
ATOM     10  OXT UNL     1      42.800   3.113  11.326  0.00  0.00    +0.000 OA
ATOM     11  HXT UNL     1      43.124   2.595  12.101  0.00  0.00    +0.000 HD
ENDBRANCH   8  10
ENDBRANCH   5   8
ENDBRANCH   1   2
BRANCH   1  13
ATOM     12  C   UNL     1      47.794   3.061  16.563  0.00  0.00    +0.000 C 
ATOM     13  C   UNL     1      47.534   4.477  16.047  0.00  0.00    +0.000 C 
BRANCH  13  14
ATOM     14  C   UNL     1      48.457   5.512  16.722  0.00  0.00    +0.000 C 
BRANCH  14  15
ATOM     15  C   UNL     1      48.439   5.484  18.232  0.00  0.00    +0.000 A 
ATOM     16  C   UNL     1      47.332   5.974  18.941  0.00  0.00    +0.000 A 
ATOM     17  C   UNL     1      47.317   5.954  20.337  0.00  0.00    +0.000 A 
ATOM     18  C   UNL     1      48.405   5.443  21.041  0.00  0.00    +0.000 A 
ATOM     19  C   UNL     1      49.509   4.949  20.348  0.00  0.00    +0.000 A 
ATOM     20  C   UNL     1      49.525   4.964  18.953  0.00  0.00    +0.000 A 
ENDBRANCH  14  15
ENDBRANCH  13  14
ENDBRANCH   1  13
TORSDOF 6
ENDMDL
MODEL 7
REMARK VINA RESULT:    -5.563      3.035      5.437
REMARK INTER + INTRA:          -8.026
REMARK INTER:                  -7.578
REMARK INTRA:                  -0.448
REMARK UNBOUND:                -0.675
REMARK  Name = 
REMARK  7 active torsions:
REMARK  status: ('A' for Active; 'I' for Inactive)
REMARK    1  A    between atoms: C_1  and  C_2
REMARK    2  A    between atoms: C_2  and  C_3
REMARK    3  A    between atoms: C_2  and  O_10
REMARK    4  A    between atoms: C_3  and  C_4
REMARK    5  A    between atoms: O_10  and  C_11
REMARK    6  A    between atoms: CA_14  and  C_15
REMARK    7  A    between atoms: C_15  and  OXT_17
REMARK                            x       y       z     vdW  Elec       q    Type
REMARK                         _______ _______ _______ _____ _____    ______ ____
ROOT
ATOM      1  O   UNL     1      46.843   6.681  13.507  0.00  0.00    +0.000 OA
ENDROOT
BRANCH   1   2
ATOM      2  C   UNL     1      46.108   5.771  12.783  0.00  0.00    +0.000 A 
ATOM      3  C   UNL     1      45.648   4.630  13.441  0.00  0.00    +0.000 A 
ATOM      4  N   UNL     1      44.905   3.668  12.832  0.00  0.00    +0.000 NA
ATOM      5  CA  UNL     1      44.632   3.922  11.517  0.00  0.00    +0.000 A 
ATOM      6  C   UNL     1      45.082   5.056  10.859  0.00  0.00    +0.000 A 
ATOM      7  N   UNL     1      45.838   5.997  11.479  0.00  0.00    +0.000 NA
BRANCH   5   8
ATOM      8  C   UNL     1      43.822   2.918  10.794  0.00  0.00    +0.000 C 
ATOM      9  O   UNL     1      44.021   2.558   9.647  0.00  0.00    +0.000 OA
BRANCH   8  10
ATOM     10  OXT UNL     1      42.829   2.448  11.587  0.00  0.00    +0.000 OA
ATOM     11  HXT UNL     1      42.958   1.481  11.734  0.00  0.00    +0.000 HD
ENDBRANCH   8  10
ENDBRANCH   5   8
ENDBRANCH   1   2
BRANCH   1  13
ATOM     12  C   UNL     1      49.121   6.994  12.881  0.00  0.00    +0.000 C 
ATOM     13  C   UNL     1      48.183   6.263  13.843  0.00  0.00    +0.000 C 
BRANCH  13  14
ATOM     14  C   UNL     1      48.471   6.627  15.314  0.00  0.00    +0.000 C 
BRANCH  14  15
ATOM     15  C   UNL     1      48.528   5.448  16.256  0.00  0.00    +0.000 A 
ATOM     16  C   UNL     1      47.529   4.464  16.227  0.00  0.00    +0.000 A 
ATOM     17  C   UNL     1      47.578   3.376  17.101  0.00  0.00    +0.000 A 
ATOM     18  C   UNL     1      48.624   3.258  18.013  0.00  0.00    +0.000 A 
ATOM     19  C   UNL     1      49.625   4.228  18.049  0.00  0.00    +0.000 A 
ATOM     20  C   UNL     1      49.581   5.313  17.173  0.00  0.00    +0.000 A 
ENDBRANCH  14  15
ENDBRANCH  13  14
ENDBRANCH   1  13
TORSDOF 6
ENDMDL
MODEL 8
REMARK VINA RESULT:    -5.427      2.965      6.089
REMARK INTER + INTRA:          -7.847
REMARK INTER:                  -8.451
REMARK INTRA:                   0.604
REMARK UNBOUND:                -0.675
REMARK  Name = 
REMARK  7 active torsions:
REMARK  status: ('A' for Active; 'I' for Inactive)
REMARK    1  A    between atoms: C_1  and  C_2
REMARK    2  A    between atoms: C_2  and  C_3
REMARK    3  A    between atoms: C_2  and  O_10
REMARK    4  A    between atoms: C_3  and  C_4
REMARK    5  A    between atoms: O_10  and  C_11
REMARK    6  A    between atoms: CA_14  and  C_15
REMARK    7  A    between atoms: C_15  and  OXT_17
REMARK                            x       y       z     vdW  Elec       q    Type
REMARK                         _______ _______ _______ _____ _____    ______ ____
ROOT
ATOM      1  O   UNL     1      45.536   3.505  11.076  0.00  0.00    +0.000 OA
ENDROOT
BRANCH   1   2
ATOM      2  C   UNL     1      45.630   4.774  11.598  0.00  0.00    +0.000 A 
ATOM      3  C   UNL     1      45.415   5.852  10.739  0.00  0.00    +0.000 A 
ATOM      4  N   UNL     1      45.472   7.149  11.144  0.00  0.00    +0.000 NA
ATOM      5  CA  UNL     1      45.744   7.308  12.474  0.00  0.00    +0.000 A 
ATOM      6  C   UNL     1      45.954   6.241  13.333  0.00  0.00    +0.000 A 
ATOM      7  N   UNL     1      45.911   4.953  12.908  0.00  0.00    +0.000 NA
BRANCH   5   8
ATOM      8  C   UNL     1      45.814   8.695  12.982  0.00  0.00    +0.000 C 
ATOM      9  O   UNL     1      45.249   9.650  12.478  0.00  0.00    +0.000 OA
BRANCH   8  10
ATOM     10  OXT UNL     1      46.589   8.757  14.091  0.00  0.00    +0.000 OA
ATOM     11  HXT UNL     1      47.267   8.042  14.057  0.00  0.00    +0.000 HD
ENDBRANCH   8  10
ENDBRANCH   5   8
ENDBRANCH   1   2
BRANCH   1  13
ATOM     12  C   UNL     1      43.238   4.136  11.139  0.00  0.00    +0.000 C 
ATOM     13  C   UNL     1      44.202   2.953  11.035  0.00  0.00    +0.000 C 
BRANCH  13  14
ATOM     14  C   UNL     1      44.019   2.177   9.715  0.00  0.00    +0.000 C 
BRANCH  14  15
ATOM     15  C   UNL     1      45.120   2.384   8.703  0.00  0.00    +0.000 A 
ATOM     16  C   UNL     1      46.018   1.348   8.406  0.00  0.00    +0.000 A 
ATOM     17  C   UNL     1      47.041   1.540   7.474  0.00  0.00    +0.000 A 
ATOM     18  C   UNL     1      47.178   2.766   6.829  0.00  0.00    +0.000 A 
ATOM     19  C   UNL     1      46.289   3.802   7.112  0.00  0.00    +0.000 A 
ATOM     20  C   UNL     1      45.263   3.611   8.039  0.00  0.00    +0.000 A 
ENDBRANCH  14  15
ENDBRANCH  13  14
ENDBRANCH   1  13
TORSDOF 6
ENDMDL
MODEL 9
REMARK VINA RESULT:    -5.376      3.337      4.897
REMARK INTER + INTRA:          -7.779
REMARK INTER:                  -7.460
REMARK INTRA:                  -0.319
REMARK UNBOUND:                -0.675
REMARK  Name = 
REMARK  7 active torsions:
REMARK  status: ('A' for Active; 'I' for Inactive)
REMARK    1  A    between atoms: C_1  and  C_2
REMARK    2  A    between atoms: C_2  and  C_3
REMARK    3  A    between atoms: C_2  and  O_10
REMARK    4  A    between atoms: C_3  and  C_4
REMARK    5  A    between atoms: O_10  and  C_11
REMARK    6  A    between atoms: CA_14  and  C_15
REMARK    7  A    between atoms: C_15  and  OXT_17
REMARK                            x       y       z     vdW  Elec       q    Type
REMARK                         _______ _______ _______ _____ _____    ______ ____
ROOT
ATOM      1  O   UNL     1      45.851   5.088  14.165  0.00  0.00    +0.000 OA
ENDROOT
BRANCH   1   2
ATOM      2  C   UNL     1      45.554   4.704  12.878  0.00  0.00    +0.000 A 
ATOM      3  C   UNL     1      45.632   5.668  11.873  0.00  0.00    +0.000 A 
ATOM      4  N   UNL     1      45.372   5.403  10.565  0.00  0.00    +0.000 NA
ATOM      5  CA  UNL     1      45.040   4.101  10.314  0.00  0.00    +0.000 A 
ATOM      6  C   UNL     1      44.966   3.137  11.308  0.00  0.00    +0.000 A 
ATOM      7  N   UNL     1      45.212   3.424  12.611  0.00  0.00    +0.000 NA
BRANCH   5   8
ATOM      8  C   UNL     1      44.750   3.742   8.909  0.00  0.00    +0.000 C 
ATOM      9  O   UNL     1      45.151   4.358   7.936  0.00  0.00    +0.000 OA
BRANCH   8  10
ATOM     10  OXT UNL     1      43.982   2.628   8.851  0.00  0.00    +0.000 OA
ATOM     11  HXT UNL     1      43.416   2.663   8.044  0.00  0.00    +0.000 HD
ENDBRANCH   8  10
ENDBRANCH   5   8
ENDBRANCH   1   2
BRANCH   1  13
ATOM     12  C   UNL     1      48.013   6.034  14.498  0.00  0.00    +0.000 C 
ATOM     13  C   UNL     1      47.182   4.756  14.616  0.00  0.00    +0.000 C 
BRANCH  13  14
ATOM     14  C   UNL     1      47.109   4.250  16.071  0.00  0.00    +0.000 C 
BRANCH  14  15
ATOM     15  C   UNL     1      48.423   3.770  16.638  0.00  0.00    +0.000 A 
ATOM     16  C   UNL     1      48.849   2.449  16.432  0.00  0.00    +0.000 A 
ATOM     17  C   UNL     1      50.061   2.002  16.961  0.00  0.00    +0.000 A 
ATOM     18  C   UNL     1      50.863   2.869  17.701  0.00  0.00    +0.000 A 
ATOM     19  C   UNL     1      50.453   4.184  17.909  0.00  0.00    +0.000 A 
ATOM     20  C   UNL     1      49.244   4.635  17.377  0.00  0.00    +0.000 A 
ENDBRANCH  14  15
ENDBRANCH  13  14
ENDBRANCH   1  13
TORSDOF 6
ENDMDL
