MODEL 1
REMARK VINA RESULT:    -7.976      0.000      0.000
REMARK INTER + INTRA:         -10.913
REMARK INTER:                 -10.307
REMARK INTRA:                  -0.605
REMARK UNBOUND:                -0.605
REMARK  Name = 
REMARK  6 active torsions:
REMARK  status: ('A' for Active; 'I' for Inactive)
REMARK    1  A    between atoms: C_1  and  C_2
REMARK    2  A    between atoms: C_2  and  N_3
REMARK    3  A    between atoms: C_2  and  C_16
REMARK    4  A    between atoms: C_4  and  C_6
REMARK    5  A    between atoms: C_19  and  O_20
REMARK    6  A    between atoms: O_20  and  C_21
REMARK                            x       y       z     vdW  Elec       q    Type
REMARK                         _______ _______ _______ _____ _____    ______ ____
ROOT
ATOM      1  C   UNL     1      45.432   8.837  12.904  0.00  0.00    +0.000 C 
ATOM      2  C   UNL     1      46.466   7.727  12.666  0.00  0.00    +0.000 C 
ENDROOT
BRANCH   2   3
ATOM      3  C   UNL     1      45.845   6.625  11.806  0.00  0.00    +0.000 A 
ATOM      4  C   UNL     1      44.745   5.909  12.280  0.00  0.00    +0.000 A 
ATOM      5  C   UNL     1      44.201   4.893  11.500  0.00  0.00    +0.000 A 
ATOM      6  C   UNL     1      44.725   4.644  10.235  0.00  0.00    +0.000 A 
ATOM      7  C   UNL     1      45.845   5.371   9.853  0.00  0.00    +0.000 A 
ATOM      8  N   UNL     1      46.410   6.352  10.602  0.00  0.00    +0.000 NA
BRANCH   6   9
ATOM      9  O   UNL     1      44.242   3.700   9.359  0.00  0.00    +0.000 OA
BRANCH   9  10
ATOM     10  C   UNL     1      45.132   2.973   8.619  0.00  0.00    +0.000 A 
ATOM     11  C   UNL     1      45.491   1.659   8.846  0.00  0.00    +0.000 A 
ATOM     12  N   UNL     1      46.419   0.995   8.123  0.00  0.00    +0.000 NA
ATOM     13  C   UNL     1      46.958   1.681   7.104  0.00  0.00    +0.000 A 
ATOM     14  N   UNL     1      46.642   2.935   6.742  0.00  0.00    +0.000 NA
ATOM     15  C   UNL     1      45.717   3.550   7.513  0.00  0.00    +0.000 A 
ENDBRANCH   9  10
ENDBRANCH   6   9
ENDBRANCH   2   3
BRANCH   2  16
ATOM     16  N   UNL     1      46.970   7.160  13.915  0.00  0.00    +0.000 N 
ATOM     17  C   UNL     1      48.295   6.854  14.104  0.00  0.00    +0.000 C 
ATOM     18  O   UNL     1      49.157   7.081  13.262  0.00  0.00    +0.000 OA
ATOM     19  H   UNL     1      46.294   6.630  14.458  0.00  0.00    +0.000 HD
BRANCH  17  20
ATOM     20  C   UNL     1      48.648   6.319  15.421  0.00  0.00    +0.000 A 
ATOM     21  C   UNL     1      49.621   6.953  16.181  0.00  0.00    +0.000 A 
ATOM     22  S   UNL     1      49.881   6.223  17.700  0.00  0.00    +0.000 S 
ATOM     23  C   UNL     1      48.741   5.003  17.371  0.00  0.00    +0.000 A 
ATOM     24  N   UNL     1      48.497   4.011  18.269  0.00  0.00    +0.000 NA
ATOM     25  C   UNL     1      47.640   3.130  17.869  0.00  0.00    +0.000 A 
ATOM     26  N   UNL     1      46.997   3.159  16.658  0.00  0.00    +0.000 N 
ATOM     27  C   UNL     1      47.166   4.177  15.747  0.00  0.00    +0.000 A 
ATOM     28  O   UNL     1      46.502   4.239  14.718  0.00  0.00    +0.000 OA
ATOM     29  C   UNL     1      48.149   5.169  16.132  0.00  0.00    +0.000 A 
ATOM     30  H   UNL     1      46.321   2.450  16.413  0.00  0.00    +0.000 HD
ENDBRANCH  17  20
ENDBRANCH   2  16
TORSDOF 5
ENDMDL
MODEL 2
REMARK VINA RESULT:    -7.931      1.825      2.482
REMARK INTER + INTRA:         -10.855
REMARK INTER:                 -11.014
REMARK INTRA:                   0.159
REMARK UNBOUND:                -0.605
REMARK  Name = 
REMARK  6 active torsions:
REMARK  status: ('A' for Active; 'I' for Inactive)
REMARK    1  A    between atoms: C_1  and  C_2
REMARK    2  A    between atoms: C_2  and  N_3
REMARK    3  A    between atoms: C_2  and  C_16
REMARK    4  A    between atoms: C_4  and  C_6
REMARK    5  A    between atoms: C_19  and  O_20
REMARK    6  A    between atoms: O_20  and  C_21
REMARK                            x       y       z     vdW  Elec       q    Type
REMARK                         _______ _______ _______ _____ _____    ______ ____
ROOT
ATOM      1  C   UNL     1      43.346   4.385  13.578  0.00  0.00    +0.000 C 
ATOM      2  C   UNL     1      44.139   5.540  12.950  0.00  0.00    +0.000 C 
ENDROOT
BRANCH   2   3
ATOM      3  C   UNL     1      44.522   5.177  11.514  0.00  0.00    +0.000 A 
ATOM      4  C   UNL     1      45.597   5.818  10.897  0.00  0.00    +0.000 A 
ATOM      5  C   UNL     1      45.924   5.496   9.583  0.00  0.00    +0.000 A 
ATOM      6  C   UNL     1      45.211   4.500   8.923  0.00  0.00    +0.000 A 
ATOM      7  C   UNL     1      44.130   3.939   9.591  0.00  0.00    +0.000 A 
ATOM      8  N   UNL     1      43.775   4.249  10.864  0.00  0.00    +0.000 NA
BRANCH   6   9
ATOM      9  O   UNL     1      45.472   4.067   7.644  0.00  0.00    +0.000 OA
BRANCH   9  10
ATOM     10  C   UNL     1      46.232   2.944   7.474  0.00  0.00    +0.000 A 
ATOM     11  C   UNL     1      47.381   2.850   6.714  0.00  0.00    +0.000 A 
ATOM     12  N   UNL     1      48.070   1.704   6.526  0.00  0.00    +0.000 NA
ATOM     13  C   UNL     1      47.598   0.631   7.179  0.00  0.00    +0.000 A 
ATOM     14  N   UNL     1      46.535   0.612   7.999  0.00  0.00    +0.000 NA
ATOM     15  C   UNL     1      45.879   1.787   8.134  0.00  0.00    +0.000 A 
ENDBRANCH   9  10
ENDBRANCH   6   9
ENDBRANCH   2   3
BRANCH   2  16
ATOM     16  N   UNL     1      45.337   5.873  13.717  0.00  0.00    +0.000 N 
ATOM     17  C   UNL     1      46.271   4.931  14.071  0.00  0.00    +0.000 C 
ATOM     18  O   UNL     1      46.195   3.757  13.726  0.00  0.00    +0.000 OA
ATOM     19  H   UNL     1      45.260   6.690  14.316  0.00  0.00    +0.000 HD
BRANCH  17  20
ATOM     20  C   UNL     1      47.432   5.425  14.815  0.00  0.00    +0.000 A 
ATOM     21  C   UNL     1      48.223   6.425  14.266  0.00  0.00    +0.000 A 
ATOM     22  S   UNL     1      49.507   6.909  15.279  0.00  0.00    +0.000 S 
ATOM     23  C   UNL     1      49.080   5.762  16.462  0.00  0.00    +0.000 A 
ATOM     24  N   UNL     1      49.810   5.624  17.601  0.00  0.00    +0.000 NA
ATOM     25  C   UNL     1      49.398   4.686  18.387  0.00  0.00    +0.000 A 
ATOM     26  N   UNL     1      48.313   3.882  18.143  0.00  0.00    +0.000 N 
ATOM     27  C   UNL     1      47.510   4.027  17.035  0.00  0.00    +0.000 A 
ATOM     28  O   UNL     1      46.485   3.370  16.889  0.00  0.00    +0.000 OA
ATOM     29  C   UNL     1      47.956   5.041  16.100  0.00  0.00    +0.000 A 
ATOM     30  H   UNL     1      48.029   3.179  18.810  0.00  0.00    +0.000 HD
ENDBRANCH  17  20
ENDBRANCH   2  16
TORSDOF 5
ENDMDL
MODEL 3
REMARK VINA RESULT:    -7.480      3.299      7.750
REMARK INTER + INTRA:         -10.272
REMARK INTER:                  -9.394
REMARK INTRA:                  -0.878
REMARK UNBOUND:                -0.605
REMARK  Name = 
REMARK  6 active torsions:
REMARK  status: ('A' for Active; 'I' for Inactive)
REMARK    1  A    between atoms: C_1  and  C_2
REMARK    2  A    between atoms: C_2  and  N_3
REMARK    3  A    between atoms: C_2  and  C_16
REMARK    4  A    between atoms: C_4  and  C_6
REMARK    5  A    between atoms: C_19  and  O_20
REMARK    6  A    between atoms: O_20  and  C_21
REMARK                            x       y       z     vdW  Elec       q    Type
REMARK                         _______ _______ _______ _____ _____    ______ ____
ROOT
ATOM      1  C   UNL     1      49.317   8.009  12.617  0.00  0.00    +0.000 C 
ATOM      2  C   UNL     1      48.170   7.358  13.405  0.00  0.00    +0.000 C 
ENDROOT
BRANCH   2   3
ATOM      3  C   UNL     1      48.731   6.670  14.650  0.00  0.00    +0.000 A 
ATOM      4  C   UNL     1      49.920   7.126  15.222  0.00  0.00    +0.000 A 
ATOM      5  C   UNL     1      50.434   6.480  16.342  0.00  0.00    +0.000 A 
ATOM      6  C   UNL     1      49.726   5.424  16.909  0.00  0.00    +0.000 A 
ATOM      7  C   UNL     1      48.574   5.004  16.258  0.00  0.00    +0.000 A 
ATOM      8  N   UNL     1      48.061   5.601  15.151  0.00  0.00    +0.000 NA
BRANCH   6   9
ATOM      9  O   UNL     1      50.111   4.741  18.039  0.00  0.00    +0.000 OA
BRANCH   9  10
ATOM     10  C   UNL     1      50.815   3.578  17.897  0.00  0.00    +0.000 A 
ATOM     11  C   UNL     1      50.325   2.390  17.392  0.00  0.00    +0.000 A 
ATOM     12  N   UNL     1      51.042   1.247  17.323  0.00  0.00    +0.000 NA
ATOM     13  C   UNL     1      52.316   1.337  17.735  0.00  0.00    +0.000 A 
ATOM     14  N   UNL     1      52.925   2.448  18.178  0.00  0.00    +0.000 NA
ATOM     15  C   UNL     1      52.151   3.556  18.238  0.00  0.00    +0.000 A 
ENDBRANCH   9  10
ENDBRANCH   6   9
ENDBRANCH   2   3
BRANCH   2  16
ATOM     16  N   UNL     1      47.420   6.398  12.600  0.00  0.00    +0.000 N 
ATOM     17  C   UNL     1      46.345   6.763  11.827  0.00  0.00    +0.000 C 
ATOM     18  O   UNL     1      45.971   7.926  11.716  0.00  0.00    +0.000 OA
ATOM     19  H   UNL     1      47.440   5.438  12.933  0.00  0.00    +0.000 HD
BRANCH  17  20
ATOM     20  C   UNL     1      45.714   5.690  11.056  0.00  0.00    +0.000 A 
ATOM     21  C   UNL     1      45.819   5.687   9.672  0.00  0.00    +0.000 A 
ATOM     22  S   UNL     1      45.061   4.348   8.935  0.00  0.00    +0.000 S 
ATOM     23  C   UNL     1      44.522   3.757  10.437  0.00  0.00    +0.000 A 
ATOM     24  N   UNL     1      43.767   2.628  10.515  0.00  0.00    +0.000 NA
ATOM     25  C   UNL     1      43.391   2.321  11.713  0.00  0.00    +0.000 A 
ATOM     26  N   UNL     1      43.713   3.034  12.840  0.00  0.00    +0.000 N 
ATOM     27  C   UNL     1      44.525   4.145  12.814  0.00  0.00    +0.000 A 
ATOM     28  O   UNL     1      44.888   4.704  13.843  0.00  0.00    +0.000 OA
ATOM     29  C   UNL     1      44.940   4.555  11.487  0.00  0.00    +0.000 A 
ATOM     30  H   UNL     1      43.406   2.729  13.751  0.00  0.00    +0.000 HD
ENDBRANCH  17  20
ENDBRANCH   2  16
TORSDOF 5
ENDMDL
MODEL 4
REMARK VINA RESULT:    -7.341      3.165      8.462
REMARK INTER + INTRA:         -10.092
REMARK INTER:                  -9.176
REMARK INTRA:                  -0.916
REMARK UNBOUND:                -0.605
REMARK  Name = 
REMARK  6 active torsions:
REMARK  status: ('A' for Active; 'I' for Inactive)
REMARK    1  A    between atoms: C_1  and  C_2
REMARK    2  A    between atoms: C_2  and  N_3
REMARK    3  A    between atoms: C_2  and  C_16
REMARK    4  A    between atoms: C_4  and  C_6
REMARK    5  A    between atoms: C_19  and  O_20
REMARK    6  A    between atoms: O_20  and  C_21
REMARK                            x       y       z     vdW  Elec       q    Type
REMARK                         _______ _______ _______ _____ _____    ______ ____
ROOT
ATOM      1  C   UNL     1      49.585   7.615  12.729  0.00  0.00    +0.000 C 
ATOM      2  C   UNL     1      48.292   7.184  13.437  0.00  0.00    +0.000 C 
ENDROOT
BRANCH   2   3
ATOM      3  C   UNL     1      48.636   6.535  14.779  0.00  0.00    +0.000 A 
ATOM      4  C   UNL     1      49.702   7.024  15.536  0.00  0.00    +0.000 A 
ATOM      5  C   UNL     1      50.021   6.413  16.745  0.00  0.00    +0.000 A 
ATOM      6  C   UNL     1      49.238   5.359  17.209  0.00  0.00    +0.000 A 
ATOM      7  C   UNL     1      48.221   4.905  16.379  0.00  0.00    +0.000 A 
ATOM      8  N   UNL     1      47.901   5.468  15.185  0.00  0.00    +0.000 NA
BRANCH   6   9
ATOM      9  O   UNL     1      49.428   4.711  18.406  0.00  0.00    +0.000 OA
BRANCH   9  10
ATOM     10  C   UNL     1      48.725   5.131  19.501  0.00  0.00    +0.000 A 
ATOM     11  C   UNL     1      47.911   6.245  19.562  0.00  0.00    +0.000 A 
ATOM     12  N   UNL     1      47.279   6.656  20.683  0.00  0.00    +0.000 NA
ATOM     13  C   UNL     1      47.444   5.874  21.761  0.00  0.00    +0.000 A 
ATOM     14  N   UNL     1      48.152   4.734  21.807  0.00  0.00    +0.000 NA
ATOM     15  C   UNL     1      48.772   4.384  20.658  0.00  0.00    +0.000 A 
ENDBRANCH   9  10
ENDBRANCH   6   9
ENDBRANCH   2   3
BRANCH   2  16
ATOM     16  N   UNL     1      47.496   6.264  12.628  0.00  0.00    +0.000 N 
ATOM     17  C   UNL     1      46.443   6.684  11.854  0.00  0.00    +0.000 C 
ATOM     18  O   UNL     1      46.128   7.864  11.746  0.00  0.00    +0.000 OA
ATOM     19  H   UNL     1      47.468   5.303  12.960  0.00  0.00    +0.000 HD
BRANCH  17  20
ATOM     20  C   UNL     1      45.762   5.645  11.079  0.00  0.00    +0.000 A 
ATOM     21  C   UNL     1      45.834   5.666   9.693  0.00  0.00    +0.000 A 
ATOM     22  S   UNL     1      45.018   4.366   8.950  0.00  0.00    +0.000 S 
ATOM     23  C   UNL     1      44.495   3.762  10.453  0.00  0.00    +0.000 A 
ATOM     24  N   UNL     1      43.708   2.656  10.529  0.00  0.00    +0.000 NA
ATOM     25  C   UNL     1      43.351   2.338  11.729  0.00  0.00    +0.000 A 
ATOM     26  N   UNL     1      43.721   3.019  12.861  0.00  0.00    +0.000 N 
ATOM     27  C   UNL     1      44.566   4.105  12.836  0.00  0.00    +0.000 A 
ATOM     28  O   UNL     1      44.970   4.633  13.867  0.00  0.00    +0.000 OA
ATOM     29  C   UNL     1      44.962   4.527  11.507  0.00  0.00    +0.000 A 
ATOM     30  H   UNL     1      43.425   2.706  13.774  0.00  0.00    +0.000 HD
ENDBRANCH  17  20
ENDBRANCH   2  16
TORSDOF 5
ENDMDL
MODEL 5
REMARK VINA RESULT:    -7.327      2.860      4.122
REMARK INTER + INTRA:         -10.074
REMARK INTER:                  -9.187
REMARK INTRA:                  -0.887
REMARK UNBOUND:                -0.605
REMARK  Name = 
REMARK  6 active torsions:
REMARK  status: ('A' for Active; 'I' for Inactive)
REMARK    1  A    between atoms: C_1  and  C_2
REMARK    2  A    between atoms: C_2  and  N_3
REMARK    3  A    between atoms: C_2  and  C_16
REMARK    4  A    between atoms: C_4  and  C_6
REMARK    5  A    between atoms: C_19  and  O_20
REMARK    6  A    between atoms: O_20  and  C_21
REMARK                            x       y       z     vdW  Elec       q    Type
REMARK                         _______ _______ _______ _____ _____    ______ ____
ROOT
ATOM      1  C   UNL     1      46.129   4.760  14.099  0.00  0.00    +0.000 C 
ATOM      2  C   UNL     1      45.839   5.799  13.006  0.00  0.00    +0.000 C 
ENDROOT
BRANCH   2   3
ATOM      3  C   UNL     1      45.577   5.086  11.679  0.00  0.00    +0.000 A 
ATOM      4  C   UNL     1      45.822   5.746  10.474  0.00  0.00    +0.000 A 
ATOM      5  C   UNL     1      45.559   5.097   9.271  0.00  0.00    +0.000 A 
ATOM      6  C   UNL     1      45.110   3.779   9.287  0.00  0.00    +0.000 A 
ATOM      7  C   UNL     1      44.852   3.207  10.526  0.00  0.00    +0.000 A 
ATOM      8  N   UNL     1      45.077   3.824  11.714  0.00  0.00    +0.000 NA
BRANCH   6   9
ATOM      9  O   UNL     1      44.862   3.023   8.165  0.00  0.00    +0.000 OA
BRANCH   9  10
ATOM     10  C   UNL     1      45.919   2.605   7.408  0.00  0.00    +0.000 A 
ATOM     11  C   UNL     1      46.727   1.517   7.675  0.00  0.00    +0.000 A 
ATOM     12  N   UNL     1      47.799   1.172   6.928  0.00  0.00    +0.000 NA
ATOM     13  C   UNL     1      48.020   1.934   5.846  0.00  0.00    +0.000 A 
ATOM     14  N   UNL     1      47.267   2.971   5.444  0.00  0.00    +0.000 NA
ATOM     15  C   UNL     1      46.217   3.275   6.241  0.00  0.00    +0.000 A 
ENDBRANCH   9  10
ENDBRANCH   6   9
ENDBRANCH   2   3
BRANCH   2  16
ATOM     16  N   UNL     1      46.928   6.760  12.850  0.00  0.00    +0.000 N 
ATOM     17  C   UNL     1      46.742   8.114  12.977  0.00  0.00    +0.000 C 
ATOM     18  O   UNL     1      45.663   8.610  13.282  0.00  0.00    +0.000 OA
ATOM     19  H   UNL     1      47.697   6.456  12.258  0.00  0.00    +0.000 HD
BRANCH  17  20
ATOM     20  C   UNL     1      47.938   8.944  12.819  0.00  0.00    +0.000 A 
ATOM     21  C   UNL     1      47.854  10.143  12.124  0.00  0.00    +0.000 A 
ATOM     22  S   UNL     1      49.328  11.000  12.068  0.00  0.00    +0.000 S 
ATOM     23  C   UNL     1      50.139   9.773  12.924  0.00  0.00    +0.000 A 
ATOM     24  N   UNL     1      51.469   9.867  13.191  0.00  0.00    +0.000 NA
ATOM     25  C   UNL     1      51.961   8.844  13.809  0.00  0.00    +0.000 A 
ATOM     26  N   UNL     1      51.240   7.741  14.193  0.00  0.00    +0.000 N 
ATOM     27  C   UNL     1      49.882   7.633  13.998  0.00  0.00    +0.000 A 
ATOM     28  O   UNL     1      49.239   6.689  14.445  0.00  0.00    +0.000 OA
ATOM     29  C   UNL     1      49.289   8.738  13.272  0.00  0.00    +0.000 A 
ATOM     30  H   UNL     1      51.681   6.983  14.692  0.00  0.00    +0.000 HD
ENDBRANCH  17  20
ENDBRANCH   2  16
TORSDOF 5
ENDMDL
MODEL 6
REMARK VINA RESULT:    -7.233      1.584      2.285
REMARK INTER + INTRA:          -9.953
REMARK INTER:                  -9.402
REMARK INTRA:                  -0.551
REMARK UNBOUND:                -0.605
REMARK  Name = 
REMARK  6 active torsions:
REMARK  status: ('A' for Active; 'I' for Inactive)
REMARK    1  A    between atoms: C_1  and  C_2
REMARK    2  A    between atoms: C_2  and  N_3
REMARK    3  A    between atoms: C_2  and  C_16
REMARK    4  A    between atoms: C_4  and  C_6
REMARK    5  A    between atoms: C_19  and  O_20
REMARK    6  A    between atoms: O_20  and  C_21
REMARK                            x       y       z     vdW  Elec       q    Type
REMARK                         _______ _______ _______ _____ _____    ______ ____
ROOT
ATOM      1  C   UNL     1      44.942   7.887  12.785  0.00  0.00    +0.000 C 
ATOM      2  C   UNL     1      46.084   6.871  12.636  0.00  0.00    +0.000 C 
ENDROOT
BRANCH   2   3
ATOM      3  C   UNL     1      45.726   5.855  11.550  0.00  0.00    +0.000 A 
ATOM      4  C   UNL     1      46.055   6.114  10.218  0.00  0.00    +0.000 A 
ATOM      5  C   UNL     1      45.705   5.193   9.235  0.00  0.00    +0.000 A 
ATOM      6  C   UNL     1      45.082   4.003   9.599  0.00  0.00    +0.000 A 
ATOM      7  C   UNL     1      44.752   3.839  10.938  0.00  0.00    +0.000 A 
ATOM      8  N   UNL     1      45.062   4.729  11.916  0.00  0.00    +0.000 NA
BRANCH   6   9
ATOM      9  O   UNL     1      44.733   3.002   8.723  0.00  0.00    +0.000 OA
BRANCH   9  10
ATOM     10  C   UNL     1      45.682   2.515   7.869  0.00  0.00    +0.000 A 
ATOM     11  C   UNL     1      46.403   1.350   8.037  0.00  0.00    +0.000 A 
ATOM     12  N   UNL     1      47.374   0.935   7.194  0.00  0.00    +0.000 NA
ATOM     13  C   UNL     1      47.577   1.711   6.119  0.00  0.00    +0.000 A 
ATOM     14  N   UNL     1      46.895   2.825   5.810  0.00  0.00    +0.000 NA
ATOM     15  C   UNL     1      45.946   3.196   6.700  0.00  0.00    +0.000 A 
ENDBRANCH   9  10
ENDBRANCH   6   9
ENDBRANCH   2   3
BRANCH   2  16
ATOM     16  N   UNL     1      46.379   6.179  13.888  0.00  0.00    +0.000 N 
ATOM     17  C   UNL     1      47.640   5.741  14.210  0.00  0.00    +0.000 C 
ATOM     18  O   UNL     1      48.617   5.945  13.496  0.00  0.00    +0.000 OA
ATOM     19  H   UNL     1      45.599   5.677  14.304  0.00  0.00    +0.000 HD
BRANCH  17  20
ATOM     20  C   UNL     1      47.780   5.090  15.514  0.00  0.00    +0.000 A 
ATOM     21  C   UNL     1      47.220   3.837  15.718  0.00  0.00    +0.000 A 
ATOM     22  S   UNL     1      47.509   3.209  17.278  0.00  0.00    +0.000 S 
ATOM     23  C   UNL     1      48.346   4.614  17.749  0.00  0.00    +0.000 A 
ATOM     24  N   UNL     1      48.842   4.745  19.009  0.00  0.00    +0.000 NA
ATOM     25  C   UNL     1      49.414   5.880  19.240  0.00  0.00    +0.000 A 
ATOM     26  N   UNL     1      49.546   6.891  18.321  0.00  0.00    +0.000 N 
ATOM     27  C   UNL     1      49.115   6.776  17.019  0.00  0.00    +0.000 A 
ATOM     28  O   UNL     1      49.338   7.648  16.186  0.00  0.00    +0.000 OA
ATOM     29  C   UNL     1      48.428   5.535  16.721  0.00  0.00    +0.000 A 
ATOM     30  H   UNL     1      50.024   7.747  18.559  0.00  0.00    +0.000 HD
ENDBRANCH  17  20
ENDBRANCH   2  16
TORSDOF 5
ENDMDL
MODEL 7
REMARK VINA RESULT:    -7.171      4.062      9.310
REMARK INTER + INTRA:          -9.872
REMARK INTER:                  -8.780
REMARK INTRA:                  -1.092
REMARK UNBOUND:                -0.605
REMARK  Name = 
REMARK  6 active torsions:
REMARK  status: ('A' for Active; 'I' for Inactive)
REMARK    1  A    between atoms: C_1  and  C_2
REMARK    2  A    between atoms: C_2  and  N_3
REMARK    3  A    between atoms: C_2  and  C_16
REMARK    4  A    between atoms: C_4  and  C_6
REMARK    5  A    between atoms: C_19  and  O_20
REMARK    6  A    between atoms: O_20  and  C_21
REMARK                            x       y       z     vdW  Elec       q    Type
REMARK                         _______ _______ _______ _____ _____    ______ ____
ROOT
ATOM      1  C   UNL     1      47.708   3.081  16.729  0.00  0.00    +0.000 C 
ATOM      2  C   UNL     1      48.061   4.469  16.173  0.00  0.00    +0.000 C 
ENDROOT
BRANCH   2   3
ATOM      3  C   UNL     1      48.163   5.470  17.324  0.00  0.00    +0.000 A 
ATOM      4  C   UNL     1      47.271   5.394  18.395  0.00  0.00    +0.000 A 
ATOM      5  C   UNL     1      47.358   6.324  19.427  0.00  0.00    +0.000 A 
ATOM      6  C   UNL     1      48.368   7.281  19.404  0.00  0.00    +0.000 A 
ATOM      7  C   UNL     1      49.190   7.317  18.285  0.00  0.00    +0.000 A 
ATOM      8  N   UNL     1      49.114   6.437  17.254  0.00  0.00    +0.000 NA
BRANCH   6   9
ATOM      9  O   UNL     1      48.580   8.218  20.388  0.00  0.00    +0.000 OA
BRANCH   9  10
ATOM     10  C   UNL     1      47.564   9.073  20.712  0.00  0.00    +0.000 A 
ATOM     11  C   UNL     1      46.919   9.140  21.931  0.00  0.00    +0.000 A 
ATOM     12  N   UNL     1      45.879   9.963  22.190  0.00  0.00    +0.000 NA
ATOM     13  C   UNL     1      45.521  10.778  21.186  0.00  0.00    +0.000 A 
ATOM     14  N   UNL     1      46.114  10.854  19.983  0.00  0.00    +0.000 NA
ATOM     15  C   UNL     1      47.139   9.996  19.780  0.00  0.00    +0.000 A 
ENDBRANCH   9  10
ENDBRANCH   6   9
ENDBRANCH   2   3
BRANCH   2  16
ATOM     16  N   UNL     1      47.087   4.936  15.190  0.00  0.00    +0.000 N 
ATOM     17  C   UNL     1      47.449   5.645  14.071  0.00  0.00    +0.000 C 
ATOM     18  O   UNL     1      48.618   5.889  13.789  0.00  0.00    +0.000 OA
ATOM     19  H   UNL     1      46.147   5.090  15.545  0.00  0.00    +0.000 HD
BRANCH  17  20
ATOM     20  C   UNL     1      46.360   6.018  13.167  0.00  0.00    +0.000 A 
ATOM     21  C   UNL     1      46.150   7.356  12.862  0.00  0.00    +0.000 A 
ATOM     22  S   UNL     1      44.867   7.611  11.767  0.00  0.00    +0.000 S 
ATOM     23  C   UNL     1      44.515   5.947  11.707  0.00  0.00    +0.000 A 
ATOM     24  N   UNL     1      43.480   5.477  10.959  0.00  0.00    +0.000 NA
ATOM     25  C   UNL     1      43.302   4.200  11.042  0.00  0.00    +0.000 A 
ATOM     26  N   UNL     1      44.072   3.350  11.795  0.00  0.00    +0.000 N 
ATOM     27  C   UNL     1      45.165   3.774  12.516  0.00  0.00    +0.000 A 
ATOM     28  O   UNL     1      45.903   2.984  13.094  0.00  0.00    +0.000 OA
ATOM     29  C   UNL     1      45.383   5.206  12.488  0.00  0.00    +0.000 A 
ATOM     30  H   UNL     1      43.893   2.356  11.800  0.00  0.00    +0.000 HD
ENDBRANCH  17  20
ENDBRANCH   2  16
TORSDOF 5
ENDMDL
MODEL 8
REMARK VINA RESULT:    -6.980      2.703      3.564
REMARK INTER + INTRA:          -9.626
REMARK INTER:                  -8.670
REMARK INTRA:                  -0.956
REMARK UNBOUND:                -0.605
REMARK  Name = 
REMARK  6 active torsions:
REMARK  status: ('A' for Active; 'I' for Inactive)
REMARK    1  A    between atoms: C_1  and  C_2
REMARK    2  A    between atoms: C_2  and  N_3
REMARK    3  A    between atoms: C_2  and  C_16
REMARK    4  A    between atoms: C_4  and  C_6
REMARK    5  A    between atoms: C_19  and  O_20
REMARK    6  A    between atoms: O_20  and  C_21
REMARK                            x       y       z     vdW  Elec       q    Type
REMARK                         _______ _______ _______ _____ _____    ______ ____
ROOT
ATOM      1  C   UNL     1      49.056   8.340  14.089  0.00  0.00    +0.000 C 
ATOM      2  C   UNL     1      48.767   6.883  14.479  0.00  0.00    +0.000 C 
ENDROOT
BRANCH   2   3
ATOM      3  C   UNL     1      47.601   6.352  13.644  0.00  0.00    +0.000 A 
ATOM      4  C   UNL     1      46.836   7.232  12.878  0.00  0.00    +0.000 A 
ATOM      5  C   UNL     1      45.763   6.743  12.139  0.00  0.00    +0.000 A 
ATOM      6  C   UNL     1      45.503   5.375  12.130  0.00  0.00    +0.000 A 
ATOM      7  C   UNL     1      46.284   4.571  12.950  0.00  0.00    +0.000 A 
ATOM      8  N   UNL     1      47.322   5.025  13.699  0.00  0.00    +0.000 NA
BRANCH   6   9
ATOM      9  O   UNL     1      44.503   4.773  11.403  0.00  0.00    +0.000 OA
BRANCH   9  10
ATOM     10  C   UNL     1      44.831   4.118  10.250  0.00  0.00    +0.000 A 
ATOM     11  C   UNL     1      44.624   2.777   9.993  0.00  0.00    +0.000 A 
ATOM     12  N   UNL     1      45.017   2.157   8.858  0.00  0.00    +0.000 NA
ATOM     13  C   UNL     1      45.594   2.945   7.938  0.00  0.00    +0.000 A 
ATOM     14  N   UNL     1      45.787   4.269   8.043  0.00  0.00    +0.000 NA
ATOM     15  C   UNL     1      45.385   4.829   9.207  0.00  0.00    +0.000 A 
ENDBRANCH   9  10
ENDBRANCH   6   9
ENDBRANCH   2   3
BRANCH   2  16
ATOM     16  N   UNL     1      48.468   6.739  15.902  0.00  0.00    +0.000 N 
ATOM     17  C   UNL     1      49.344   6.156  16.785  0.00  0.00    +0.000 C 
ATOM     18  O   UNL     1      50.457   5.764  16.454  0.00  0.00    +0.000 OA
ATOM     19  H   UNL     1      47.480   6.694  16.138  0.00  0.00    +0.000 HD
BRANCH  17  20
ATOM     20  C   UNL     1      48.911   6.110  18.183  0.00  0.00    +0.000 A 
ATOM     21  C   UNL     1      49.015   4.923  18.895  0.00  0.00    +0.000 A 
ATOM     22  S   UNL     1      48.503   5.056  20.517  0.00  0.00    +0.000 S 
ATOM     23  C   UNL     1      48.074   6.690  20.306  0.00  0.00    +0.000 A 
ATOM     24  N   UNL     1      47.527   7.407  21.323  0.00  0.00    +0.000 NA
ATOM     25  C   UNL     1      47.210   8.620  21.009  0.00  0.00    +0.000 A 
ATOM     26  N   UNL     1      47.402   9.183  19.772  0.00  0.00    +0.000 N 
ATOM     27  C   UNL     1      48.008   8.513  18.733  0.00  0.00    +0.000 A 
ATOM     28  O   UNL     1      48.267   9.068  17.671  0.00  0.00    +0.000 OA
ATOM     29  C   UNL     1      48.346   7.134  19.024  0.00  0.00    +0.000 A 
ATOM     30  H   UNL     1      47.152  10.145  19.596  0.00  0.00    +0.000 HD
ENDBRANCH  17  20
ENDBRANCH   2  16
TORSDOF 5
ENDMDL
MODEL 9
REMARK VINA RESULT:    -6.939      2.514      3.385
REMARK INTER + INTRA:          -9.572
REMARK INTER:                  -8.814
REMARK INTRA:                  -0.758
REMARK UNBOUND:                -0.605
REMARK  Name = 
REMARK  6 active torsions:
REMARK  status: ('A' for Active; 'I' for Inactive)
REMARK    1  A    between atoms: C_1  and  C_2
REMARK    2  A    between atoms: C_2  and  N_3
REMARK    3  A    between atoms: C_2  and  C_16
REMARK    4  A    between atoms: C_4  and  C_6
REMARK    5  A    between atoms: C_19  and  O_20
REMARK    6  A    between atoms: O_20  and  C_21
REMARK                            x       y       z     vdW  Elec       q    Type
REMARK                         _______ _______ _______ _____ _____    ______ ____
ROOT
ATOM      1  C   UNL     1      49.411   8.194  13.894  0.00  0.00    +0.000 C 
ATOM      2  C   UNL     1      48.873   6.897  14.518  0.00  0.00    +0.000 C 
ENDROOT
BRANCH   2   3
ATOM      3  C   UNL     1      47.686   6.390  13.698  0.00  0.00    +0.000 A 
ATOM      4  C   UNL     1      46.941   7.282  12.926  0.00  0.00    +0.000 A 
ATOM      5  C   UNL     1      45.848   6.815  12.201  0.00  0.00    +0.000 A 
ATOM      6  C   UNL     1      45.549   5.455  12.212  0.00  0.00    +0.000 A 
ATOM      7  C   UNL     1      46.313   4.639  13.037  0.00  0.00    +0.000 A 
ATOM      8  N   UNL     1      47.370   5.072  13.772  0.00  0.00    +0.000 NA
BRANCH   6   9
ATOM      9  O   UNL     1      44.527   4.873  11.501  0.00  0.00    +0.000 OA
BRANCH   9  10
ATOM     10  C   UNL     1      44.812   4.289  10.298  0.00  0.00    +0.000 A 
ATOM     11  C   UNL     1      45.419   4.905   9.222  0.00  0.00    +0.000 A 
ATOM     12  N   UNL     1      45.630   4.305   8.030  0.00  0.00    +0.000 NA
ATOM     13  C   UNL     1      45.256   3.019   7.955  0.00  0.00    +0.000 A 
ATOM     14  N   UNL     1      44.721   2.294   8.950  0.00  0.00    +0.000 NA
ATOM     15  C   UNL     1      44.521   2.954  10.113  0.00  0.00    +0.000 A 
ENDBRANCH   9  10
ENDBRANCH   6   9
ENDBRANCH   2   3
BRANCH   2  16
ATOM     16  N   UNL     1      48.477   7.075  15.913  0.00  0.00    +0.000 N 
ATOM     17  C   UNL     1      49.305   6.759  16.961  0.00  0.00    +0.000 C 
ATOM     18  O   UNL     1      50.452   6.356  16.803  0.00  0.00    +0.000 OA
ATOM     19  H   UNL     1      47.477   7.038  16.091  0.00  0.00    +0.000 HD
BRANCH  17  20
ATOM     20  C   UNL     1      48.773   7.021  18.301  0.00  0.00    +0.000 A 
ATOM     21  C   UNL     1      48.387   8.309  18.645  0.00  0.00    +0.000 A 
ATOM     22  S   UNL     1      47.757   8.430  20.226  0.00  0.00    +0.000 S 
ATOM     23  C   UNL     1      48.029   6.776  20.520  0.00  0.00    +0.000 A 
ATOM     24  N   UNL     1      47.733   6.221  21.726  0.00  0.00    +0.000 NA
ATOM     25  C   UNL     1      48.033   4.967  21.823  0.00  0.00    +0.000 A 
ATOM     26  N   UNL     1      48.590   4.217  20.818  0.00  0.00    +0.000 N 
ATOM     27  C   UNL     1      48.847   4.722  19.564  0.00  0.00    +0.000 A 
ATOM     28  O   UNL     1      49.244   4.008  18.650  0.00  0.00    +0.000 OA
ATOM     29  C   UNL     1      48.566   6.136  19.417  0.00  0.00    +0.000 A 
ATOM     30  H   UNL     1      48.780   3.234  20.951  0.00  0.00    +0.000 HD
ENDBRANCH  17  20
ENDBRANCH   2  16
TORSDOF 5
ENDMDL
