MODEL 1
REMARK VINA RESULT:    -8.860      0.000      0.000
REMARK INTER + INTRA:         -13.635
REMARK INTER:                 -12.486
REMARK INTRA:                  -1.149
REMARK UNBOUND:                -1.149
REMARK  Name = 
REMARK  8 active torsions:
REMARK  status: ('A' for Active; 'I' for Inactive)
REMARK    1  A    between atoms: C_1  and  C_2
REMARK    2  A    between atoms: C_2  and  O_3
REMARK    3  A    between atoms: O_3  and  C_4
REMARK    4  A    between atoms: C_6  and  C_7
REMARK    5  A    between atoms: C_7  and  C_8
REMARK    6  A    between atoms: C_8  and  N_9
REMARK    7  A    between atoms: C_13  and  C_14
REMARK    8  A    between atoms: C_20  and  C_21
REMARK                            x       y       z     vdW  Elec       q    Type
REMARK                         _______ _______ _______ _____ _____    ______ ____
ROOT
ATOM      1  C   UNL     1      46.737   4.659  13.993  0.00  0.00    +0.000 A 
ATOM      2  C   UNL     1      45.433   4.594  13.502  0.00  0.00    +0.000 A 
ATOM      3  C   UNL     1      44.985   5.527  12.562  0.00  0.00    +0.000 A 
ATOM      4  C   UNL     1      45.865   6.529  12.119  0.00  0.00    +0.000 A 
ATOM      5  C   UNL     1      47.180   6.639  12.610  0.00  0.00    +0.000 A 
ATOM      6  C   UNL     1      47.594   5.674  13.544  0.00  0.00    +0.000 A 
ENDROOT
BRANCH   5   7
ATOM      7  C   UNL     1      48.071   7.744  12.175  0.00  0.00    +0.000 A 
ATOM      8  C   UNL     1      47.617   9.074  12.079  0.00  0.00    +0.000 A 
ATOM      9  C   UNL     1      48.467  10.113  11.681  0.00  0.00    +0.000 A 
ATOM     10  C   UNL     1      49.800   9.848  11.378  0.00  0.00    +0.000 A 
ATOM     11  C   UNL     1      50.269   8.542  11.458  0.00  0.00    +0.000 A 
ATOM     12 CL   UNL     1      51.917   8.202  11.094  0.00  0.00    +0.000 Cl
ATOM     13  C   UNL     1      49.417   7.503  11.837  0.00  0.00    +0.000 A 
ENDBRANCH   5   7
BRANCH   1  14
ATOM     14  O   UNL     1      47.287   3.812  14.919  0.00  0.00    +0.000 OA
BRANCH  14  16
ATOM     15  C   UNL     1      47.577   3.048  17.164  0.00  0.00    +0.000 C 
ATOM     16  C   UNL     1      47.245   4.236  16.281  0.00  0.00    +0.000 C 
ENDBRANCH  14  16
ENDBRANCH   1  14
BRANCH   3  17
ATOM     17  C   UNL     1      43.545   5.526  12.101  0.00  0.00    +0.000 C 
BRANCH  17  18
ATOM     18  C   UNL     1      43.456   5.079  10.639  0.00  0.00    +0.000 C 
BRANCH  18  19
ATOM     19  N   UNL     1      43.688   3.637  10.504  0.00  0.00    +0.000 N 
ATOM     20  C   UNL     1      44.638   3.339   9.506  0.00  0.00    +0.000 A 
ATOM     21  C   UNL     1      44.960   2.009   9.257  0.00  0.00    +0.000 A 
ATOM     22  C   UNL     1      45.903   1.704   8.269  0.00  0.00    +0.000 A 
ATOM     23  C   UNL     1      46.509   2.732   7.547  0.00  0.00    +0.000 A 
ATOM     24  C   UNL     1      46.143   4.025   7.874  0.00  0.00    +0.000 A 
ATOM     25  N   UNL     1      45.234   4.340   8.827  0.00  0.00    +0.000 NA
ATOM     26  H   UNL     1      42.836   3.122  10.301  0.00  0.00    +0.000 HD
BRANCH  23  27
ATOM     27  C   UNL     1      47.492   2.407   6.485  0.00  0.00    +0.000 C 
ATOM     28  N   UNL     1      47.420   3.067   5.289  0.00  0.00    +0.000 N 
ATOM     29  O   UNL     1      48.353   1.553   6.662  0.00  0.00    +0.000 OA
ATOM     30  H   UNL     1      46.755   3.781   5.038  0.00  0.00    +0.000 HD
ATOM     31  H   UNL     1      48.105   2.808   4.590  0.00  0.00    +0.000 HD
ENDBRANCH  23  27
ENDBRANCH  18  19
ENDBRANCH  17  18
ENDBRANCH   3  17
TORSDOF 7
ENDMDL
MODEL 2
REMARK VINA RESULT:    -8.177      1.956      4.285
REMARK INTER + INTRA:         -12.673
REMARK INTER:                 -11.533
REMARK INTRA:                  -1.139
REMARK UNBOUND:                -1.149
REMARK  Name = 
REMARK  8 active torsions:
REMARK  status: ('A' for Active; 'I' for Inactive)
REMARK    1  A    between atoms: C_1  and  C_2
REMARK    2  A    between atoms: C_2  and  O_3
REMARK    3  A    between atoms: O_3  and  C_4
REMARK    4  A    between atoms: C_6  and  C_7
REMARK    5  A    between atoms: C_7  and  C_8
REMARK    6  A    between atoms: C_8  and  N_9
REMARK    7  A    between atoms: C_13  and  C_14
REMARK    8  A    between atoms: C_20  and  C_21
REMARK                            x       y       z     vdW  Elec       q    Type
REMARK                         _______ _______ _______ _____ _____    ______ ____
ROOT
ATOM      1  C   UNL     1      47.217   6.617  12.116  0.00  0.00    +0.000 A 
ATOM      2  C   UNL     1      45.890   6.325  11.802  0.00  0.00    +0.000 A 
ATOM      3  C   UNL     1      45.119   5.537  12.663  0.00  0.00    +0.000 A 
ATOM      4  C   UNL     1      45.697   5.046  13.845  0.00  0.00    +0.000 A 
ATOM      5  C   UNL     1      47.040   5.302  14.182  0.00  0.00    +0.000 A 
ATOM      6  C   UNL     1      47.777   6.107  13.296  0.00  0.00    +0.000 A 
ENDROOT
BRANCH   5   7
ATOM      7  C   UNL     1      47.649   4.719  15.405  0.00  0.00    +0.000 A 
ATOM      8  C   UNL     1      47.495   3.360  15.738  0.00  0.00    +0.000 A 
ATOM      9  C   UNL     1      48.083   2.815  16.886  0.00  0.00    +0.000 A 
ATOM     10  C   UNL     1      48.851   3.617  17.726  0.00  0.00    +0.000 A 
ATOM     11  C   UNL     1      49.011   4.963  17.421  0.00  0.00    +0.000 A 
ATOM     12 CL   UNL     1      49.965   5.965  18.446  0.00  0.00    +0.000 Cl
ATOM     13  C   UNL     1      48.409   5.512  16.286  0.00  0.00    +0.000 A 
ENDBRANCH   5   7
BRANCH   1  14
ATOM     14  O   UNL     1      48.073   7.366  11.352  0.00  0.00    +0.000 OA
BRANCH  14  16
ATOM     15  C   UNL     1      50.430   7.759  11.368  0.00  0.00    +0.000 C 
ATOM     16  C   UNL     1      49.106   8.065  12.046  0.00  0.00    +0.000 C 
ENDBRANCH  14  16
ENDBRANCH   1  14
BRANCH   3  17
ATOM     17  C   UNL     1      43.712   5.130  12.283  0.00  0.00    +0.000 C 
BRANCH  17  18
ATOM     18  C   UNL     1      43.640   4.803  10.788  0.00  0.00    +0.000 C 
BRANCH  18  19
ATOM     19  N   UNL     1      43.850   3.372  10.542  0.00  0.00    +0.000 N 
ATOM     20  C   UNL     1      44.775   3.138   9.505  0.00  0.00    +0.000 A 
ATOM     21  C   UNL     1      45.074   1.826   9.151  0.00  0.00    +0.000 A 
ATOM     22  C   UNL     1      45.993   1.584   8.124  0.00  0.00    +0.000 A 
ATOM     23  C   UNL     1      46.598   2.656   7.467  0.00  0.00    +0.000 A 
ATOM     24  C   UNL     1      46.256   3.925   7.896  0.00  0.00    +0.000 A 
ATOM     25  N   UNL     1      45.371   4.180   8.889  0.00  0.00    +0.000 NA
ATOM     26  H   UNL     1      42.987   2.884  10.320  0.00  0.00    +0.000 HD
BRANCH  23  27
ATOM     27  C   UNL     1      47.554   2.399   6.364  0.00  0.00    +0.000 C 
ATOM     28  N   UNL     1      47.400   3.071   5.181  0.00  0.00    +0.000 N 
ATOM     29  O   UNL     1      48.467   1.592   6.494  0.00  0.00    +0.000 OA
ATOM     30  H   UNL     1      46.688   3.749   4.966  0.00  0.00    +0.000 HD
ATOM     31  H   UNL     1      48.070   2.858   4.452  0.00  0.00    +0.000 HD
ENDBRANCH  23  27
ENDBRANCH  18  19
ENDBRANCH  17  18
ENDBRANCH   3  17
TORSDOF 7
ENDMDL
MODEL 3
REMARK VINA RESULT:    -7.999      2.682      3.344
REMARK INTER + INTRA:         -12.421
REMARK INTER:                 -11.670
REMARK INTRA:                  -0.751
REMARK UNBOUND:                -1.149
REMARK  Name = 
REMARK  8 active torsions:
REMARK  status: ('A' for Active; 'I' for Inactive)
REMARK    1  A    between atoms: C_1  and  C_2
REMARK    2  A    between atoms: C_2  and  O_3
REMARK    3  A    between atoms: O_3  and  C_4
REMARK    4  A    between atoms: C_6  and  C_7
REMARK    5  A    between atoms: C_7  and  C_8
REMARK    6  A    between atoms: C_8  and  N_9
REMARK    7  A    between atoms: C_13  and  C_14
REMARK    8  A    between atoms: C_20  and  C_21
REMARK                            x       y       z     vdW  Elec       q    Type
REMARK                         _______ _______ _______ _____ _____    ______ ____
ROOT
ATOM      1  C   UNL     1      46.714   6.137  13.406  0.00  0.00    +0.000 A 
ATOM      2  C   UNL     1      45.626   5.288  13.210  0.00  0.00    +0.000 A 
ATOM      3  C   UNL     1      44.473   5.755  12.568  0.00  0.00    +0.000 A 
ATOM      4  C   UNL     1      44.428   7.086  12.124  0.00  0.00    +0.000 A 
ATOM      5  C   UNL     1      45.499   7.978  12.326  0.00  0.00    +0.000 A 
ATOM      6  C   UNL     1      46.643   7.466  12.964  0.00  0.00    +0.000 A 
ENDROOT
BRANCH   5   7
ATOM      7  C   UNL     1      45.405   9.399  11.905  0.00  0.00    +0.000 A 
ATOM      8  C   UNL     1      46.504  10.275  11.988  0.00  0.00    +0.000 A 
ATOM      9  C   UNL     1      46.412  11.610  11.578  0.00  0.00    +0.000 A 
ATOM     10  C   UNL     1      45.215  12.101  11.062  0.00  0.00    +0.000 A 
ATOM     11  C   UNL     1      44.114  11.257  10.976  0.00  0.00    +0.000 A 
ATOM     12 CL   UNL     1      42.631  11.849  10.332  0.00  0.00    +0.000 Cl
ATOM     13  C   UNL     1      44.201   9.930  11.403  0.00  0.00    +0.000 A 
ENDBRANCH   5   7
BRANCH   1  14
ATOM     14  O   UNL     1      47.888   5.802  14.026  0.00  0.00    +0.000 OA
BRANCH  14  16
ATOM     15  C   UNL     1      49.363   6.929  15.531  0.00  0.00    +0.000 C 
ATOM     16  C   UNL     1      48.891   6.816  14.093  0.00  0.00    +0.000 C 
ENDBRANCH  14  16
ENDBRANCH   1  14
BRANCH   3  17
ATOM     17  C   UNL     1      43.251   4.873  12.441  0.00  0.00    +0.000 C 
BRANCH  17  18
ATOM     18  C   UNL     1      43.269   4.131  11.102  0.00  0.00    +0.000 C 
BRANCH  18  19
ATOM     19  N   UNL     1      44.032   4.870  10.090  0.00  0.00    +0.000 N 
ATOM     20  C   UNL     1      44.844   4.022   9.309  0.00  0.00    +0.000 A 
ATOM     21  C   UNL     1      45.634   4.579   8.308  0.00  0.00    +0.000 A 
ATOM     22  C   UNL     1      46.442   3.745   7.527  0.00  0.00    +0.000 A 
ATOM     23  C   UNL     1      46.447   2.370   7.758  0.00  0.00    +0.000 A 
ATOM     24  C   UNL     1      45.617   1.901   8.760  0.00  0.00    +0.000 A 
ATOM     25  N   UNL     1      44.827   2.691   9.525  0.00  0.00    +0.000 NA
ATOM     26  H   UNL     1      44.618   5.593  10.495  0.00  0.00    +0.000 HD
BRANCH  23  27
ATOM     27  C   UNL     1      47.320   1.490   6.944  0.00  0.00    +0.000 C 
ATOM     28  N   UNL     1      48.420   2.027   6.334  0.00  0.00    +0.000 N 
ATOM     29  O   UNL     1      47.064   0.299   6.807  0.00  0.00    +0.000 OA
ATOM     30  H   UNL     1      48.721   2.987   6.378  0.00  0.00    +0.000 HD
ATOM     31  H   UNL     1      48.983   1.391   5.781  0.00  0.00    +0.000 HD
ENDBRANCH  23  27
ENDBRANCH  18  19
ENDBRANCH  17  18
ENDBRANCH   3  17
TORSDOF 7
ENDMDL
MODEL 4
REMARK VINA RESULT:    -7.572      3.794      4.868
REMARK INTER + INTRA:         -11.819
REMARK INTER:                 -10.825
REMARK INTRA:                  -0.994
REMARK UNBOUND:                -1.149
REMARK  Name = 
REMARK  8 active torsions:
REMARK  status: ('A' for Active; 'I' for Inactive)
REMARK    1  A    between atoms: C_1  and  C_2
REMARK    2  A    between atoms: C_2  and  O_3
REMARK    3  A    between atoms: O_3  and  C_4
REMARK    4  A    between atoms: C_6  and  C_7
REMARK    5  A    between atoms: C_7  and  C_8
REMARK    6  A    between atoms: C_8  and  N_9
REMARK    7  A    between atoms: C_13  and  C_14
REMARK    8  A    between atoms: C_20  and  C_21
REMARK                            x       y       z     vdW  Elec       q    Type
REMARK                         _______ _______ _______ _____ _____    ______ ____
ROOT
ATOM      1  C   UNL     1      46.173   8.363  12.769  0.00  0.00    +0.000 A 
ATOM      2  C   UNL     1      45.764   7.031  12.783  0.00  0.00    +0.000 A 
ATOM      3  C   UNL     1      44.646   6.627  12.045  0.00  0.00    +0.000 A 
ATOM      4  C   UNL     1      43.943   7.580  11.290  0.00  0.00    +0.000 A 
ATOM      5  C   UNL     1      44.314   8.938  11.270  0.00  0.00    +0.000 A 
ATOM      6  C   UNL     1      45.450   9.300  12.016  0.00  0.00    +0.000 A 
ENDROOT
BRANCH   5   7
ATOM      7  C   UNL     1      43.519   9.940  10.516  0.00  0.00    +0.000 A 
ATOM      8  C   UNL     1      44.117  10.837   9.610  0.00  0.00    +0.000 A 
ATOM      9  C   UNL     1      43.360  11.771   8.892  0.00  0.00    +0.000 A 
ATOM     10  C   UNL     1      41.978  11.822   9.056  0.00  0.00    +0.000 A 
ATOM     11  C   UNL     1      41.365  10.951   9.949  0.00  0.00    +0.000 A 
ATOM     12 CL   UNL     1      39.657  11.000  10.154  0.00  0.00    +0.000 Cl
ATOM     13  C   UNL     1      42.123  10.033  10.679  0.00  0.00    +0.000 A 
ENDBRANCH   5   7
BRANCH   1  14
ATOM     14  O   UNL     1      47.240   8.880  13.454  0.00  0.00    +0.000 OA
BRANCH  14  16
ATOM     15  C   UNL     1      49.017   8.762  11.861  0.00  0.00    +0.000 C 
ATOM     16  C   UNL     1      48.156   9.681  12.707  0.00  0.00    +0.000 C 
ENDBRANCH  14  16
ENDBRANCH   1  14
BRANCH   3  17
ATOM     17  C   UNL     1      44.135   5.206  12.135  0.00  0.00    +0.000 C 
BRANCH  17  18
ATOM     18  C   UNL     1      43.581   4.755  10.781  0.00  0.00    +0.000 C 
BRANCH  18  19
ATOM     19  N   UNL     1      43.831   3.328  10.548  0.00  0.00    +0.000 N 
ATOM     20  C   UNL     1      44.755   3.111   9.505  0.00  0.00    +0.000 A 
ATOM     21  C   UNL     1      45.090   1.805   9.163  0.00  0.00    +0.000 A 
ATOM     22  C   UNL     1      46.007   1.579   8.130  0.00  0.00    +0.000 A 
ATOM     23  C   UNL     1      46.575   2.662   7.458  0.00  0.00    +0.000 A 
ATOM     24  C   UNL     1      46.199   3.924   7.877  0.00  0.00    +0.000 A 
ATOM     25  N   UNL     1      45.314   4.163   8.874  0.00  0.00    +0.000 NA
ATOM     26  H   UNL     1      42.981   2.813  10.338  0.00  0.00    +0.000 HD
BRANCH  23  27
ATOM     27  C   UNL     1      47.529   2.421   6.349  0.00  0.00    +0.000 C 
ATOM     28  N   UNL     1      47.370   3.106   5.175  0.00  0.00    +0.000 N 
ATOM     29  O   UNL     1      48.446   1.616   6.468  0.00  0.00    +0.000 OA
ATOM     30  H   UNL     1      46.655   3.784   4.970  0.00  0.00    +0.000 HD
ATOM     31  H   UNL     1      48.039   2.904   4.442  0.00  0.00    +0.000 HD
ENDBRANCH  23  27
ENDBRANCH  18  19
ENDBRANCH  17  18
ENDBRANCH   3  17
TORSDOF 7
ENDMDL
MODEL 5
REMARK VINA RESULT:    -7.033      4.291      8.118
REMARK INTER + INTRA:         -11.060
REMARK INTER:                  -9.885
REMARK INTRA:                  -1.175
REMARK UNBOUND:                -1.149
REMARK  Name = 
REMARK  8 active torsions:
REMARK  status: ('A' for Active; 'I' for Inactive)
REMARK    1  A    between atoms: C_1  and  C_2
REMARK    2  A    between atoms: C_2  and  O_3
REMARK    3  A    between atoms: O_3  and  C_4
REMARK    4  A    between atoms: C_6  and  C_7
REMARK    5  A    between atoms: C_7  and  C_8
REMARK    6  A    between atoms: C_8  and  N_9
REMARK    7  A    between atoms: C_13  and  C_14
REMARK    8  A    between atoms: C_20  and  C_21
REMARK                            x       y       z     vdW  Elec       q    Type
REMARK                         _______ _______ _______ _____ _____    ______ ____
ROOT
ATOM      1  C   UNL     1      44.814   9.553  11.557  0.00  0.00    +0.000 A 
ATOM      2  C   UNL     1      46.099   9.779  12.046  0.00  0.00    +0.000 A 
ATOM      3  C   UNL     1      46.914   8.703  12.414  0.00  0.00    +0.000 A 
ATOM      4  C   UNL     1      46.420   7.395  12.283  0.00  0.00    +0.000 A 
ATOM      5  C   UNL     1      45.119   7.131  11.814  0.00  0.00    +0.000 A 
ATOM      6  C   UNL     1      44.338   8.239  11.444  0.00  0.00    +0.000 A 
ENDROOT
BRANCH   5   7
ATOM      7  C   UNL     1      44.596   5.743  11.744  0.00  0.00    +0.000 A 
ATOM      8  C   UNL     1      43.855   5.172  12.796  0.00  0.00    +0.000 A 
ATOM      9  C   UNL     1      43.353   3.867  12.718  0.00  0.00    +0.000 A 
ATOM     10  C   UNL     1      43.572   3.102  11.575  0.00  0.00    +0.000 A 
ATOM     11  C   UNL     1      44.306   3.641  10.526  0.00  0.00    +0.000 A 
ATOM     12 CL   UNL     1      44.578   2.709   9.105  0.00  0.00    +0.000 Cl
ATOM     13  C   UNL     1      44.823   4.936  10.612  0.00  0.00    +0.000 A 
ENDBRANCH   5   7
BRANCH   1  14
ATOM     14  O   UNL     1      43.921  10.520  11.175  0.00  0.00    +0.000 OA
BRANCH  14  16
ATOM     15  C   UNL     1      43.134  10.790   8.935  0.00  0.00    +0.000 C 
ATOM     16  C   UNL     1      42.888  10.121  10.275  0.00  0.00    +0.000 C 
ENDBRANCH  14  16
ENDBRANCH   1  14
BRANCH   3  17
ATOM     17  C   UNL     1      48.270   8.942  13.040  0.00  0.00    +0.000 C 
BRANCH  17  18
ATOM     18  C   UNL     1      49.017   7.616  13.209  0.00  0.00    +0.000 C 
BRANCH  18  19
ATOM     19  N   UNL     1      49.693   7.542  14.509  0.00  0.00    +0.000 N 
ATOM     20  C   UNL     1      49.169   6.520  15.326  0.00  0.00    +0.000 A 
ATOM     21  C   UNL     1      49.706   6.330  16.596  0.00  0.00    +0.000 A 
ATOM     22  C   UNL     1      49.193   5.317  17.414  0.00  0.00    +0.000 A 
ATOM     23  C   UNL     1      48.154   4.510  16.950  0.00  0.00    +0.000 A 
ATOM     24  C   UNL     1      47.695   4.757  15.669  0.00  0.00    +0.000 A 
ATOM     25  N   UNL     1      48.178   5.731  14.863  0.00  0.00    +0.000 NA
ATOM     26  H   UNL     1      49.649   8.418  15.021  0.00  0.00    +0.000 HD
BRANCH  23  27
ATOM     27  C   UNL     1      47.597   3.451  17.826  0.00  0.00    +0.000 C 
ATOM     28  N   UNL     1      48.247   3.140  18.989  0.00  0.00    +0.000 N 
ATOM     29  O   UNL     1      46.574   2.850  17.517  0.00  0.00    +0.000 OA
ATOM     30  H   UNL     1      49.091   3.567  19.335  0.00  0.00    +0.000 HD
ATOM     31  H   UNL     1      47.836   2.406  19.552  0.00  0.00    +0.000 HD
ENDBRANCH  23  27
ENDBRANCH  18  19
ENDBRANCH  17  18
ENDBRANCH   3  17
TORSDOF 7
ENDMDL
MODEL 6
REMARK VINA RESULT:    -6.678      3.672      7.665
REMARK INTER + INTRA:         -10.559
REMARK INTER:                 -10.020
REMARK INTRA:                  -0.539
REMARK UNBOUND:                -1.149
REMARK  Name = 
REMARK  8 active torsions:
REMARK  status: ('A' for Active; 'I' for Inactive)
REMARK    1  A    between atoms: C_1  and  C_2
REMARK    2  A    between atoms: C_2  and  O_3
REMARK    3  A    between atoms: O_3  and  C_4
REMARK    4  A    between atoms: C_6  and  C_7
REMARK    5  A    between atoms: C_7  and  C_8
REMARK    6  A    between atoms: C_8  and  N_9
REMARK    7  A    between atoms: C_13  and  C_14
REMARK    8  A    between atoms: C_20  and  C_21
REMARK                            x       y       z     vdW  Elec       q    Type
REMARK                         _______ _______ _______ _____ _____    ______ ____
ROOT
ATOM      1  C   UNL     1      43.909   5.283  10.887  0.00  0.00    +0.000 A 
ATOM      2  C   UNL     1      44.770   6.268  11.368  0.00  0.00    +0.000 A 
ATOM      3  C   UNL     1      46.043   6.427  10.809  0.00  0.00    +0.000 A 
ATOM      4  C   UNL     1      46.439   5.585   9.758  0.00  0.00    +0.000 A 
ATOM      5  C   UNL     1      45.605   4.565   9.262  0.00  0.00    +0.000 A 
ATOM      6  C   UNL     1      44.330   4.446   9.844  0.00  0.00    +0.000 A 
ENDROOT
BRANCH   5   7
ATOM      7  C   UNL     1      46.069   3.644   8.193  0.00  0.00    +0.000 A 
ATOM      8  C   UNL     1      46.484   4.116   6.933  0.00  0.00    +0.000 A 
ATOM      9  C   UNL     1      46.933   3.243   5.934  0.00  0.00    +0.000 A 
ATOM     10  C   UNL     1      46.988   1.873   6.177  0.00  0.00    +0.000 A 
ATOM     11  C   UNL     1      46.578   1.384   7.411  0.00  0.00    +0.000 A 
ATOM     12 CL   UNL     1      46.648  -0.307   7.727  0.00  0.00    +0.000 Cl
ATOM     13  C   UNL     1      46.111   2.252   8.401  0.00  0.00    +0.000 A 
ENDBRANCH   5   7
BRANCH   1  14
ATOM     14  O   UNL     1      42.648   5.023  11.356  0.00  0.00    +0.000 OA
BRANCH  14  16
ATOM     15  C   UNL     1      43.361   3.913  13.349  0.00  0.00    +0.000 C 
ATOM     16  C   UNL     1      42.482   5.008  12.774  0.00  0.00    +0.000 C 
ENDBRANCH  14  16
ENDBRANCH   1  14
BRANCH   3  17
ATOM     17  C   UNL     1      47.021   7.424  11.391  0.00  0.00    +0.000 C 
BRANCH  17  18
ATOM     18  C   UNL     1      47.834   6.776  12.515  0.00  0.00    +0.000 C 
BRANCH  18  19
ATOM     19  N   UNL     1      47.130   5.623  13.089  0.00  0.00    +0.000 N 
ATOM     20  C   UNL     1      47.562   5.333  14.399  0.00  0.00    +0.000 A 
ATOM     21  C   UNL     1      46.989   4.261  15.076  0.00  0.00    +0.000 A 
ATOM     22  C   UNL     1      47.410   3.966  16.377  0.00  0.00    +0.000 A 
ATOM     23  C   UNL     1      48.395   4.747  16.981  0.00  0.00    +0.000 A 
ATOM     24  C   UNL     1      48.895   5.803  16.243  0.00  0.00    +0.000 A 
ATOM     25  N   UNL     1      48.500   6.106  14.984  0.00  0.00    +0.000 NA
ATOM     26  H   UNL     1      47.229   4.785  12.524  0.00  0.00    +0.000 HD
BRANCH  23  27
ATOM     27  C   UNL     1      48.857   4.420  18.352  0.00  0.00    +0.000 C 
ATOM     28  N   UNL     1      48.264   3.385  19.024  0.00  0.00    +0.000 N 
ATOM     29  O   UNL     1      49.749   5.066  18.889  0.00  0.00    +0.000 OA
ATOM     30  H   UNL     1      47.525   2.793  18.680  0.00  0.00    +0.000 HD
ATOM     31  H   UNL     1      48.605   3.202  19.960  0.00  0.00    +0.000 HD
ENDBRANCH  23  27
ENDBRANCH  18  19
ENDBRANCH  17  18
ENDBRANCH   3  17
TORSDOF 7
ENDMDL
MODEL 7
REMARK VINA RESULT:    -6.609      4.455      8.253
REMARK INTER + INTRA:         -10.462
REMARK INTER:                  -9.477
REMARK INTRA:                  -0.985
REMARK UNBOUND:                -1.149
REMARK  Name = 
REMARK  8 active torsions:
REMARK  status: ('A' for Active; 'I' for Inactive)
REMARK    1  A    between atoms: C_1  and  C_2
REMARK    2  A    between atoms: C_2  and  O_3
REMARK    3  A    between atoms: O_3  and  C_4
REMARK    4  A    between atoms: C_6  and  C_7
REMARK    5  A    between atoms: C_7  and  C_8
REMARK    6  A    between atoms: C_8  and  N_9
REMARK    7  A    between atoms: C_13  and  C_14
REMARK    8  A    between atoms: C_20  and  C_21
REMARK                            x       y       z     vdW  Elec       q    Type
REMARK                         _______ _______ _______ _____ _____    ______ ____
ROOT
ATOM      1  C   UNL     1      45.367   8.912  12.109  0.00  0.00    +0.000 A 
ATOM      2  C   UNL     1      46.666   8.989  12.608  0.00  0.00    +0.000 A 
ATOM      3  C   UNL     1      47.540   7.905  12.472  0.00  0.00    +0.000 A 
ATOM      4  C   UNL     1      47.092   6.741  11.826  0.00  0.00    +0.000 A 
ATOM      5  C   UNL     1      45.780   6.620  11.330  0.00  0.00    +0.000 A 
ATOM      6  C   UNL     1      44.938   7.736  11.477  0.00  0.00    +0.000 A 
ENDROOT
BRANCH   5   7
ATOM      7  C   UNL     1      45.309   5.357  10.707  0.00  0.00    +0.000 A 
ATOM      8  C   UNL     1      44.488   4.447  11.399  0.00  0.00    +0.000 A 
ATOM      9  C   UNL     1      44.036   3.264  10.801  0.00  0.00    +0.000 A 
ATOM     10  C   UNL     1      44.388   2.967   9.487  0.00  0.00    +0.000 A 
ATOM     11  C   UNL     1      45.202   3.848   8.786  0.00  0.00    +0.000 A 
ATOM     12 CL   UNL     1      45.638   3.497   7.158  0.00  0.00    +0.000 Cl
ATOM     13  C   UNL     1      45.669   5.018   9.388  0.00  0.00    +0.000 A 
ENDBRANCH   5   7
BRANCH   1  14
ATOM     14  O   UNL     1      44.419   9.898  12.189  0.00  0.00    +0.000 OA
BRANCH  14  16
ATOM     15  C   UNL     1      44.682  11.272  10.252  0.00  0.00    +0.000 C 
ATOM     16  C   UNL     1      43.785  10.279  10.968  0.00  0.00    +0.000 C 
ENDBRANCH  14  16
ENDBRANCH   1  14
BRANCH   3  17
ATOM     17  C   UNL     1      48.916   7.941  13.099  0.00  0.00    +0.000 C 
BRANCH  17  18
ATOM     18  C   UNL     1      48.803   8.112  14.617  0.00  0.00    +0.000 C 
BRANCH  18  19
ATOM     19  N   UNL     1      48.097   6.983  15.233  0.00  0.00    +0.000 N 
ATOM     20  C   UNL     1      48.954   6.179  16.013  0.00  0.00    +0.000 A 
ATOM     21  C   UNL     1      48.429   5.063  16.658  0.00  0.00    +0.000 A 
ATOM     22  C   UNL     1      49.271   4.261  17.435  0.00  0.00    +0.000 A 
ATOM     23  C   UNL     1      50.622   4.586  17.557  0.00  0.00    +0.000 A 
ATOM     24  C   UNL     1      51.053   5.722  16.898  0.00  0.00    +0.000 A 
ATOM     25  N   UNL     1      50.254   6.512  16.142  0.00  0.00    +0.000 NA
ATOM     26  H   UNL     1      47.636   6.391  14.548  0.00  0.00    +0.000 HD
BRANCH  23  27
ATOM     27  C   UNL     1      51.518   3.723  18.363  0.00  0.00    +0.000 C 
ATOM     28  N   UNL     1      51.637   2.399  18.036  0.00  0.00    +0.000 N 
ATOM     29  O   UNL     1      52.140   4.175  19.317  0.00  0.00    +0.000 OA
ATOM     30  H   UNL     1      51.172   1.926  17.278  0.00  0.00    +0.000 HD
ATOM     31  H   UNL     1      52.252   1.845  18.618  0.00  0.00    +0.000 HD
ENDBRANCH  23  27
ENDBRANCH  18  19
ENDBRANCH  17  18
ENDBRANCH   3  17
TORSDOF 7
ENDMDL
MODEL 8
REMARK VINA RESULT:    -6.505      4.338      7.086
REMARK INTER + INTRA:         -10.316
REMARK INTER:                  -9.037
REMARK INTRA:                  -1.279
REMARK UNBOUND:                -1.149
REMARK  Name = 
REMARK  8 active torsions:
REMARK  status: ('A' for Active; 'I' for Inactive)
REMARK    1  A    between atoms: C_1  and  C_2
REMARK    2  A    between atoms: C_2  and  O_3
REMARK    3  A    between atoms: O_3  and  C_4
REMARK    4  A    between atoms: C_6  and  C_7
REMARK    5  A    between atoms: C_7  and  C_8
REMARK    6  A    between atoms: C_8  and  N_9
REMARK    7  A    between atoms: C_13  and  C_14
REMARK    8  A    between atoms: C_20  and  C_21
REMARK                            x       y       z     vdW  Elec       q    Type
REMARK                         _______ _______ _______ _____ _____    ______ ____
ROOT
ATOM      1  C   UNL     1      48.124   6.442  14.221  0.00  0.00    +0.000 A 
ATOM      2  C   UNL     1      48.559   7.695  13.794  0.00  0.00    +0.000 A 
ATOM      3  C   UNL     1      48.123   8.213  12.570  0.00  0.00    +0.000 A 
ATOM      4  C   UNL     1      47.242   7.456  11.780  0.00  0.00    +0.000 A 
ATOM      5  C   UNL     1      46.801   6.178  12.170  0.00  0.00    +0.000 A 
ATOM      6  C   UNL     1      47.253   5.699  13.412  0.00  0.00    +0.000 A 
ENDROOT
BRANCH   5   7
ATOM      7  C   UNL     1      45.921   5.368  11.289  0.00  0.00    +0.000 A 
ATOM      8  C   UNL     1      45.926   5.519   9.889  0.00  0.00    +0.000 A 
ATOM      9  C   UNL     1      45.102   4.743   9.064  0.00  0.00    +0.000 A 
ATOM     10  C   UNL     1      44.258   3.786   9.622  0.00  0.00    +0.000 A 
ATOM     11  C   UNL     1      44.231   3.624  11.001  0.00  0.00    +0.000 A 
ATOM     12 CL   UNL     1      43.198   2.439  11.702  0.00  0.00    +0.000 Cl
ATOM     13  C   UNL     1      45.038   4.411  11.826  0.00  0.00    +0.000 A 
ENDBRANCH   5   7
BRANCH   1  14
ATOM     14  O   UNL     1      48.486   5.825  15.390  0.00  0.00    +0.000 OA
BRANCH  14  16
ATOM     15  C   UNL     1      47.702   4.717  17.356  0.00  0.00    +0.000 C 
ATOM     16  C   UNL     1      47.648   4.761  15.840  0.00  0.00    +0.000 C 
ENDBRANCH  14  16
ENDBRANCH   1  14
BRANCH   3  17
ATOM     17  C   UNL     1      48.668   9.526  12.051  0.00  0.00    +0.000 C 
BRANCH  17  18
ATOM     18  C   UNL     1      47.743  10.679  12.451  0.00  0.00    +0.000 C 
BRANCH  18  19
ATOM     19  N   UNL     1      47.210  11.372  11.272  0.00  0.00    +0.000 N 
ATOM     20  C   UNL     1      45.832  11.134  11.092  0.00  0.00    +0.000 A 
ATOM     21  C   UNL     1      45.183  11.721  10.010  0.00  0.00    +0.000 A 
ATOM     22  C   UNL     1      43.815  11.492   9.823  0.00  0.00    +0.000 A 
ATOM     23  C   UNL     1      43.118  10.682  10.721  0.00  0.00    +0.000 A 
ATOM     24  C   UNL     1      43.839  10.155  11.777  0.00  0.00    +0.000 A 
ATOM     25  N   UNL     1      45.162  10.366  11.975  0.00  0.00    +0.000 NA
ATOM     26  H   UNL     1      47.695  11.117  10.417  0.00  0.00    +0.000 HD
BRANCH  23  27
ATOM     27  C   UNL     1      41.674  10.421  10.509  0.00  0.00    +0.000 C 
ATOM     28  N   UNL     1      41.044   9.492  11.292  0.00  0.00    +0.000 N 
ATOM     29  O   UNL     1      41.045  11.017   9.642  0.00  0.00    +0.000 OA
ATOM     30  H   UNL     1      41.463   8.947  12.028  0.00  0.00    +0.000 HD
ATOM     31  H   UNL     1      40.060   9.341  11.108  0.00  0.00    +0.000 HD
ENDBRANCH  23  27
ENDBRANCH  18  19
ENDBRANCH  17  18
ENDBRANCH   3  17
TORSDOF 7
ENDMDL
MODEL 9
REMARK VINA RESULT:    -6.082      4.221      7.389
REMARK INTER + INTRA:          -9.720
REMARK INTER:                  -8.755
REMARK INTRA:                  -0.965
REMARK UNBOUND:                -1.149
REMARK  Name = 
REMARK  8 active torsions:
REMARK  status: ('A' for Active; 'I' for Inactive)
REMARK    1  A    between atoms: C_1  and  C_2
REMARK    2  A    between atoms: C_2  and  O_3
REMARK    3  A    between atoms: O_3  and  C_4
REMARK    4  A    between atoms: C_6  and  C_7
REMARK    5  A    between atoms: C_7  and  C_8
REMARK    6  A    between atoms: C_8  and  N_9
REMARK    7  A    between atoms: C_13  and  C_14
REMARK    8  A    between atoms: C_20  and  C_21
REMARK                            x       y       z     vdW  Elec       q    Type
REMARK                         _______ _______ _______ _____ _____    ______ ____
ROOT
ATOM      1  C   UNL     1      45.732   5.110  12.592  0.00  0.00    +0.000 A 
ATOM      2  C   UNL     1      46.475   6.083  11.926  0.00  0.00    +0.000 A 
ATOM      3  C   UNL     1      47.645   6.593  12.499  0.00  0.00    +0.000 A 
ATOM      4  C   UNL     1      48.059   6.113  13.752  0.00  0.00    +0.000 A 
ATOM      5  C   UNL     1      47.321   5.148  14.464  0.00  0.00    +0.000 A 
ATOM      6  C   UNL     1      46.159   4.653  13.847  0.00  0.00    +0.000 A 
ENDROOT
BRANCH   5   7
ATOM      7  C   UNL     1      47.744   4.701  15.815  0.00  0.00    +0.000 A 
ATOM      8  C   UNL     1      47.559   3.376  16.253  0.00  0.00    +0.000 A 
ATOM      9  C   UNL     1      47.972   2.958  17.525  0.00  0.00    +0.000 A 
ATOM     10  C   UNL     1      48.592   3.858  18.388  0.00  0.00    +0.000 A 
ATOM     11  C   UNL     1      48.780   5.173  17.980  0.00  0.00    +0.000 A 
ATOM     12 CL   UNL     1      49.553   6.293  19.034  0.00  0.00    +0.000 Cl
ATOM     13  C   UNL     1      48.351   5.595  16.719  0.00  0.00    +0.000 A 
ENDBRANCH   5   7
BRANCH   1  14
ATOM     14  O   UNL     1      44.570   4.542  12.140  0.00  0.00    +0.000 OA
BRANCH  14  16
ATOM     15  C   UNL     1      42.408   5.521  11.859  0.00  0.00    +0.000 C 
ATOM     16  C   UNL     1      43.374   4.884  12.841  0.00  0.00    +0.000 C 
ENDBRANCH  14  16
ENDBRANCH   1  14
BRANCH   3  17
ATOM     17  C   UNL     1      48.402   7.720  11.832  0.00  0.00    +0.000 C 
BRANCH  17  18
ATOM     18  C   UNL     1      48.300   8.997  12.670  0.00  0.00    +0.000 C 
BRANCH  18  19
ATOM     19  N   UNL     1      47.984  10.162  11.836  0.00  0.00    +0.000 N 
ATOM     20  C   UNL     1      46.594  10.366  11.708  0.00  0.00    +0.000 A 
ATOM     21  C   UNL     1      46.138  11.433  10.940  0.00  0.00    +0.000 A 
ATOM     22  C   UNL     1      44.761  11.644  10.808  0.00  0.00    +0.000 A 
ATOM     23  C   UNL     1      43.863  10.787  11.446  0.00  0.00    +0.000 A 
ATOM     24  C   UNL     1      44.405   9.766  12.204  0.00  0.00    +0.000 A 
ATOM     25  N   UNL     1      45.734   9.546  12.345  0.00  0.00    +0.000 NA
ATOM     26  H   UNL     1      48.387  10.097  10.906  0.00  0.00    +0.000 HD
BRANCH  23  27
ATOM     27  C   UNL     1      42.404  10.999  11.288  0.00  0.00    +0.000 C 
ATOM     28  N   UNL     1      41.655  11.315  12.388  0.00  0.00    +0.000 N 
ATOM     29  O   UNL     1      41.865  10.885  10.193  0.00  0.00    +0.000 OA
ATOM     30  H   UNL     1      41.993  11.430  13.330  0.00  0.00    +0.000 HD
ATOM     31  H   UNL     1      40.662  11.442  12.235  0.00  0.00    +0.000 HD
ENDBRANCH  23  27
ENDBRANCH  18  19
ENDBRANCH  17  18
ENDBRANCH   3  17
TORSDOF 7
ENDMDL
