MODEL 1
REMARK VINA RESULT:    -7.776      0.000      0.000
REMARK INTER + INTRA:         -10.828
REMARK INTER:                 -10.049
REMARK INTRA:                  -0.779
REMARK UNBOUND:                -0.779
REMARK  Name = 
REMARK  6 active torsions:
REMARK  status: ('A' for Active; 'I' for Inactive)
REMARK    1  A    between atoms: C_1  and  O_2
REMARK    2  A    between atoms: O_2  and  C_3
REMARK    3  A    between atoms: C_7  and  O_8
REMARK    4  A    between atoms: O_8  and  C_9
REMARK    5  A    between atoms: C_9  and  C_10
REMARK    6  A    between atoms: C_14  and  C_15
REMARK                            x       y       z     vdW  Elec       q    Type
REMARK                         _______ _______ _______ _____ _____    ______ ____
ROOT
ATOM      1  C   UNL     1      45.053   5.012  12.084  0.00  0.00    +0.000 A 
ATOM      2  C   UNL     1      45.198   4.119  13.142  0.00  0.00    +0.000 A 
ATOM      3  N   UNL     1      46.252   4.088  13.996  0.00  0.00    +0.000 NA
ATOM      4  C   UNL     1      47.218   5.009  13.791  0.00  0.00    +0.000 A 
ATOM      5  C   UNL     1      47.208   5.947  12.762  0.00  0.00    +0.000 A 
ATOM      6  C   UNL     1      46.117   5.894  11.891  0.00  0.00    +0.000 A 
ENDROOT
BRANCH   5   7
ATOM      7  C   UNL     1      48.310   6.985  12.646  0.00  0.00    +0.000 C 
ATOM      8  C   UNL     1      48.931   7.369  14.001  0.00  0.00    +0.000 C 
ATOM      9  C   UNL     1      48.152   8.438  14.770  0.00  0.00    +0.000 C 
ATOM     10  N   UNL     1      47.818   9.602  13.950  0.00  0.00    +0.000 NA
ATOM     11  C   UNL     1      47.115   9.246  12.718  0.00  0.00    +0.000 C 
ATOM     12  C   UNL     1      47.891   8.241  11.870  0.00  0.00    +0.000 C 
ATOM     13  H   UNL     1      48.678  10.092  13.710  0.00  0.00    +0.000 HD
ENDBRANCH   5   7
BRANCH   1  14
ATOM     14  C   UNL     1      43.816   5.088  11.230  0.00  0.00    +0.000 C 
ATOM     15  C   UNL     1      42.506   5.481  11.908  0.00  0.00    +0.000 C 
ATOM     16  O   UNL     1      43.201   6.381  11.056  0.00  0.00    +0.000 OA
BRANCH  14  17
ATOM     17  O   UNL     1      43.659   4.084  10.213  0.00  0.00    +0.000 OA
BRANCH  17  22
ATOM     18  C   UNL     1      45.843   1.867   8.347  0.00  0.00    +0.000 A 
ATOM     19  C   UNL     1      46.555   2.739   7.529  0.00  0.00    +0.000 A 
ATOM     20  C   UNL     1      46.343   4.117   7.635  0.00  0.00    +0.000 A 
ATOM     21  C   UNL     1      45.411   4.629   8.548  0.00  0.00    +0.000 A 
ATOM     22  C   UNL     1      44.667   3.761   9.343  0.00  0.00    +0.000 A 
ATOM     23  C   UNL     1      44.909   2.387   9.247  0.00  0.00    +0.000 A 
BRANCH  18  25
ATOM     24  C   UNL     1      46.929  -0.080   7.517  0.00  0.00    +0.000 C 
ATOM     25  O   UNL     1      45.947   0.504   8.363  0.00  0.00    +0.000 OA
ENDBRANCH  18  25
ENDBRANCH  17  22
ENDBRANCH  14  17
ENDBRANCH   1  14
TORSDOF 5
ENDMDL
MODEL 2
REMARK VINA RESULT:    -6.699      2.762      6.823
REMARK INTER + INTRA:          -9.436
REMARK INTER:                  -8.829
REMARK INTRA:                  -0.606
REMARK UNBOUND:                -0.779
REMARK  Name = 
REMARK  6 active torsions:
REMARK  status: ('A' for Active; 'I' for Inactive)
REMARK    1  A    between atoms: C_1  and  O_2
REMARK    2  A    between atoms: O_2  and  C_3
REMARK    3  A    between atoms: C_7  and  O_8
REMARK    4  A    between atoms: O_8  and  C_9
REMARK    5  A    between atoms: C_9  and  C_10
REMARK    6  A    between atoms: C_14  and  C_15
REMARK                            x       y       z     vdW  Elec       q    Type
REMARK                         _______ _______ _______ _____ _____    ______ ____
ROOT
ATOM      1  C   UNL     1      46.241   5.668  12.262  0.00  0.00    +0.000 A 
ATOM      2  C   UNL     1      46.228   4.713  13.275  0.00  0.00    +0.000 A 
ATOM      3  N   UNL     1      45.652   3.488  13.184  0.00  0.00    +0.000 NA
ATOM      4  C   UNL     1      45.059   3.190  12.008  0.00  0.00    +0.000 A 
ATOM      5  C   UNL     1      44.982   4.057  10.920  0.00  0.00    +0.000 A 
ATOM      6  C   UNL     1      45.556   5.318  11.097  0.00  0.00    +0.000 A 
ENDROOT
BRANCH   5   7
ATOM      7  C   UNL     1      44.349   3.612   9.615  0.00  0.00    +0.000 C 
ATOM      8  C   UNL     1      44.458   2.095   9.369  0.00  0.00    +0.000 C 
ATOM      9  C   UNL     1      45.786   1.652   8.751  0.00  0.00    +0.000 C 
ATOM     10  N   UNL     1      46.164   2.444   7.581  0.00  0.00    +0.000 NA
ATOM     11  C   UNL     1      46.182   3.882   7.850  0.00  0.00    +0.000 C 
ATOM     12  C   UNL     1      44.848   4.393   8.392  0.00  0.00    +0.000 C 
ATOM     13  H   UNL     1      45.503   2.256   6.830  0.00  0.00    +0.000 HD
ENDBRANCH   5   7
BRANCH   1  14
ATOM     14  C   UNL     1      46.989   6.969  12.361  0.00  0.00    +0.000 C 
ATOM     15  C   UNL     1      48.468   6.914  12.741  0.00  0.00    +0.000 C 
ATOM     16  O   UNL     1      48.050   7.206  11.414  0.00  0.00    +0.000 OA
BRANCH  14  17
ATOM     17  O   UNL     1      46.289   8.086  12.938  0.00  0.00    +0.000 OA
BRANCH  17  22
ATOM     18  C   UNL     1      43.983   9.945  10.843  0.00  0.00    +0.000 A 
ATOM     19  C   UNL     1      44.609  11.180  10.702  0.00  0.00    +0.000 A 
ATOM     20  C   UNL     1      45.865  11.390  11.278  0.00  0.00    +0.000 A 
ATOM     21  C   UNL     1      46.496  10.373  12.007  0.00  0.00    +0.000 A 
ATOM     22  C   UNL     1      45.861   9.147  12.185  0.00  0.00    +0.000 A 
ATOM     23  C   UNL     1      44.616   8.941  11.579  0.00  0.00    +0.000 A 
BRANCH  18  25
ATOM     24  C   UNL     1      41.630  10.295  10.819  0.00  0.00    +0.000 C 
ATOM     25  O   UNL     1      42.765   9.591  10.333  0.00  0.00    +0.000 OA
ENDBRANCH  18  25
ENDBRANCH  17  22
ENDBRANCH  14  17
ENDBRANCH   1  14
TORSDOF 5
ENDMDL
MODEL 3
REMARK VINA RESULT:    -6.162      3.673      7.546
REMARK INTER + INTRA:          -8.742
REMARK INTER:                  -8.100
REMARK INTRA:                  -0.642
REMARK UNBOUND:                -0.779
REMARK  Name = 
REMARK  6 active torsions:
REMARK  status: ('A' for Active; 'I' for Inactive)
REMARK    1  A    between atoms: C_1  and  O_2
REMARK    2  A    between atoms: O_2  and  C_3
REMARK    3  A    between atoms: C_7  and  O_8
REMARK    4  A    between atoms: O_8  and  C_9
REMARK    5  A    between atoms: C_9  and  C_10
REMARK    6  A    between atoms: C_14  and  C_15
REMARK                            x       y       z     vdW  Elec       q    Type
REMARK                         _______ _______ _______ _____ _____    ______ ____
ROOT
ATOM      1  C   UNL     1      47.507   7.245  13.218  0.00  0.00    +0.000 A 
ATOM      2  C   UNL     1      46.716   8.300  12.770  0.00  0.00    +0.000 A 
ATOM      3  N   UNL     1      45.400   8.207  12.453  0.00  0.00    +0.000 NA
ATOM      4  C   UNL     1      44.832   6.991  12.596  0.00  0.00    +0.000 A 
ATOM      5  C   UNL     1      45.510   5.848  13.015  0.00  0.00    +0.000 A 
ATOM      6  C   UNL     1      46.872   6.003  13.282  0.00  0.00    +0.000 A 
ENDROOT
BRANCH   5   7
ATOM      7  C   UNL     1      44.774   4.534  13.206  0.00  0.00    +0.000 C 
ATOM      8  C   UNL     1      45.349   3.383  12.360  0.00  0.00    +0.000 C 
ATOM      9  C   UNL     1      44.831   3.340  10.921  0.00  0.00    +0.000 C 
ATOM     10  N   UNL     1      43.375   3.432  10.836  0.00  0.00    +0.000 NA
ATOM     11  C   UNL     1      42.836   4.598  11.536  0.00  0.00    +0.000 C 
ATOM     12  C   UNL     1      43.257   4.645  13.004  0.00  0.00    +0.000 C 
ATOM     13  H   UNL     1      42.968   2.589  11.237  0.00  0.00    +0.000 HD
ENDBRANCH   5   7
BRANCH   1  14
ATOM     14  C   UNL     1      48.932   7.414  13.670  0.00  0.00    +0.000 C 
ATOM     15  C   UNL     1      49.992   7.674  12.601  0.00  0.00    +0.000 C 
ATOM     16  O   UNL     1      49.548   8.703  13.476  0.00  0.00    +0.000 OA
BRANCH  14  17
ATOM     17  O   UNL     1      49.387   6.561  14.735  0.00  0.00    +0.000 OA
BRANCH  17  22
ATOM     18  C   UNL     1      48.141   5.390  17.936  0.00  0.00    +0.000 A 
ATOM     19  C   UNL     1      48.081   6.553  18.697  0.00  0.00    +0.000 A 
ATOM     20  C   UNL     1      48.415   7.780  18.115  0.00  0.00    +0.000 A 
ATOM     21  C   UNL     1      48.822   7.849  16.776  0.00  0.00    +0.000 A 
ATOM     22  C   UNL     1      48.922   6.685  16.018  0.00  0.00    +0.000 A 
ATOM     23  C   UNL     1      48.557   5.468  16.605  0.00  0.00    +0.000 A 
BRANCH  18  25
ATOM     24  C   UNL     1      47.431   3.191  17.372  0.00  0.00    +0.000 C 
ATOM     25  O   UNL     1      47.839   4.127  18.361  0.00  0.00    +0.000 OA
ENDBRANCH  18  25
ENDBRANCH  17  22
ENDBRANCH  14  17
ENDBRANCH   1  14
TORSDOF 5
ENDMDL
MODEL 4
REMARK VINA RESULT:    -6.041      3.006      7.150
REMARK INTER + INTRA:          -8.585
REMARK INTER:                  -8.237
REMARK INTRA:                  -0.348
REMARK UNBOUND:                -0.779
REMARK  Name = 
REMARK  6 active torsions:
REMARK  status: ('A' for Active; 'I' for Inactive)
REMARK    1  A    between atoms: C_1  and  O_2
REMARK    2  A    between atoms: O_2  and  C_3
REMARK    3  A    between atoms: C_7  and  O_8
REMARK    4  A    between atoms: O_8  and  C_9
REMARK    5  A    between atoms: C_9  and  C_10
REMARK    6  A    between atoms: C_14  and  C_15
REMARK                            x       y       z     vdW  Elec       q    Type
REMARK                         _______ _______ _______ _____ _____    ______ ____
ROOT
ATOM      1  C   UNL     1      47.320   6.801  12.519  0.00  0.00    +0.000 A 
ATOM      2  C   UNL     1      47.380   5.974  13.637  0.00  0.00    +0.000 A 
ATOM      3  N   UNL     1      46.539   4.939  13.887  0.00  0.00    +0.000 NA
ATOM      4  C   UNL     1      45.583   4.706  12.962  0.00  0.00    +0.000 A 
ATOM      5  C   UNL     1      45.398   5.465  11.809  0.00  0.00    +0.000 A 
ATOM      6  C   UNL     1      46.269   6.544  11.636  0.00  0.00    +0.000 A 
ENDROOT
BRANCH   5   7
ATOM      7  C   UNL     1      44.334   5.090  10.794  0.00  0.00    +0.000 C 
ATOM      8  C   UNL     1      43.142   4.335  11.411  0.00  0.00    +0.000 C 
ATOM      9  C   UNL     1      43.365   2.830  11.572  0.00  0.00    +0.000 C 
ATOM     10  N   UNL     1      43.870   2.194  10.356  0.00  0.00    +0.000 NA
ATOM     11  C   UNL     1      45.079   2.837   9.838  0.00  0.00    +0.000 C 
ATOM     12  C   UNL     1      44.884   4.329   9.580  0.00  0.00    +0.000 C 
ATOM     13  H   UNL     1      43.146   2.230   9.641  0.00  0.00    +0.000 HD
ENDBRANCH   5   7
BRANCH   1  14
ATOM     14  C   UNL     1      48.341   7.865  12.221  0.00  0.00    +0.000 C 
ATOM     15  C   UNL     1      49.816   7.477  12.291  0.00  0.00    +0.000 C 
ATOM     16  O   UNL     1      49.163   7.696  11.049  0.00  0.00    +0.000 OA
BRANCH  14  17
ATOM     17  O   UNL     1      48.071   9.189  12.715  0.00  0.00    +0.000 OA
BRANCH  17  22
ATOM     18  C   UNL     1      45.220  11.135  11.598  0.00  0.00    +0.000 A 
ATOM     19  C   UNL     1      45.787  12.051  10.718  0.00  0.00    +0.000 A 
ATOM     20  C   UNL     1      47.156  11.990  10.441  0.00  0.00    +0.000 A 
ATOM     21  C   UNL     1      47.966  11.024  11.053  0.00  0.00    +0.000 A 
ATOM     22  C   UNL     1      47.414  10.128  11.964  0.00  0.00    +0.000 A 
ATOM     23  C   UNL     1      46.037  10.182  12.209  0.00  0.00    +0.000 A 
BRANCH  18  25
ATOM     24  C   UNL     1      42.951  10.939  10.909  0.00  0.00    +0.000 C 
ATOM     25  O   UNL     1      43.902  11.065  11.958  0.00  0.00    +0.000 OA
ENDBRANCH  18  25
ENDBRANCH  17  22
ENDBRANCH  14  17
ENDBRANCH   1  14
TORSDOF 5
ENDMDL
MODEL 5
REMARK VINA RESULT:    -5.972      3.117      6.571
REMARK INTER + INTRA:          -8.496
REMARK INTER:                  -8.230
REMARK INTRA:                  -0.266
REMARK UNBOUND:                -0.779
REMARK  Name = 
REMARK  6 active torsions:
REMARK  status: ('A' for Active; 'I' for Inactive)
REMARK    1  A    between atoms: C_1  and  O_2
REMARK    2  A    between atoms: O_2  and  C_3
REMARK    3  A    between atoms: C_7  and  O_8
REMARK    4  A    between atoms: O_8  and  C_9
REMARK    5  A    between atoms: C_9  and  C_10
REMARK    6  A    between atoms: C_14  and  C_15
REMARK                            x       y       z     vdW  Elec       q    Type
REMARK                         _______ _______ _______ _____ _____    ______ ____
ROOT
ATOM      1  C   UNL     1      47.174   6.890  13.250  0.00  0.00    +0.000 A 
ATOM      2  C   UNL     1      47.943   6.185  14.172  0.00  0.00    +0.000 A 
ATOM      3  N   UNL     1      47.659   4.941  14.634  0.00  0.00    +0.000 NA
ATOM      4  C   UNL     1      46.545   4.358  14.143  0.00  0.00    +0.000 A 
ATOM      5  C   UNL     1      45.677   4.956  13.232  0.00  0.00    +0.000 A 
ATOM      6  C   UNL     1      46.003   6.254  12.832  0.00  0.00    +0.000 A 
ENDROOT
BRANCH   5   7
ATOM      7  C   UNL     1      44.479   4.199  12.688  0.00  0.00    +0.000 C 
ATOM      8  C   UNL     1      44.755   3.512  11.337  0.00  0.00    +0.000 C 
ATOM      9  C   UNL     1      44.593   4.427  10.122  0.00  0.00    +0.000 C 
ATOM     10  N   UNL     1      43.336   5.173  10.131  0.00  0.00    +0.000 NA
ATOM     11  C   UNL     1      43.132   5.928  11.368  0.00  0.00    +0.000 C 
ATOM     12  C   UNL     1      43.201   5.044  12.611  0.00  0.00    +0.000 C 
ATOM     13  H   UNL     1      42.565   4.519  10.013  0.00  0.00    +0.000 HD
ENDBRANCH   5   7
BRANCH   1  14
ATOM     14  C   UNL     1      47.582   8.219  12.676  0.00  0.00    +0.000 C 
ATOM     15  C   UNL     1      49.071   8.562  12.662  0.00  0.00    +0.000 C 
ATOM     16  O   UNL     1      48.376   8.213  11.472  0.00  0.00    +0.000 OA
BRANCH  14  17
ATOM     17  O   UNL     1      46.736   9.346  12.964  0.00  0.00    +0.000 OA
BRANCH  17  22
ATOM     18  C   UNL     1      43.915  10.065  10.798  0.00  0.00    +0.000 A 
ATOM     19  C   UNL     1      44.307  11.228  10.142  0.00  0.00    +0.000 A 
ATOM     20  C   UNL     1      45.574  11.767  10.386  0.00  0.00    +0.000 A 
ATOM     21  C   UNL     1      46.448  11.155  11.295  0.00  0.00    +0.000 A 
ATOM     22  C   UNL     1      46.049  10.013  11.983  0.00  0.00    +0.000 A 
ATOM     23  C   UNL     1      44.790   9.467  11.708  0.00  0.00    +0.000 A 
BRANCH  18  25
ATOM     24  C   UNL     1      41.545  10.222  10.661  0.00  0.00    +0.000 C 
ATOM     25  O   UNL     1      42.718   9.419  10.656  0.00  0.00    +0.000 OA
ENDBRANCH  18  25
ENDBRANCH  17  22
ENDBRANCH  14  17
ENDBRANCH   1  14
TORSDOF 5
ENDMDL
MODEL 6
REMARK VINA RESULT:    -5.749      2.932      4.890
REMARK INTER + INTRA:          -8.209
REMARK INTER:                  -8.041
REMARK INTRA:                  -0.167
REMARK UNBOUND:                -0.779
REMARK  Name = 
REMARK  6 active torsions:
REMARK  status: ('A' for Active; 'I' for Inactive)
REMARK    1  A    between atoms: C_1  and  O_2
REMARK    2  A    between atoms: O_2  and  C_3
REMARK    3  A    between atoms: C_7  and  O_8
REMARK    4  A    between atoms: O_8  and  C_9
REMARK    5  A    between atoms: C_9  and  C_10
REMARK    6  A    between atoms: C_14  and  C_15
REMARK                            x       y       z     vdW  Elec       q    Type
REMARK                         _______ _______ _______ _____ _____    ______ ____
ROOT
ATOM      1  C   UNL     1      47.333   5.582  13.720  0.00  0.00    +0.000 A 
ATOM      2  C   UNL     1      47.148   4.255  13.342  0.00  0.00    +0.000 A 
ATOM      3  N   UNL     1      47.235   3.187  14.175  0.00  0.00    +0.000 NA
ATOM      4  C   UNL     1      47.517   3.457  15.468  0.00  0.00    +0.000 A 
ATOM      5  C   UNL     1      47.744   4.733  15.977  0.00  0.00    +0.000 A 
ATOM      6  C   UNL     1      47.684   5.783  15.057  0.00  0.00    +0.000 A 
ENDROOT
BRANCH   5   7
ATOM      7  C   UNL     1      47.994   4.946  17.459  0.00  0.00    +0.000 C 
ATOM      8  C   UNL     1      49.216   5.836  17.750  0.00  0.00    +0.000 C 
ATOM      9  C   UNL     1      50.553   5.092  17.742  0.00  0.00    +0.000 C 
ATOM     10  N   UNL     1      50.534   3.874  18.551  0.00  0.00    +0.000 NA
ATOM     11  C   UNL     1      49.444   2.968  18.189  0.00  0.00    +0.000 C 
ATOM     12  C   UNL     1      48.075   3.641  18.262  0.00  0.00    +0.000 C 
ATOM     13  H   UNL     1      50.437   4.133  19.531  0.00  0.00    +0.000 HD
ENDBRANCH   5   7
BRANCH   1  14
ATOM     14  C   UNL     1      47.114   6.745  12.792  0.00  0.00    +0.000 C 
ATOM     15  C   UNL     1      48.063   7.936  12.907  0.00  0.00    +0.000 C 
ATOM     16  O   UNL     1      48.140   7.026  11.818  0.00  0.00    +0.000 OA
BRANCH  14  17
ATOM     17  O   UNL     1      45.752   7.119  12.518  0.00  0.00    +0.000 OA
BRANCH  17  22
ATOM     18  C   UNL     1      44.089   4.675  10.413  0.00  0.00    +0.000 A 
ATOM     19  C   UNL     1      43.097   4.165  11.244  0.00  0.00    +0.000 A 
ATOM     20  C   UNL     1      42.937   4.684  12.532  0.00  0.00    +0.000 A 
ATOM     21  C   UNL     1      43.775   5.706  13.001  0.00  0.00    +0.000 A 
ATOM     22  C   UNL     1      44.794   6.196  12.189  0.00  0.00    +0.000 A 
ATOM     23  C   UNL     1      44.925   5.687  10.893  0.00  0.00    +0.000 A 
BRANCH  18  25
ATOM     24  C   UNL     1      44.584   2.889   8.922  0.00  0.00    +0.000 C 
ATOM     25  O   UNL     1      44.359   4.277   9.134  0.00  0.00    +0.000 OA
ENDBRANCH  18  25
ENDBRANCH  17  22
ENDBRANCH  14  17
ENDBRANCH   1  14
TORSDOF 5
ENDMDL
MODEL 7
REMARK VINA RESULT:    -5.560      3.495      5.789
REMARK INTER + INTRA:          -7.964
REMARK INTER:                  -7.428
REMARK INTRA:                  -0.536
REMARK UNBOUND:                -0.779
REMARK  Name = 
REMARK  6 active torsions:
REMARK  status: ('A' for Active; 'I' for Inactive)
REMARK    1  A    between atoms: C_1  and  O_2
REMARK    2  A    between atoms: O_2  and  C_3
REMARK    3  A    between atoms: C_7  and  O_8
REMARK    4  A    between atoms: O_8  and  C_9
REMARK    5  A    between atoms: C_9  and  C_10
REMARK    6  A    between atoms: C_14  and  C_15
REMARK                            x       y       z     vdW  Elec       q    Type
REMARK                         _______ _______ _______ _____ _____    ______ ____
ROOT
ATOM      1  C   UNL     1      48.544   7.151  15.103  0.00  0.00    +0.000 A 
ATOM      2  C   UNL     1      48.424   8.352  15.798  0.00  0.00    +0.000 A 
ATOM      3  N   UNL     1      48.795   8.546  17.088  0.00  0.00    +0.000 NA
ATOM      4  C   UNL     1      49.327   7.481  17.726  0.00  0.00    +0.000 A 
ATOM      5  C   UNL     1      49.487   6.219  17.158  0.00  0.00    +0.000 A 
ATOM      6  C   UNL     1      49.043   6.076  15.841  0.00  0.00    +0.000 A 
ENDROOT
BRANCH   5   7
ATOM      7  C   UNL     1      50.152   5.097  17.933  0.00  0.00    +0.000 C 
ATOM      8  C   UNL     1      49.697   3.694  17.488  0.00  0.00    +0.000 C 
ATOM      9  C   UNL     1      48.393   3.222  18.133  0.00  0.00    +0.000 C 
ATOM     10  N   UNL     1      48.382   3.385  19.586  0.00  0.00    +0.000 NA
ATOM     11  C   UNL     1      48.693   4.751  20.006  0.00  0.00    +0.000 C 
ATOM     12  C   UNL     1      50.030   5.244  19.456  0.00  0.00    +0.000 C 
ATOM     13  H   UNL     1      49.067   2.751  19.993  0.00  0.00    +0.000 HD
ENDBRANCH   5   7
BRANCH   1  14
ATOM     14  C   UNL     1      48.228   7.008  13.639  0.00  0.00    +0.000 C 
ATOM     15  C   UNL     1      49.206   7.615  12.636  0.00  0.00    +0.000 C 
ATOM     16  O   UNL     1      49.122   6.211  12.836  0.00  0.00    +0.000 OA
BRANCH  14  17
ATOM     17  O   UNL     1      46.849   7.139  13.250  0.00  0.00    +0.000 OA
BRANCH  17  22
ATOM     18  C   UNL     1      45.467   5.051  10.625  0.00  0.00    +0.000 A 
ATOM     19  C   UNL     1      44.889   3.998  11.329  0.00  0.00    +0.000 A 
ATOM     20  C   UNL     1      44.911   4.005  12.726  0.00  0.00    +0.000 A 
ATOM     21  C   UNL     1      45.521   5.055  13.427  0.00  0.00    +0.000 A 
ATOM     22  C   UNL     1      46.134   6.092  12.730  0.00  0.00    +0.000 A 
ATOM     23  C   UNL     1      46.080   6.088  11.332  0.00  0.00    +0.000 A 
BRANCH  18  25
ATOM     24  C   UNL     1      45.128   4.061   8.489  0.00  0.00    +0.000 C 
ATOM     25  O   UNL     1      45.516   5.186   9.265  0.00  0.00    +0.000 OA
ENDBRANCH  18  25
ENDBRANCH  17  22
ENDBRANCH  14  17
ENDBRANCH   1  14
TORSDOF 5
ENDMDL
MODEL 8
REMARK VINA RESULT:    -5.554      3.829      5.843
REMARK INTER + INTRA:          -7.955
REMARK INTER:                  -7.205
REMARK INTRA:                  -0.750
REMARK UNBOUND:                -0.779
REMARK  Name = 
REMARK  6 active torsions:
REMARK  status: ('A' for Active; 'I' for Inactive)
REMARK    1  A    between atoms: C_1  and  O_2
REMARK    2  A    between atoms: O_2  and  C_3
REMARK    3  A    between atoms: C_7  and  O_8
REMARK    4  A    between atoms: O_8  and  C_9
REMARK    5  A    between atoms: C_9  and  C_10
REMARK    6  A    between atoms: C_14  and  C_15
REMARK                            x       y       z     vdW  Elec       q    Type
REMARK                         _______ _______ _______ _____ _____    ______ ____
ROOT
ATOM      1  C   UNL     1      47.961   5.372  17.385  0.00  0.00    +0.000 A 
ATOM      2  C   UNL     1      47.333   5.682  18.588  0.00  0.00    +0.000 A 
ATOM      3  N   UNL     1      47.529   6.821  19.298  0.00  0.00    +0.000 NA
ATOM      4  C   UNL     1      48.398   7.712  18.775  0.00  0.00    +0.000 A 
ATOM      5  C   UNL     1      49.108   7.522  17.592  0.00  0.00    +0.000 A 
ATOM      6  C   UNL     1      48.893   6.308  16.934  0.00  0.00    +0.000 A 
ENDROOT
BRANCH   5   7
ATOM      7  C   UNL     1      50.018   8.608  17.048  0.00  0.00    +0.000 C 
ATOM      8  C   UNL     1      49.766   9.989  17.682  0.00  0.00    +0.000 C 
ATOM      9  C   UNL     1      48.622  10.776  17.040  0.00  0.00    +0.000 C 
ATOM     10  N   UNL     1      48.713  10.831  15.582  0.00  0.00    +0.000 NA
ATOM     11  C   UNL     1      48.827   9.507  14.970  0.00  0.00    +0.000 C 
ATOM     12  C   UNL     1      50.008   8.708  15.517  0.00  0.00    +0.000 C 
ATOM     13  H   UNL     1      49.528  11.385  15.324  0.00  0.00    +0.000 HD
ENDBRANCH   5   7
BRANCH   1  14
ATOM     14  C   UNL     1      47.631   4.151  16.570  0.00  0.00    +0.000 C 
ATOM     15  C   UNL     1      47.889   2.783  17.199  0.00  0.00    +0.000 C 
ATOM     16  O   UNL     1      46.572   3.295  17.045  0.00  0.00    +0.000 OA
BRANCH  14  17
ATOM     17  O   UNL     1      47.927   4.202  15.163  0.00  0.00    +0.000 OA
BRANCH  17  22
ATOM     18  C   UNL     1      45.031   5.140  13.189  0.00  0.00    +0.000 A 
ATOM     19  C   UNL     1      45.391   6.379  12.668  0.00  0.00    +0.000 A 
ATOM     20  C   UNL     1      46.660   6.901  12.936  0.00  0.00    +0.000 A 
ATOM     21  C   UNL     1      47.569   6.195  13.736  0.00  0.00    +0.000 A 
ATOM     22  C   UNL     1      47.203   4.973  14.292  0.00  0.00    +0.000 A 
ATOM     23  C   UNL     1      45.941   4.448  13.992  0.00  0.00    +0.000 A 
BRANCH  18  25
ATOM     24  C   UNL     1      42.797   5.238  12.377  0.00  0.00    +0.000 C 
ATOM     25  O   UNL     1      43.836   4.500  13.007  0.00  0.00    +0.000 OA
ENDBRANCH  18  25
ENDBRANCH  17  22
ENDBRANCH  14  17
ENDBRANCH   1  14
TORSDOF 5
ENDMDL
MODEL 9
REMARK VINA RESULT:    -5.306      3.510      7.989
REMARK INTER + INTRA:          -7.636
REMARK INTER:                  -7.414
REMARK INTRA:                  -0.222
REMARK UNBOUND:                -0.779
REMARK  Name = 
REMARK  6 active torsions:
REMARK  status: ('A' for Active; 'I' for Inactive)
REMARK    1  A    between atoms: C_1  and  O_2
REMARK    2  A    between atoms: O_2  and  C_3
REMARK    3  A    between atoms: C_7  and  O_8
REMARK    4  A    between atoms: O_8  and  C_9
REMARK    5  A    between atoms: C_9  and  C_10
REMARK    6  A    between atoms: C_14  and  C_15
REMARK                            x       y       z     vdW  Elec       q    Type
REMARK                         _______ _______ _______ _____ _____    ______ ____
ROOT
ATOM      1  C   UNL     1      47.473   6.161  13.404  0.00  0.00    +0.000 A 
ATOM      2  C   UNL     1      47.358   5.073  14.265  0.00  0.00    +0.000 A 
ATOM      3  N   UNL     1      46.402   4.114  14.185  0.00  0.00    +0.000 NA
ATOM      4  C   UNL     1      45.507   4.240  13.182  0.00  0.00    +0.000 A 
ATOM      5  C   UNL     1      45.494   5.287  12.264  0.00  0.00    +0.000 A 
ATOM      6  C   UNL     1      46.478   6.265  12.430  0.00  0.00    +0.000 A 
ENDROOT
BRANCH   5   7
ATOM      7  C   UNL     1      44.485   5.314  11.130  0.00  0.00    +0.000 C 
ATOM      8  C   UNL     1      43.229   4.468  11.410  0.00  0.00    +0.000 C 
ATOM      9  C   UNL     1      43.387   2.981  11.091  0.00  0.00    +0.000 C 
ATOM     10  N   UNL     1      43.948   2.738   9.763  0.00  0.00    +0.000 NA
ATOM     11  C   UNL     1      45.209   3.444   9.540  0.00  0.00    +0.000 C 
ATOM     12  C   UNL     1      45.085   4.950   9.765  0.00  0.00    +0.000 C 
ATOM     13  H   UNL     1      43.273   3.039   9.062  0.00  0.00    +0.000 HD
ENDBRANCH   5   7
BRANCH   1  14
ATOM     14  C   UNL     1      48.615   7.139  13.455  0.00  0.00    +0.000 C 
ATOM     15  C   UNL     1      49.491   7.276  12.212  0.00  0.00    +0.000 C 
ATOM     16  O   UNL     1      48.557   8.282  12.578  0.00  0.00    +0.000 OA
BRANCH  14  17
ATOM     17  O   UNL     1      49.349   7.226  14.688  0.00  0.00    +0.000 OA
BRANCH  17  22
ATOM     18  C   UNL     1      48.453   7.515  18.193  0.00  0.00    +0.000 A 
ATOM     19  C   UNL     1      48.010   8.830  18.299  0.00  0.00    +0.000 A 
ATOM     20  C   UNL     1      47.955   9.637  17.158  0.00  0.00    +0.000 A 
ATOM     21  C   UNL     1      48.355   9.139  15.910  0.00  0.00    +0.000 A 
ATOM     22  C   UNL     1      48.836   7.837  15.802  0.00  0.00    +0.000 A 
ATOM     23  C   UNL     1      48.858   7.032  16.946  0.00  0.00    +0.000 A 
BRANCH  18  25
ATOM     24  C   UNL     1      47.679   6.782  20.319  0.00  0.00    +0.000 C 
ATOM     25  O   UNL     1      48.553   6.609  19.211  0.00  0.00    +0.000 OA
ENDBRANCH  18  25
ENDBRANCH  17  22
ENDBRANCH  14  17
ENDBRANCH   1  14
TORSDOF 5
ENDMDL
