MODEL 1
REMARK VINA RESULT:    -8.171      0.000      0.000
REMARK INTER + INTRA:         -11.325
REMARK INTER:                 -10.560
REMARK INTRA:                  -0.765
REMARK UNBOUND:                -0.765
REMARK  Name = 
REMARK  5 active torsions:
REMARK  status: ('A' for Active; 'I' for Inactive)
REMARK    1  A    between atoms: C_2  and  C_4
REMARK    2  A    between atoms: C_8  and  S_9
REMARK    3  A    between atoms: S_9  and  C_10
REMARK    4  A    between atoms: C_10  and  C_11
REMARK    5  A    between atoms: C_15  and  C_16
REMARK                            x       y       z     vdW  Elec       q    Type
REMARK                         _______ _______ _______ _____ _____    ______ ____
ROOT
ATOM      1  C   UNL     1      43.888   6.417  11.848  0.00  0.00    +0.000 C 
ENDROOT
BRANCH   1   2
ATOM      2  C   UNL     1      43.876   5.003  11.304  0.00  0.00    +0.000 A 
ATOM      3  C   UNL     1      43.174   3.996  11.966  0.00  0.00    +0.000 A 
ATOM      4  C   UNL     1      43.241   2.702  11.472  0.00  0.00    +0.000 A 
ATOM      5  N   UNL     1      43.965   2.339  10.389  0.00  0.00    +0.000 NA
ATOM      6  C   UNL     1      44.677   3.304   9.758  0.00  0.00    +0.000 A 
ATOM      7  C   UNL     1      44.642   4.630  10.190  0.00  0.00    +0.000 A 
BRANCH   6   8
ATOM      8  C   UNL     1      45.511   2.871   8.613  0.00  0.00    +0.000 A 
ATOM      9  C   UNL     1      45.846   3.761   7.577  0.00  0.00    +0.000 A 
ATOM     10  C   UNL     1      46.637   3.354   6.496  0.00  0.00    +0.000 A 
ATOM     11  C   UNL     1      47.109   2.047   6.426  0.00  0.00    +0.000 A 
ATOM     12  C   UNL     1      46.790   1.144   7.433  0.00  0.00    +0.000 A 
ATOM     13  C   UNL     1      45.998   1.554   8.510  0.00  0.00    +0.000 A 
ENDBRANCH   6   8
ENDBRANCH   1   2
BRANCH   1  14
ATOM     14  S   UNL     1      45.376   7.365  11.371  0.00  0.00    +0.000 S 
BRANCH  14  19
ATOM     15  C   UNL     1      47.319   5.412  14.321  0.00  0.00    +0.000 A 
ATOM     16  C   UNL     1      48.247   6.337  14.805  0.00  0.00    +0.000 A 
ATOM     17  C   UNL     1      48.312   7.612  14.238  0.00  0.00    +0.000 A 
ATOM     18  C   UNL     1      47.459   7.961  13.184  0.00  0.00    +0.000 A 
ATOM     19  C   UNL     1      46.542   7.037  12.678  0.00  0.00    +0.000 A 
ATOM     20  C   UNL     1      46.476   5.764  13.259  0.00  0.00    +0.000 A 
BRANCH  15  22
ATOM     21  N   UNL     1      46.901   3.917  16.203  0.00  0.00    +0.000 N 
ATOM     22  C   UNL     1      47.206   4.038  14.874  0.00  0.00    +0.000 C 
ATOM     23  O   UNL     1      47.341   3.045  14.171  0.00  0.00    +0.000 OA
ATOM     24  H   UNL     1      46.712   2.978  16.528  0.00  0.00    +0.000 HD
ATOM     25  H   UNL     1      46.522   4.684  16.740  0.00  0.00    +0.000 HD
ENDBRANCH  15  22
ENDBRANCH  14  19
ENDBRANCH   1  14
TORSDOF 5
ENDMDL
MODEL 2
REMARK VINA RESULT:    -7.707      3.182      3.899
REMARK INTER + INTRA:         -10.725
REMARK INTER:                  -9.992
REMARK INTRA:                  -0.733
REMARK UNBOUND:                -0.765
REMARK  Name = 
REMARK  5 active torsions:
REMARK  status: ('A' for Active; 'I' for Inactive)
REMARK    1  A    between atoms: C_2  and  C_4
REMARK    2  A    between atoms: C_8  and  S_9
REMARK    3  A    between atoms: S_9  and  C_10
REMARK    4  A    between atoms: C_10  and  C_11
REMARK    5  A    between atoms: C_15  and  C_16
REMARK                            x       y       z     vdW  Elec       q    Type
REMARK                         _______ _______ _______ _____ _____    ______ ____
ROOT
ATOM      1  C   UNL     1      44.819   5.871  12.784  0.00  0.00    +0.000 C 
ENDROOT
BRANCH   1   2
ATOM      2  C   UNL     1      44.458   4.688  11.910  0.00  0.00    +0.000 A 
ATOM      3  C   UNL     1      43.484   3.777  12.319  0.00  0.00    +0.000 A 
ATOM      4  C   UNL     1      43.229   2.672  11.521  0.00  0.00    +0.000 A 
ATOM      5  N   UNL     1      43.880   2.401  10.368  0.00  0.00    +0.000 NA
ATOM      6  C   UNL     1      44.852   3.261   9.978  0.00  0.00    +0.000 A 
ATOM      7  C   UNL     1      45.149   4.403  10.724  0.00  0.00    +0.000 A 
BRANCH   6   8
ATOM      8  C   UNL     1      45.594   2.911   8.746  0.00  0.00    +0.000 A 
ATOM      9  C   UNL     1      45.889   3.880   7.771  0.00  0.00    +0.000 A 
ATOM     10  C   UNL     1      46.594   3.550   6.607  0.00  0.00    +0.000 A 
ATOM     11  C   UNL     1      47.017   2.242   6.391  0.00  0.00    +0.000 A 
ATOM     12  C   UNL     1      46.736   1.262   7.335  0.00  0.00    +0.000 A 
ATOM     13  C   UNL     1      46.030   1.595   8.496  0.00  0.00    +0.000 A 
ENDBRANCH   6   8
ENDBRANCH   1   2
BRANCH   1  14
ATOM     14  S   UNL     1      46.534   6.454  12.542  0.00  0.00    +0.000 S 
BRANCH  14  19
ATOM     15  C   UNL     1      44.843   9.964  11.485  0.00  0.00    +0.000 A 
ATOM     16  C   UNL     1      45.886  10.890  11.546  0.00  0.00    +0.000 A 
ATOM     17  C   UNL     1      47.164  10.469  11.920  0.00  0.00    +0.000 A 
ATOM     18  C   UNL     1      47.401   9.127  12.238  0.00  0.00    +0.000 A 
ATOM     19  C   UNL     1      46.361   8.195  12.200  0.00  0.00    +0.000 A 
ATOM     20  C   UNL     1      45.084   8.624  11.815  0.00  0.00    +0.000 A 
BRANCH  15  22
ATOM     21  N   UNL     1      42.647  10.839  12.090  0.00  0.00    +0.000 N 
ATOM     22  C   UNL     1      43.460  10.350  11.104  0.00  0.00    +0.000 C 
ATOM     23  O   UNL     1      43.063  10.272   9.947  0.00  0.00    +0.000 OA
ATOM     24  H   UNL     1      41.755  11.205  11.784  0.00  0.00    +0.000 HD
ATOM     25  H   UNL     1      43.011  11.167  12.973  0.00  0.00    +0.000 HD
ENDBRANCH  15  22
ENDBRANCH  14  19
ENDBRANCH   1  14
TORSDOF 5
ENDMDL
MODEL 3
REMARK VINA RESULT:    -7.620      1.882      2.498
REMARK INTER + INTRA:         -10.613
REMARK INTER:                  -9.839
REMARK INTRA:                  -0.774
REMARK UNBOUND:                -0.765
REMARK  Name = 
REMARK  5 active torsions:
REMARK  status: ('A' for Active; 'I' for Inactive)
REMARK    1  A    between atoms: C_2  and  C_4
REMARK    2  A    between atoms: C_8  and  S_9
REMARK    3  A    between atoms: S_9  and  C_10
REMARK    4  A    between atoms: C_10  and  C_11
REMARK    5  A    between atoms: C_15  and  C_16
REMARK                            x       y       z     vdW  Elec       q    Type
REMARK                         _______ _______ _______ _____ _____    ______ ____
ROOT
ATOM      1  C   UNL     1      43.199   6.242  11.437  0.00  0.00    +0.000 C 
ENDROOT
BRANCH   1   2
ATOM      2  C   UNL     1      43.470   4.810  11.023  0.00  0.00    +0.000 A 
ATOM      3  C   UNL     1      42.995   3.749  11.794  0.00  0.00    +0.000 A 
ATOM      4  C   UNL     1      43.319   2.455  11.416  0.00  0.00    +0.000 A 
ATOM      5  N   UNL     1      44.090   2.145  10.350  0.00  0.00    +0.000 NA
ATOM      6  C   UNL     1      44.585   3.169   9.614  0.00  0.00    +0.000 A 
ATOM      7  C   UNL     1      44.284   4.496   9.926  0.00  0.00    +0.000 A 
BRANCH   6   8
ATOM      8  C   UNL     1      45.478   2.809   8.489  0.00  0.00    +0.000 A 
ATOM      9  C   UNL     1      46.068   1.536   8.406  0.00  0.00    +0.000 A 
ATOM     10  C   UNL     1      46.911   1.192   7.342  0.00  0.00    +0.000 A 
ATOM     11  C   UNL     1      47.183   2.116   6.337  0.00  0.00    +0.000 A 
ATOM     12  C   UNL     1      46.617   3.384   6.396  0.00  0.00    +0.000 A 
ATOM     13  C   UNL     1      45.778   3.724   7.461  0.00  0.00    +0.000 A 
ENDBRANCH   6   8
ENDBRANCH   1   2
BRANCH   1  14
ATOM     14  S   UNL     1      44.617   7.359  11.152  0.00  0.00    +0.000 S 
BRANCH  14  19
ATOM     15  C   UNL     1      48.268   6.781  12.773  0.00  0.00    +0.000 A 
ATOM     16  C   UNL     1      48.065   5.822  13.768  0.00  0.00    +0.000 A 
ATOM     17  C   UNL     1      46.783   5.310  13.983  0.00  0.00    +0.000 A 
ATOM     18  C   UNL     1      45.704   5.759  13.211  0.00  0.00    +0.000 A 
ATOM     19  C   UNL     1      45.892   6.732  12.227  0.00  0.00    +0.000 A 
ATOM     20  C   UNL     1      47.183   7.233  12.012  0.00  0.00    +0.000 A 
BRANCH  15  22
ATOM     21  N   UNL     1      50.426   7.593  13.572  0.00  0.00    +0.000 N 
ATOM     22  C   UNL     1      49.604   7.371  12.501  0.00  0.00    +0.000 C 
ATOM     23  O   UNL     1      49.981   7.619  11.362  0.00  0.00    +0.000 OA
ATOM     24  H   UNL     1      51.370   7.881  13.351  0.00  0.00    +0.000 HD
ATOM     25  H   UNL     1      50.266   7.161  14.471  0.00  0.00    +0.000 HD
ENDBRANCH  15  22
ENDBRANCH  14  19
ENDBRANCH   1  14
TORSDOF 5
ENDMDL
MODEL 4
REMARK VINA RESULT:    -7.528      2.729      3.208
REMARK INTER + INTRA:         -10.493
REMARK INTER:                  -9.882
REMARK INTRA:                  -0.611
REMARK UNBOUND:                -0.765
REMARK  Name = 
REMARK  5 active torsions:
REMARK  status: ('A' for Active; 'I' for Inactive)
REMARK    1  A    between atoms: C_2  and  C_4
REMARK    2  A    between atoms: C_8  and  S_9
REMARK    3  A    between atoms: S_9  and  C_10
REMARK    4  A    between atoms: C_10  and  C_11
REMARK    5  A    between atoms: C_15  and  C_16
REMARK                            x       y       z     vdW  Elec       q    Type
REMARK                         _______ _______ _______ _____ _____    ______ ____
ROOT
ATOM      1  C   UNL     1      44.524   6.446  11.697  0.00  0.00    +0.000 C 
ENDROOT
BRANCH   1   2
ATOM      2  C   UNL     1      44.327   5.065  11.104  0.00  0.00    +0.000 A 
ATOM      3  C   UNL     1      43.481   4.144  11.721  0.00  0.00    +0.000 A 
ATOM      4  C   UNL     1      43.378   2.870  11.184  0.00  0.00    +0.000 A 
ATOM      5  N   UNL     1      44.066   2.445  10.101  0.00  0.00    +0.000 NA
ATOM      6  C   UNL     1      44.917   3.320   9.513  0.00  0.00    +0.000 A 
ATOM      7  C   UNL     1      45.056   4.625   9.990  0.00  0.00    +0.000 A 
BRANCH   6   8
ATOM      8  C   UNL     1      45.706   2.813   8.367  0.00  0.00    +0.000 A 
ATOM      9  C   UNL     1      46.020   3.641   7.275  0.00  0.00    +0.000 A 
ATOM     10  C   UNL     1      46.768   3.163   6.192  0.00  0.00    +0.000 A 
ATOM     11  C   UNL     1      47.217   1.846   6.177  0.00  0.00    +0.000 A 
ATOM     12  C   UNL     1      46.917   1.004   7.241  0.00  0.00    +0.000 A 
ATOM     13  C   UNL     1      46.168   1.484   8.319  0.00  0.00    +0.000 A 
ENDBRANCH   6   8
ENDBRANCH   1   2
BRANCH   1  14
ATOM     14  S   UNL     1      45.917   6.537  12.875  0.00  0.00    +0.000 S 
BRANCH  14  19
ATOM     15  C   UNL     1      49.028   8.854  11.759  0.00  0.00    +0.000 A 
ATOM     16  C   UNL     1      48.480  10.130  11.604  0.00  0.00    +0.000 A 
ATOM     17  C   UNL     1      47.118  10.330  11.839  0.00  0.00    +0.000 A 
ATOM     18  C   UNL     1      46.301   9.259  12.220  0.00  0.00    +0.000 A 
ATOM     19  C   UNL     1      46.835   7.975  12.358  0.00  0.00    +0.000 A 
ATOM     20  C   UNL     1      48.204   7.785  12.131  0.00  0.00    +0.000 A 
BRANCH  15  22
ATOM     21  N   UNL     1      50.828   7.272  11.300  0.00  0.00    +0.000 N 
ATOM     22  C   UNL     1      50.466   8.574  11.517  0.00  0.00    +0.000 C 
ATOM     23  O   UNL     1      51.301   9.470  11.474  0.00  0.00    +0.000 OA
ATOM     24  H   UNL     1      51.788   7.122  11.019  0.00  0.00    +0.000 HD
ATOM     25  H   UNL     1      50.153   6.560  11.061  0.00  0.00    +0.000 HD
ENDBRANCH  15  22
ENDBRANCH  14  19
ENDBRANCH   1  14
TORSDOF 5
ENDMDL
MODEL 5
REMARK VINA RESULT:    -7.488      3.862      4.971
REMARK INTER + INTRA:         -10.442
REMARK INTER:                  -9.858
REMARK INTRA:                  -0.584
REMARK UNBOUND:                -0.765
REMARK  Name = 
REMARK  5 active torsions:
REMARK  status: ('A' for Active; 'I' for Inactive)
REMARK    1  A    between atoms: C_2  and  C_4
REMARK    2  A    between atoms: C_8  and  S_9
REMARK    3  A    between atoms: S_9  and  C_10
REMARK    4  A    between atoms: C_10  and  C_11
REMARK    5  A    between atoms: C_15  and  C_16
REMARK                            x       y       z     vdW  Elec       q    Type
REMARK                         _______ _______ _______ _____ _____    ______ ____
ROOT
ATOM      1  C   UNL     1      43.377   6.465  11.330  0.00  0.00    +0.000 C 
ENDROOT
BRANCH   1   2
ATOM      2  C   UNL     1      43.581   5.009  10.961  0.00  0.00    +0.000 A 
ATOM      3  C   UNL     1      43.058   3.996  11.764  0.00  0.00    +0.000 A 
ATOM      4  C   UNL     1      43.321   2.677  11.427  0.00  0.00    +0.000 A 
ATOM      5  N   UNL     1      44.077   2.299  10.372  0.00  0.00    +0.000 NA
ATOM      6  C   UNL     1      44.619   3.276   9.605  0.00  0.00    +0.000 A 
ATOM      7  C   UNL     1      44.380   4.624   9.876  0.00  0.00    +0.000 A 
BRANCH   6   8
ATOM      8  C   UNL     1      45.494   2.840   8.493  0.00  0.00    +0.000 A 
ATOM      9  C   UNL     1      45.890   3.733   7.483  0.00  0.00    +0.000 A 
ATOM     10  C   UNL     1      46.721   3.323   6.433  0.00  0.00    +0.000 A 
ATOM     11  C   UNL     1      47.171   2.008   6.369  0.00  0.00    +0.000 A 
ATOM     12  C   UNL     1      46.792   1.101   7.351  0.00  0.00    +0.000 A 
ATOM     13  C   UNL     1      45.961   1.514   8.397  0.00  0.00    +0.000 A 
ENDBRANCH   6   8
ENDBRANCH   1   2
BRANCH   1  14
ATOM     14  S   UNL     1      44.937   7.408  11.447  0.00  0.00    +0.000 S 
BRANCH  14  19
ATOM     15  C   UNL     1      42.629  10.642  10.734  0.00  0.00    +0.000 A 
ATOM     16  C   UNL     1      43.445  11.733  11.044  0.00  0.00    +0.000 A 
ATOM     17  C   UNL     1      44.751  11.515  11.488  0.00  0.00    +0.000 A 
ATOM     18  C   UNL     1      45.241  10.212  11.631  0.00  0.00    +0.000 A 
ATOM     19  C   UNL     1      44.427   9.113  11.345  0.00  0.00    +0.000 A 
ATOM     20  C   UNL     1      43.122   9.341  10.890  0.00  0.00    +0.000 A 
BRANCH  15  22
ATOM     21  N   UNL     1      40.279   9.990  10.817  0.00  0.00    +0.000 N 
ATOM     22  C   UNL     1      41.230  10.806  10.265  0.00  0.00    +0.000 C 
ATOM     23  O   UNL     1      40.919  11.661   9.444  0.00  0.00    +0.000 OA
ATOM     24  H   UNL     1      39.321  10.201  10.572  0.00  0.00    +0.000 HD
ATOM     25  H   UNL     1      40.442   9.476  11.671  0.00  0.00    +0.000 HD
ENDBRANCH  15  22
ENDBRANCH  14  19
ENDBRANCH   1  14
TORSDOF 5
ENDMDL
MODEL 6
REMARK VINA RESULT:    -7.472      3.055      3.678
REMARK INTER + INTRA:         -10.422
REMARK INTER:                  -9.785
REMARK INTRA:                  -0.637
REMARK UNBOUND:                -0.765
REMARK  Name = 
REMARK  5 active torsions:
REMARK  status: ('A' for Active; 'I' for Inactive)
REMARK    1  A    between atoms: C_2  and  C_4
REMARK    2  A    between atoms: C_8  and  S_9
REMARK    3  A    between atoms: S_9  and  C_10
REMARK    4  A    between atoms: C_10  and  C_11
REMARK    5  A    between atoms: C_15  and  C_16
REMARK                            x       y       z     vdW  Elec       q    Type
REMARK                         _______ _______ _______ _____ _____    ______ ____
ROOT
ATOM      1  C   UNL     1      44.528   6.303  11.900  0.00  0.00    +0.000 C 
ENDROOT
BRANCH   1   2
ATOM      2  C   UNL     1      44.314   4.957  11.238  0.00  0.00    +0.000 A 
ATOM      3  C   UNL     1      43.434   4.027  11.792  0.00  0.00    +0.000 A 
ATOM      4  C   UNL     1      43.315   2.783  11.191  0.00  0.00    +0.000 A 
ATOM      5  N   UNL     1      44.016   2.395  10.103  0.00  0.00    +0.000 NA
ATOM      6  C   UNL     1      44.899   3.278   9.576  0.00  0.00    +0.000 A 
ATOM      7  C   UNL     1      45.057   4.554  10.119  0.00  0.00    +0.000 A 
BRANCH   6   8
ATOM      8  C   UNL     1      45.701   2.808   8.424  0.00  0.00    +0.000 A 
ATOM      9  C   UNL     1      46.029   3.670   7.363  0.00  0.00    +0.000 A 
ATOM     10  C   UNL     1      46.790   3.229   6.274  0.00  0.00    +0.000 A 
ATOM     11  C   UNL     1      47.237   1.912   6.221  0.00  0.00    +0.000 A 
ATOM     12  C   UNL     1      46.924   1.035   7.252  0.00  0.00    +0.000 A 
ATOM     13  C   UNL     1      46.162   1.480   8.337  0.00  0.00    +0.000 A 
ENDBRANCH   6   8
ENDBRANCH   1   2
BRANCH   1  14
ATOM     14  S   UNL     1      45.927   6.317  13.075  0.00  0.00    +0.000 S 
BRANCH  14  19
ATOM     15  C   UNL     1      47.009   9.967  11.733  0.00  0.00    +0.000 A 
ATOM     16  C   UNL     1      48.390   9.877  11.542  0.00  0.00    +0.000 A 
ATOM     17  C   UNL     1      49.050   8.679  11.821  0.00  0.00    +0.000 A 
ATOM     18  C   UNL     1      48.336   7.573  12.297  0.00  0.00    +0.000 A 
ATOM     19  C   UNL     1      46.959   7.657  12.512  0.00  0.00    +0.000 A 
ATOM     20  C   UNL     1      46.303   8.860  12.219  0.00  0.00    +0.000 A 
BRANCH  15  22
ATOM     21  N   UNL     1      45.070  11.393  12.132  0.00  0.00    +0.000 N 
ATOM     22  C   UNL     1      46.251  11.215  11.463  0.00  0.00    +0.000 C 
ATOM     23  O   UNL     1      46.673  12.076  10.701  0.00  0.00    +0.000 OA
ATOM     24  H   UNL     1      44.634  12.299  12.024  0.00  0.00    +0.000 HD
ATOM     25  H   UNL     1      44.829  10.852  12.951  0.00  0.00    +0.000 HD
ENDBRANCH  15  22
ENDBRANCH  14  19
ENDBRANCH   1  14
TORSDOF 5
ENDMDL
MODEL 7
REMARK VINA RESULT:    -7.383      2.163      2.625
REMARK INTER + INTRA:         -10.306
REMARK INTER:                  -9.593
REMARK INTRA:                  -0.713
REMARK UNBOUND:                -0.765
REMARK  Name = 
REMARK  5 active torsions:
REMARK  status: ('A' for Active; 'I' for Inactive)
REMARK    1  A    between atoms: C_2  and  C_4
REMARK    2  A    between atoms: C_8  and  S_9
REMARK    3  A    between atoms: S_9  and  C_10
REMARK    4  A    between atoms: C_10  and  C_11
REMARK    5  A    between atoms: C_15  and  C_16
REMARK                            x       y       z     vdW  Elec       q    Type
REMARK                         _______ _______ _______ _____ _____    ______ ____
ROOT
ATOM      1  C   UNL     1      44.781   6.137  12.760  0.00  0.00    +0.000 C 
ENDROOT
BRANCH   1   2
ATOM      2  C   UNL     1      44.424   4.924  11.924  0.00  0.00    +0.000 A 
ATOM      3  C   UNL     1      43.452   4.025  12.362  0.00  0.00    +0.000 A 
ATOM      4  C   UNL     1      43.200   2.894  11.600  0.00  0.00    +0.000 A 
ATOM      5  N   UNL     1      43.854   2.587  10.457  0.00  0.00    +0.000 NA
ATOM      6  C   UNL     1      44.824   3.436  10.040  0.00  0.00    +0.000 A 
ATOM      7  C   UNL     1      45.117   4.603  10.749  0.00  0.00    +0.000 A 
BRANCH   6   8
ATOM      8  C   UNL     1      45.569   3.048   8.822  0.00  0.00    +0.000 A 
ATOM      9  C   UNL     1      45.935   1.711   8.585  0.00  0.00    +0.000 A 
ATOM     10  C   UNL     1      46.637   1.341   7.432  0.00  0.00    +0.000 A 
ATOM     11  C   UNL     1      46.991   2.302   6.489  0.00  0.00    +0.000 A 
ATOM     12  C   UNL     1      46.648   3.632   6.699  0.00  0.00    +0.000 A 
ATOM     13  C   UNL     1      45.948   3.997   7.853  0.00  0.00    +0.000 A 
ENDBRANCH   6   8
ENDBRANCH   1   2
BRANCH   1  14
ATOM     14  S   UNL     1      45.442   7.526  11.775  0.00  0.00    +0.000 S 
BRANCH  14  19
ATOM     15  C   UNL     1      48.607   8.326  14.148  0.00  0.00    +0.000 A 
ATOM     16  C   UNL     1      49.722   8.066  13.349  0.00  0.00    +0.000 A 
ATOM     17  C   UNL     1      49.544   7.629  12.034  0.00  0.00    +0.000 A 
ATOM     18  C   UNL     1      48.255   7.445  11.519  0.00  0.00    +0.000 A 
ATOM     19  C   UNL     1      47.133   7.683  12.316  0.00  0.00    +0.000 A 
ATOM     20  C   UNL     1      47.321   8.131  13.631  0.00  0.00    +0.000 A 
BRANCH  15  22
ATOM     21  N   UNL     1      47.629   9.361  16.130  0.00  0.00    +0.000 N 
ATOM     22  C   UNL     1      48.730   8.785  15.556  0.00  0.00    +0.000 C 
ATOM     23  O   UNL     1      49.760   8.625  16.200  0.00  0.00    +0.000 OA
ATOM     24  H   UNL     1      47.699   9.554  17.120  0.00  0.00    +0.000 HD
ATOM     25  H   UNL     1      46.705   9.265  15.735  0.00  0.00    +0.000 HD
ENDBRANCH  15  22
ENDBRANCH  14  19
ENDBRANCH   1  14
TORSDOF 5
ENDMDL
MODEL 8
REMARK VINA RESULT:    -7.124      2.715      7.633
REMARK INTER + INTRA:          -9.971
REMARK INTER:                  -9.310
REMARK INTRA:                  -0.662
REMARK UNBOUND:                -0.765
REMARK  Name = 
REMARK  5 active torsions:
REMARK  status: ('A' for Active; 'I' for Inactive)
REMARK    1  A    between atoms: C_2  and  C_4
REMARK    2  A    between atoms: C_8  and  S_9
REMARK    3  A    between atoms: S_9  and  C_10
REMARK    4  A    between atoms: C_10  and  C_11
REMARK    5  A    between atoms: C_15  and  C_16
REMARK                            x       y       z     vdW  Elec       q    Type
REMARK                         _______ _______ _______ _____ _____    ______ ____
ROOT
ATOM      1  C   UNL     1      44.767   5.145  11.647  0.00  0.00    +0.000 C 
ENDROOT
BRANCH   1   2
ATOM      2  C   UNL     1      45.972   5.574  12.460  0.00  0.00    +0.000 A 
ATOM      3  C   UNL     1      46.920   6.441  11.916  0.00  0.00    +0.000 A 
ATOM      4  C   UNL     1      48.041   6.758  12.668  0.00  0.00    +0.000 A 
ATOM      5  N   UNL     1      48.293   6.265  13.900  0.00  0.00    +0.000 NA
ATOM      6  C   UNL     1      47.395   5.395  14.425  0.00  0.00    +0.000 A 
ATOM      7  C   UNL     1      46.236   5.046  13.731  0.00  0.00    +0.000 A 
BRANCH   6   8
ATOM      8  C   UNL     1      47.724   4.819  15.749  0.00  0.00    +0.000 A 
ATOM      9  C   UNL     1      48.489   5.534  16.686  0.00  0.00    +0.000 A 
ATOM     10  C   UNL     1      48.798   4.992  17.940  0.00  0.00    +0.000 A 
ATOM     11  C   UNL     1      48.350   3.720  18.282  0.00  0.00    +0.000 A 
ATOM     12  C   UNL     1      47.595   2.988  17.374  0.00  0.00    +0.000 A 
ATOM     13  C   UNL     1      47.290   3.532  16.122  0.00  0.00    +0.000 A 
ENDBRANCH   6   8
ENDBRANCH   1   2
BRANCH   1  14
ATOM     14  S   UNL     1      44.981   5.393   9.849  0.00  0.00    +0.000 S 
BRANCH  14  19
ATOM     15  C   UNL     1      46.481   2.425   7.562  0.00  0.00    +0.000 A 
ATOM     16  C   UNL     1      45.839   1.271   8.016  0.00  0.00    +0.000 A 
ATOM     17  C   UNL     1      44.910   1.360   9.055  0.00  0.00    +0.000 A 
ATOM     18  C   UNL     1      44.626   2.597   9.645  0.00  0.00    +0.000 A 
ATOM     19  C   UNL     1      45.277   3.755   9.213  0.00  0.00    +0.000 A 
ATOM     20  C   UNL     1      46.200   3.658   8.163  0.00  0.00    +0.000 A 
BRANCH  15  22
ATOM     21  N   UNL     1      47.309   3.268   5.427  0.00  0.00    +0.000 N 
ATOM     22  C   UNL     1      47.484   2.396   6.467  0.00  0.00    +0.000 C 
ATOM     23  O   UNL     1      48.456   1.651   6.501  0.00  0.00    +0.000 OA
ATOM     24  H   UNL     1      48.065   3.313   4.757  0.00  0.00    +0.000 HD
ATOM     25  H   UNL     1      46.692   4.065   5.492  0.00  0.00    +0.000 HD
ENDBRANCH  15  22
ENDBRANCH  14  19
ENDBRANCH   1  14
TORSDOF 5
ENDMDL
MODEL 9
REMARK VINA RESULT:    -6.642      2.387      7.422
REMARK INTER + INTRA:          -9.349
REMARK INTER:                  -8.509
REMARK INTRA:                  -0.840
REMARK UNBOUND:                -0.765
REMARK  Name = 
REMARK  5 active torsions:
REMARK  status: ('A' for Active; 'I' for Inactive)
REMARK    1  A    between atoms: C_2  and  C_4
REMARK    2  A    between atoms: C_8  and  S_9
REMARK    3  A    between atoms: S_9  and  C_10
REMARK    4  A    between atoms: C_10  and  C_11
REMARK    5  A    between atoms: C_15  and  C_16
REMARK                            x       y       z     vdW  Elec       q    Type
REMARK                         _______ _______ _______ _____ _____    ______ ____
ROOT
ATOM      1  C   UNL     1      47.107   7.008  11.725  0.00  0.00    +0.000 C 
ENDROOT
BRANCH   1   2
ATOM      2  C   UNL     1      47.991   6.992  12.955  0.00  0.00    +0.000 A 
ATOM      3  C   UNL     1      49.148   7.770  13.004  0.00  0.00    +0.000 A 
ATOM      4  C   UNL     1      49.965   7.678  14.121  0.00  0.00    +0.000 A 
ATOM      5  N   UNL     1      49.726   6.862  15.171  0.00  0.00    +0.000 NA
ATOM      6  C   UNL     1      48.623   6.077  15.120  0.00  0.00    +0.000 A 
ATOM      7  C   UNL     1      47.747   6.132  14.034  0.00  0.00    +0.000 A 
BRANCH   6   8
ATOM      8  C   UNL     1      48.416   5.146  16.252  0.00  0.00    +0.000 A 
ATOM      9  C   UNL     1      47.456   4.121  16.187  0.00  0.00    +0.000 A 
ATOM     10  C   UNL     1      47.261   3.238  17.256  0.00  0.00    +0.000 A 
ATOM     11  C   UNL     1      48.020   3.363  18.415  0.00  0.00    +0.000 A 
ATOM     12  C   UNL     1      48.972   4.371  18.510  0.00  0.00    +0.000 A 
ATOM     13  C   UNL     1      49.163   5.252  17.441  0.00  0.00    +0.000 A 
ENDBRANCH   6   8
ENDBRANCH   1   2
BRANCH   1  14
ATOM     14  S   UNL     1      45.333   7.217  12.111  0.00  0.00    +0.000 S 
BRANCH  14  19
ATOM     15  C   UNL     1      44.346   3.672  10.452  0.00  0.00    +0.000 A 
ATOM     16  C   UNL     1      43.601   3.017  11.436  0.00  0.00    +0.000 A 
ATOM     17  C   UNL     1      43.371   3.646  12.661  0.00  0.00    +0.000 A 
ATOM     18  C   UNL     1      43.888   4.923  12.909  0.00  0.00    +0.000 A 
ATOM     19  C   UNL     1      44.651   5.579  11.940  0.00  0.00    +0.000 A 
ATOM     20  C   UNL     1      44.869   4.945  10.710  0.00  0.00    +0.000 A 
BRANCH  15  22
ATOM     21  N   UNL     1      44.849   1.704   9.101  0.00  0.00    +0.000 N 
ATOM     22  C   UNL     1      44.633   3.055   9.132  0.00  0.00    +0.000 C 
ATOM     23  O   UNL     1      44.643   3.714   8.099  0.00  0.00    +0.000 OA
ATOM     24  H   UNL     1      44.923   1.290   8.181  0.00  0.00    +0.000 HD
ATOM     25  H   UNL     1      44.586   1.100   9.866  0.00  0.00    +0.000 HD
ENDBRANCH  15  22
ENDBRANCH  14  19
ENDBRANCH   1  14
TORSDOF 5
ENDMDL
