MODEL 1
REMARK VINA RESULT:    -7.110      0.000      0.000
REMARK INTER + INTRA:          -9.361
REMARK INTER:                  -8.980
REMARK INTRA:                  -0.381
REMARK UNBOUND:                -0.381
REMARK  Name = 
REMARK  5 active torsions:
REMARK  status: ('A' for Active; 'I' for Inactive)
REMARK    1  A    between atoms: N_1  and  C_2
REMARK    2  A    between atoms: C_2  and  C_3
REMARK    3  A    between atoms: N_8  and  C_9
REMARK    4  A    between atoms: C_9  and  C_10
REMARK    5  A    between atoms: C_10  and  C_11
REMARK                            x       y       z     vdW  Elec       q    Type
REMARK                         _______ _______ _______ _____ _____    ______ ____
ROOT
ATOM      1  C   UNL     1      46.958   5.440  13.678  0.00  0.00    +0.000 A 
ATOM      2  C   UNL     1      47.644   6.649  13.707  0.00  0.00    +0.000 A 
ATOM      3  C   UNL     1      47.558   7.470  12.595  0.00  0.00    +0.000 A 
ATOM      4  N   UNL     1      46.850   7.175  11.478  0.00  0.00    +0.000 NA
ATOM      5  C   UNL     1      46.180   6.008  11.450  0.00  0.00    +0.000 A 
ATOM      6  N   UNL     1      45.457   5.741  10.308  0.00  0.00    +0.000 N 
ATOM      7  C   UNL     1      46.218   5.134  12.532  0.00  0.00    +0.000 A 
ATOM      8  H   UNL     1      45.543   6.438   9.578  0.00  0.00    +0.000 HD
ENDROOT
BRANCH   1   9
ATOM      9  C   UNL     1      46.977   4.475  14.830  0.00  0.00    +0.000 C 
BRANCH   9  10
ATOM     10  N   UNL     1      47.384   3.142  14.398  0.00  0.00    +0.000 NA
ATOM     11  H   UNL     1      47.853   2.666  15.165  0.00  0.00    +0.000 HD
ATOM     12  H   UNL     1      48.068   3.232  13.648  0.00  0.00    +0.000 HD
ENDBRANCH   9  10
ENDBRANCH   1   9
BRANCH   6  13
ATOM     13  C   UNL     1      44.727   4.505  10.128  0.00  0.00    +0.000 C 
BRANCH  13  14
ATOM     14  C   UNL     1      44.412   4.207   8.663  0.00  0.00    +0.000 C 
BRANCH  14  15
ATOM     15  C   UNL     1      45.352   3.148   8.130  0.00  0.00    +0.000 A 
ATOM     16  C   UNL     1      45.430   1.891   8.748  0.00  0.00    +0.000 A 
ATOM     17  C   UNL     1      46.261   0.895   8.233  0.00  0.00    +0.000 A 
ATOM     18  C   UNL     1      47.022   1.140   7.089  0.00  0.00    +0.000 A 
ATOM     19  C   UNL     1      46.942   2.382   6.463  0.00  0.00    +0.000 A 
ATOM     20 CL   UNL     1      47.869   2.681   5.044  0.00  0.00    +0.000 Cl
ATOM     21  C   UNL     1      46.111   3.382   6.972  0.00  0.00    +0.000 A 
ENDBRANCH  14  15
ENDBRANCH  13  14
ENDBRANCH   6  13
TORSDOF 5
ENDMDL
MODEL 2
REMARK VINA RESULT:    -7.085      1.797      2.977
REMARK INTER + INTRA:          -9.330
REMARK INTER:                  -9.561
REMARK INTRA:                   0.231
REMARK UNBOUND:                -0.381
REMARK  Name = 
REMARK  5 active torsions:
REMARK  status: ('A' for Active; 'I' for Inactive)
REMARK    1  A    between atoms: N_1  and  C_2
REMARK    2  A    between atoms: C_2  and  C_3
REMARK    3  A    between atoms: N_8  and  C_9
REMARK    4  A    between atoms: C_9  and  C_10
REMARK    5  A    between atoms: C_10  and  C_11
REMARK                            x       y       z     vdW  Elec       q    Type
REMARK                         _______ _______ _______ _____ _____    ______ ____
ROOT
ATOM      1  C   UNL     1      45.629   6.168  12.559  0.00  0.00    +0.000 A 
ATOM      2  C   UNL     1      46.470   5.883  13.628  0.00  0.00    +0.000 A 
ATOM      3  C   UNL     1      46.728   4.553  13.915  0.00  0.00    +0.000 A 
ATOM      4  N   UNL     1      46.216   3.508  13.222  0.00  0.00    +0.000 NA
ATOM      5  C   UNL     1      45.407   3.780  12.182  0.00  0.00    +0.000 A 
ATOM      6  N   UNL     1      44.912   2.698  11.488  0.00  0.00    +0.000 N 
ATOM      7  C   UNL     1      45.105   5.093  11.834  0.00  0.00    +0.000 A 
ATOM      8  H   UNL     1      45.173   1.795  11.864  0.00  0.00    +0.000 HD
ENDROOT
BRANCH   1   9
ATOM      9  C   UNL     1      45.284   7.575  12.156  0.00  0.00    +0.000 C 
BRANCH   9  10
ATOM     10  N   UNL     1      44.048   7.616  11.382  0.00  0.00    +0.000 NA
ATOM     11  H   UNL     1      43.807   8.584  11.183  0.00  0.00    +0.000 HD
ATOM     12  H   UNL     1      43.290   7.237  11.948  0.00  0.00    +0.000 HD
ENDBRANCH   9  10
ENDBRANCH   1   9
BRANCH   6  13
ATOM     13  C   UNL     1      43.997   2.847  10.376  0.00  0.00    +0.000 C 
BRANCH  13  14
ATOM     14  C   UNL     1      44.523   3.789   9.294  0.00  0.00    +0.000 C 
BRANCH  14  15
ATOM     15  C   UNL     1      45.535   3.076   8.425  0.00  0.00    +0.000 A 
ATOM     16  C   UNL     1      46.422   3.808   7.621  0.00  0.00    +0.000 A 
ATOM     17  C   UNL     1      47.388   3.157   6.852  0.00  0.00    +0.000 A 
ATOM     18  C   UNL     1      47.485   1.766   6.881  0.00  0.00    +0.000 A 
ATOM     19  C   UNL     1      46.615   1.032   7.685  0.00  0.00    +0.000 A 
ATOM     20 CL   UNL     1      46.742  -0.684   7.732  0.00  0.00    +0.000 Cl
ATOM     21  C   UNL     1      45.648   1.677   8.458  0.00  0.00    +0.000 A 
ENDBRANCH  14  15
ENDBRANCH  13  14
ENDBRANCH   6  13
TORSDOF 5
ENDMDL
MODEL 3
REMARK VINA RESULT:    -6.842      1.881      2.409
REMARK INTER + INTRA:          -9.022
REMARK INTER:                  -8.671
REMARK INTRA:                  -0.351
REMARK UNBOUND:                -0.381
REMARK  Name = 
REMARK  5 active torsions:
REMARK  status: ('A' for Active; 'I' for Inactive)
REMARK    1  A    between atoms: N_1  and  C_2
REMARK    2  A    between atoms: C_2  and  C_3
REMARK    3  A    between atoms: N_8  and  C_9
REMARK    4  A    between atoms: C_9  and  C_10
REMARK    5  A    between atoms: C_10  and  C_11
REMARK                            x       y       z     vdW  Elec       q    Type
REMARK                         _______ _______ _______ _____ _____    ______ ____
ROOT
ATOM      1  C   UNL     1      46.903   7.689  13.116  0.00  0.00    +0.000 A 
ATOM      2  C   UNL     1      46.464   8.993  12.915  0.00  0.00    +0.000 A 
ATOM      3  C   UNL     1      45.378   9.191  12.078  0.00  0.00    +0.000 A 
ATOM      4  N   UNL     1      44.713   8.198  11.441  0.00  0.00    +0.000 NA
ATOM      5  C   UNL     1      45.131   6.934  11.639  0.00  0.00    +0.000 A 
ATOM      6  N   UNL     1      44.426   5.944  10.990  0.00  0.00    +0.000 N 
ATOM      7  C   UNL     1      46.214   6.659  12.467  0.00  0.00    +0.000 A 
ATOM      8  H   UNL     1      43.685   6.276  10.385  0.00  0.00    +0.000 HD
ENDROOT
BRANCH   1   9
ATOM      9  C   UNL     1      48.069   7.359  14.006  0.00  0.00    +0.000 C 
BRANCH   9  10
ATOM     10  N   UNL     1      49.043   6.521  13.314  0.00  0.00    +0.000 NA
ATOM     11  H   UNL     1      49.437   5.851  13.970  0.00  0.00    +0.000 HD
ATOM     12  H   UNL     1      49.813   7.105  12.993  0.00  0.00    +0.000 HD
ENDBRANCH   9  10
ENDBRANCH   1   9
BRANCH   6  13
ATOM     13  C   UNL     1      44.796   4.548  11.080  0.00  0.00    +0.000 C 
BRANCH  13  14
ATOM     14  C   UNL     1      44.103   3.680  10.030  0.00  0.00    +0.000 C 
BRANCH  14  15
ATOM     15  C   UNL     1      45.095   3.243   8.974  0.00  0.00    +0.000 A 
ATOM     16  C   UNL     1      45.749   4.193   8.176  0.00  0.00    +0.000 A 
ATOM     17  C   UNL     1      46.698   3.799   7.232  0.00  0.00    +0.000 A 
ATOM     18  C   UNL     1      47.011   2.449   7.077  0.00  0.00    +0.000 A 
ATOM     19  C   UNL     1      46.375   1.499   7.873  0.00  0.00    +0.000 A 
ATOM     20 CL   UNL     1      46.771  -0.167   7.693  0.00  0.00    +0.000 Cl
ATOM     21  C   UNL     1      45.426   1.887   8.821  0.00  0.00    +0.000 A 
ENDBRANCH  14  15
ENDBRANCH  13  14
ENDBRANCH   6  13
TORSDOF 5
ENDMDL
MODEL 4
REMARK VINA RESULT:    -6.749      3.269      6.808
REMARK INTER + INTRA:          -8.905
REMARK INTER:                  -8.433
REMARK INTRA:                  -0.472
REMARK UNBOUND:                -0.381
REMARK  Name = 
REMARK  5 active torsions:
REMARK  status: ('A' for Active; 'I' for Inactive)
REMARK    1  A    between atoms: N_1  and  C_2
REMARK    2  A    between atoms: C_2  and  C_3
REMARK    3  A    between atoms: N_8  and  C_9
REMARK    4  A    between atoms: C_9  and  C_10
REMARK    5  A    between atoms: C_10  and  C_11
REMARK                            x       y       z     vdW  Elec       q    Type
REMARK                         _______ _______ _______ _____ _____    ______ ____
ROOT
ATOM      1  C   UNL     1      46.658   2.615   6.773  0.00  0.00    +0.000 A 
ATOM      2  C   UNL     1      46.936   1.263   6.943  0.00  0.00    +0.000 A 
ATOM      3  C   UNL     1      46.342   0.606   8.008  0.00  0.00    +0.000 A 
ATOM      4  N   UNL     1      45.505   1.193   8.897  0.00  0.00    +0.000 NA
ATOM      5  C   UNL     1      45.229   2.499   8.732  0.00  0.00    +0.000 A 
ATOM      6  N   UNL     1      44.364   3.065   9.643  0.00  0.00    +0.000 N 
ATOM      7  C   UNL     1      45.788   3.223   7.684  0.00  0.00    +0.000 A 
ATOM      8  H   UNL     1      44.058   2.444  10.382  0.00  0.00    +0.000 HD
ENDROOT
BRANCH   1   9
ATOM      9  C   UNL     1      47.245   3.424   5.650  0.00  0.00    +0.000 C 
BRANCH   9  10
ATOM     10  N   UNL     1      48.244   2.659   4.912  0.00  0.00    +0.000 NA
ATOM     11  H   UNL     1      48.340   1.737   5.332  0.00  0.00    +0.000 HD
ATOM     12  H   UNL     1      49.148   3.118   5.005  0.00  0.00    +0.000 HD
ENDBRANCH   9  10
ENDBRANCH   1   9
BRANCH   6  13
ATOM     13  C   UNL     1      44.016   4.469   9.607  0.00  0.00    +0.000 C 
BRANCH  13  14
ATOM     14  C   UNL     1      43.743   5.050  10.994  0.00  0.00    +0.000 C 
BRANCH  14  15
ATOM     15  C   UNL     1      45.046   5.366  11.696  0.00  0.00    +0.000 A 
ATOM     16  C   UNL     1      45.904   6.355  11.190  0.00  0.00    +0.000 A 
ATOM     17  C   UNL     1      47.085   6.682  11.858  0.00  0.00    +0.000 A 
ATOM     18  C   UNL     1      47.421   6.030  13.044  0.00  0.00    +0.000 A 
ATOM     19  C   UNL     1      46.569   5.056  13.560  0.00  0.00    +0.000 A 
ATOM     20 CL   UNL     1      46.976   4.261  15.031  0.00  0.00    +0.000 Cl
ATOM     21  C   UNL     1      45.386   4.725  12.897  0.00  0.00    +0.000 A 
ENDBRANCH  14  15
ENDBRANCH  13  14
ENDBRANCH   6  13
TORSDOF 5
ENDMDL
MODEL 5
REMARK VINA RESULT:    -6.670      1.592      2.720
REMARK INTER + INTRA:          -8.806
REMARK INTER:                  -8.659
REMARK INTRA:                  -0.147
REMARK UNBOUND:                -0.381
REMARK  Name = 
REMARK  5 active torsions:
REMARK  status: ('A' for Active; 'I' for Inactive)
REMARK    1  A    between atoms: N_1  and  C_2
REMARK    2  A    between atoms: C_2  and  C_3
REMARK    3  A    between atoms: N_8  and  C_9
REMARK    4  A    between atoms: C_9  and  C_10
REMARK    5  A    between atoms: C_10  and  C_11
REMARK                            x       y       z     vdW  Elec       q    Type
REMARK                         _______ _______ _______ _____ _____    ______ ____
ROOT
ATOM      1  C   UNL     1      45.108   7.746  11.874  0.00  0.00    +0.000 A 
ATOM      2  C   UNL     1      46.140   7.799  12.805  0.00  0.00    +0.000 A 
ATOM      3  C   UNL     1      46.781   6.616  13.132  0.00  0.00    +0.000 A 
ATOM      4  N   UNL     1      46.471   5.407  12.604  0.00  0.00    +0.000 NA
ATOM      5  C   UNL     1      45.478   5.353  11.697  0.00  0.00    +0.000 A 
ATOM      6  N   UNL     1      45.196   4.114  11.167  0.00  0.00    +0.000 N 
ATOM      7  C   UNL     1      44.791   6.502  11.319  0.00  0.00    +0.000 A 
ATOM      8  H   UNL     1      45.739   3.352  11.554  0.00  0.00    +0.000 HD
ENDROOT
BRANCH   1   9
ATOM      9  C   UNL     1      44.347   8.969  11.443  0.00  0.00    +0.000 C 
BRANCH   9  10
ATOM     10  N   UNL     1      43.112   8.608  10.755  0.00  0.00    +0.000 NA
ATOM     11  H   UNL     1      43.330   8.015   9.958  0.00  0.00    +0.000 HD
ATOM     12  H   UNL     1      42.682   9.453  10.382  0.00  0.00    +0.000 HD
ENDBRANCH   9  10
ENDBRANCH   1   9
BRANCH   6  13
ATOM     13  C   UNL     1      44.125   3.907  10.216  0.00  0.00    +0.000 C 
BRANCH  13  14
ATOM     14  C   UNL     1      44.528   4.247   8.782  0.00  0.00    +0.000 C 
BRANCH  14  15
ATOM     15  C   UNL     1      45.403   3.153   8.210  0.00  0.00    +0.000 A 
ATOM     16  C   UNL     1      45.384   1.865   8.765  0.00  0.00    +0.000 A 
ATOM     17  C   UNL     1      46.154   0.840   8.212  0.00  0.00    +0.000 A 
ATOM     18  C   UNL     1      46.950   1.088   7.094  0.00  0.00    +0.000 A 
ATOM     19  C   UNL     1      46.966   2.362   6.529  0.00  0.00    +0.000 A 
ATOM     20 CL   UNL     1      47.936   2.666   5.140  0.00  0.00    +0.000 Cl
ATOM     21  C   UNL     1      46.196   3.390   7.076  0.00  0.00    +0.000 A 
ENDBRANCH  14  15
ENDBRANCH  13  14
ENDBRANCH   6  13
TORSDOF 5
ENDMDL
MODEL 6
REMARK VINA RESULT:    -6.610      1.699      2.875
REMARK INTER + INTRA:          -8.729
REMARK INTER:                  -8.389
REMARK INTRA:                  -0.340
REMARK UNBOUND:                -0.381
REMARK  Name = 
REMARK  5 active torsions:
REMARK  status: ('A' for Active; 'I' for Inactive)
REMARK    1  A    between atoms: N_1  and  C_2
REMARK    2  A    between atoms: C_2  and  C_3
REMARK    3  A    between atoms: N_8  and  C_9
REMARK    4  A    between atoms: C_9  and  C_10
REMARK    5  A    between atoms: C_10  and  C_11
REMARK                            x       y       z     vdW  Elec       q    Type
REMARK                         _______ _______ _______ _____ _____    ______ ____
ROOT
ATOM      1  C   UNL     1      48.013   6.185  14.176  0.00  0.00    +0.000 A 
ATOM      2  C   UNL     1      48.099   5.539  15.405  0.00  0.00    +0.000 A 
ATOM      3  C   UNL     1      47.260   4.460  15.630  0.00  0.00    +0.000 A 
ATOM      4  N   UNL     1      46.361   3.989  14.733  0.00  0.00    +0.000 NA
ATOM      5  C   UNL     1      46.281   4.607  13.540  0.00  0.00    +0.000 A 
ATOM      6  N   UNL     1      45.368   4.097  12.644  0.00  0.00    +0.000 N 
ATOM      7  C   UNL     1      47.093   5.696  13.243  0.00  0.00    +0.000 A 
ATOM      8  H   UNL     1      44.810   3.329  12.995  0.00  0.00    +0.000 HD
ENDROOT
BRANCH   1   9
ATOM      9  C   UNL     1      48.877   7.363  13.822  0.00  0.00    +0.000 C 
BRANCH   9  10
ATOM     10  N   UNL     1      49.773   7.049  12.714  0.00  0.00    +0.000 NA
ATOM     11  H   UNL     1      50.068   6.078  12.784  0.00  0.00    +0.000 HD
ATOM     12  H   UNL     1      50.614   7.617  12.797  0.00  0.00    +0.000 HD
ENDBRANCH   9  10
ENDBRANCH   1   9
BRANCH   6  13
ATOM     13  C   UNL     1      45.149   4.693  11.343  0.00  0.00    +0.000 C 
BRANCH  13  14
ATOM     14  C   UNL     1      44.331   3.801  10.410  0.00  0.00    +0.000 C 
BRANCH  14  15
ATOM     15  C   UNL     1      45.171   3.367   9.229  0.00  0.00    +0.000 A 
ATOM     16  C   UNL     1      45.726   4.321   8.363  0.00  0.00    +0.000 A 
ATOM     17  C   UNL     1      46.539   3.929   7.298  0.00  0.00    +0.000 A 
ATOM     18  C   UNL     1      46.813   2.578   7.089  0.00  0.00    +0.000 A 
ATOM     19  C   UNL     1      46.276   1.624   7.951  0.00  0.00    +0.000 A 
ATOM     20 CL   UNL     1      46.625  -0.043   7.702  0.00  0.00    +0.000 Cl
ATOM     21  C   UNL     1      45.464   2.011   9.018  0.00  0.00    +0.000 A 
ENDBRANCH  14  15
ENDBRANCH  13  14
ENDBRANCH   6  13
TORSDOF 5
ENDMDL
MODEL 7
REMARK VINA RESULT:    -6.445      3.097      6.160
REMARK INTER + INTRA:          -8.521
REMARK INTER:                  -8.094
REMARK INTRA:                  -0.427
REMARK UNBOUND:                -0.381
REMARK  Name = 
REMARK  5 active torsions:
REMARK  status: ('A' for Active; 'I' for Inactive)
REMARK    1  A    between atoms: N_1  and  C_2
REMARK    2  A    between atoms: C_2  and  C_3
REMARK    3  A    between atoms: N_8  and  C_9
REMARK    4  A    between atoms: C_9  and  C_10
REMARK    5  A    between atoms: C_10  and  C_11
REMARK                            x       y       z     vdW  Elec       q    Type
REMARK                         _______ _______ _______ _____ _____    ______ ____
ROOT
ATOM      1  C   UNL     1      45.851   2.187   8.269  0.00  0.00    +0.000 A 
ATOM      2  C   UNL     1      46.672   2.896   7.400  0.00  0.00    +0.000 A 
ATOM      3  C   UNL     1      46.631   4.279   7.451  0.00  0.00    +0.000 A 
ATOM      4  N   UNL     1      45.844   4.990   8.294  0.00  0.00    +0.000 NA
ATOM      5  C   UNL     1      45.053   4.307   9.142  0.00  0.00    +0.000 A 
ATOM      6  N   UNL     1      44.275   5.056   9.996  0.00  0.00    +0.000 N 
ATOM      7  C   UNL     1      45.043   2.916   9.148  0.00  0.00    +0.000 A 
ATOM      8  H   UNL     1      44.342   6.058   9.865  0.00  0.00    +0.000 HD
ENDROOT
BRANCH   1   9
ATOM      9  C   UNL     1      45.819   0.684   8.302  0.00  0.00    +0.000 C 
BRANCH   9  10
ATOM     10  N   UNL     1      46.968   0.114   7.608  0.00  0.00    +0.000 NA
ATOM     11  H   UNL     1      47.321  -0.680   8.135  0.00  0.00    +0.000 HD
ATOM     12  H   UNL     1      47.716   0.805   7.584  0.00  0.00    +0.000 HD
ENDBRANCH   9  10
ENDBRANCH   1   9
BRANCH   6  13
ATOM     13  C   UNL     1      43.348   4.450  10.928  0.00  0.00    +0.000 C 
BRANCH  13  14
ATOM     14  C   UNL     1      43.316   5.158  12.281  0.00  0.00    +0.000 C 
BRANCH  14  15
ATOM     15  C   UNL     1      44.723   5.439  12.760  0.00  0.00    +0.000 A 
ATOM     16  C   UNL     1      45.560   4.387  13.163  0.00  0.00    +0.000 A 
ATOM     17  C   UNL     1      46.874   4.635  13.562  0.00  0.00    +0.000 A 
ATOM     18  C   UNL     1      47.371   5.938  13.559  0.00  0.00    +0.000 A 
ATOM     19  C   UNL     1      46.551   6.987  13.150  0.00  0.00    +0.000 A 
ATOM     20 CL   UNL     1      47.169   8.594  13.132  0.00  0.00    +0.000 Cl
ATOM     21  C   UNL     1      45.237   6.745  12.747  0.00  0.00    +0.000 A 
ENDBRANCH  14  15
ENDBRANCH  13  14
ENDBRANCH   6  13
TORSDOF 5
ENDMDL
MODEL 8
REMARK VINA RESULT:    -6.375      3.405      6.935
REMARK INTER + INTRA:          -8.433
REMARK INTER:                  -8.087
REMARK INTRA:                  -0.346
REMARK UNBOUND:                -0.381
REMARK  Name = 
REMARK  5 active torsions:
REMARK  status: ('A' for Active; 'I' for Inactive)
REMARK    1  A    between atoms: N_1  and  C_2
REMARK    2  A    between atoms: C_2  and  C_3
REMARK    3  A    between atoms: N_8  and  C_9
REMARK    4  A    between atoms: C_9  and  C_10
REMARK    5  A    between atoms: C_10  and  C_11
REMARK                            x       y       z     vdW  Elec       q    Type
REMARK                         _______ _______ _______ _____ _____    ______ ____
ROOT
ATOM      1  C   UNL     1      46.694   2.570   6.648  0.00  0.00    +0.000 A 
ATOM      2  C   UNL     1      47.007   1.230   6.846  0.00  0.00    +0.000 A 
ATOM      3  C   UNL     1      46.443   0.585   7.934  0.00  0.00    +0.000 A 
ATOM      4  N   UNL     1      45.604   1.172   8.821  0.00  0.00    +0.000 NA
ATOM      5  C   UNL     1      45.293   2.467   8.628  0.00  0.00    +0.000 A 
ATOM      6  N   UNL     1      44.427   3.033   9.537  0.00  0.00    +0.000 N 
ATOM      7  C   UNL     1      45.820   3.179   7.556  0.00  0.00    +0.000 A 
ATOM      8  H   UNL     1      44.145   2.423  10.295  0.00  0.00    +0.000 HD
ENDROOT
BRANCH   1   9
ATOM      9  C   UNL     1      47.245   3.366   5.499  0.00  0.00    +0.000 C 
BRANCH   9  10
ATOM     10  N   UNL     1      48.299   2.634   4.805  0.00  0.00    +0.000 NA
ATOM     11  H   UNL     1      49.109   3.238   4.688  0.00  0.00    +0.000 HD
ATOM     12  H   UNL     1      47.976   2.394   3.870  0.00  0.00    +0.000 HD
ENDBRANCH   9  10
ENDBRANCH   1   9
BRANCH   6  13
ATOM     13  C   UNL     1      44.044   4.427   9.474  0.00  0.00    +0.000 C 
BRANCH  13  14
ATOM     14  C   UNL     1      43.531   4.966  10.809  0.00  0.00    +0.000 C 
BRANCH  14  15
ATOM     15  C   UNL     1      44.575   5.851  11.453  0.00  0.00    +0.000 A 
ATOM     16  C   UNL     1      45.761   5.297  11.960  0.00  0.00    +0.000 A 
ATOM     17  C   UNL     1      46.748   6.114  12.514  0.00  0.00    +0.000 A 
ATOM     18  C   UNL     1      46.565   7.496  12.564  0.00  0.00    +0.000 A 
ATOM     19  C   UNL     1      45.396   8.055  12.053  0.00  0.00    +0.000 A 
ATOM     20 CL   UNL     1      45.175   9.761  12.102  0.00  0.00    +0.000 Cl
ATOM     21  C   UNL     1      44.406   7.244  11.496  0.00  0.00    +0.000 A 
ENDBRANCH  14  15
ENDBRANCH  13  14
ENDBRANCH   6  13
TORSDOF 5
ENDMDL
MODEL 9
REMARK VINA RESULT:    -6.337      3.073      6.242
REMARK INTER + INTRA:          -8.385
REMARK INTER:                  -7.675
REMARK INTRA:                  -0.710
REMARK UNBOUND:                -0.381
REMARK  Name = 
REMARK  5 active torsions:
REMARK  status: ('A' for Active; 'I' for Inactive)
REMARK    1  A    between atoms: N_1  and  C_2
REMARK    2  A    between atoms: C_2  and  C_3
REMARK    3  A    between atoms: N_8  and  C_9
REMARK    4  A    between atoms: C_9  and  C_10
REMARK    5  A    between atoms: C_10  and  C_11
REMARK                            x       y       z     vdW  Elec       q    Type
REMARK                         _______ _______ _______ _____ _____    ______ ____
ROOT
ATOM      1  C   UNL     1      45.647   3.770   8.494  0.00  0.00    +0.000 A 
ATOM      2  C   UNL     1      45.633   2.396   8.280  0.00  0.00    +0.000 A 
ATOM      3  C   UNL     1      44.777   1.628   9.052  0.00  0.00    +0.000 A 
ATOM      4  N   UNL     1      43.950   2.125  10.002  0.00  0.00    +0.000 NA
ATOM      5  C   UNL     1      43.956   3.455  10.207  0.00  0.00    +0.000 A 
ATOM      6  N   UNL     1      43.094   3.933  11.169  0.00  0.00    +0.000 N 
ATOM      7  C   UNL     1      44.788   4.289   9.468  0.00  0.00    +0.000 A 
ATOM      8  H   UNL     1      42.571   3.221  11.664  0.00  0.00    +0.000 HD
ENDROOT
BRANCH   1   9
ATOM      9  C   UNL     1      46.533   4.699   7.712  0.00  0.00    +0.000 C 
BRANCH   9  10
ATOM     10  N   UNL     1      46.976   4.083   6.465  0.00  0.00    +0.000 NA
ATOM     11  H   UNL     1      46.316   3.358   6.194  0.00  0.00    +0.000 HD
ATOM     12  H   UNL     1      47.869   3.620   6.625  0.00  0.00    +0.000 HD
ENDBRANCH   9  10
ENDBRANCH   1   9
BRANCH   6  13
ATOM     13  C   UNL     1      43.030   5.336  11.520  0.00  0.00    +0.000 C 
BRANCH  13  14
ATOM     14  C   UNL     1      43.454   5.608  12.963  0.00  0.00    +0.000 C 
BRANCH  14  15
ATOM     15  C   UNL     1      44.959   5.743  13.051  0.00  0.00    +0.000 A 
ATOM     16  C   UNL     1      45.738   4.691  13.555  0.00  0.00    +0.000 A 
ATOM     17  C   UNL     1      47.130   4.792  13.596  0.00  0.00    +0.000 A 
ATOM     18  C   UNL     1      47.762   5.943  13.127  0.00  0.00    +0.000 A 
ATOM     19  C   UNL     1      46.996   6.988  12.613  0.00  0.00    +0.000 A 
ATOM     20 CL   UNL     1      47.776   8.403  12.021  0.00  0.00    +0.000 Cl
ATOM     21  C   UNL     1      45.604   6.892  12.568  0.00  0.00    +0.000 A 
ENDBRANCH  14  15
ENDBRANCH  13  14
ENDBRANCH   6  13
TORSDOF 5
ENDMDL
