MODEL 1
REMARK VINA RESULT:    -8.060      0.000      0.000
REMARK INTER + INTRA:         -12.757
REMARK INTER:                 -11.829
REMARK INTRA:                  -0.928
REMARK UNBOUND:                -0.928
REMARK  Name = 
REMARK  8 active torsions:
REMARK  status: ('A' for Active; 'I' for Inactive)
REMARK    1  A    between atoms: C_2  and  O_3
REMARK    2  A    between atoms: C_2  and  C_11
REMARK    3  A    between atoms: O_3  and  C_4
REMARK    4  A    between atoms: C_4  and  C_5
REMARK    5  A    between atoms: C_14  and  C_15
REMARK    6  A    between atoms: C_15  and  N_16
REMARK    7  A    between atoms: N_16  and  C_17
REMARK    8  A    between atoms: C_17  and  C_18
REMARK                            x       y       z     vdW  Elec       q    Type
REMARK                         _______ _______ _______ _____ _____    ______ ____
ROOT
ATOM      1  C   UNL     1      44.982   4.353  11.329  0.00  0.00    +0.000 A 
ATOM      2  C   UNL     1      45.430   3.895  12.574  0.00  0.00    +0.000 A 
ATOM      3  C   UNL     1      46.421   4.595  13.273  0.00  0.00    +0.000 A 
ATOM      4  C   UNL     1      46.985   5.762  12.739  0.00  0.00    +0.000 A 
ATOM      5  C   UNL     1      46.528   6.220  11.495  0.00  0.00    +0.000 A 
ATOM      6  C   UNL     1      45.533   5.525  10.795  0.00  0.00    +0.000 A 
ENDROOT
BRANCH   1   8
ATOM      7  O   UNL     1      42.881   3.231  11.149  0.00  0.00    +0.000 OA
ATOM      8  C   UNL     1      43.931   3.567  10.621  0.00  0.00    +0.000 C 
BRANCH   8   9
ATOM      9  O   UNL     1      44.312   3.273   9.356  0.00  0.00    +0.000 OA
BRANCH   9  10
ATOM     10  C   UNL     1      44.980   2.018   9.168  0.00  0.00    +0.000 C 
BRANCH  10  11
ATOM     11  C   UNL     1      45.939   2.144   8.020  0.00  0.00    +0.000 A 
ATOM     12  C   UNL     1      46.021   3.317   7.263  0.00  0.00    +0.000 A 
ATOM     13  C   UNL     1      46.940   3.402   6.221  0.00  0.00    +0.000 A 
ATOM     14  C   UNL     1      47.755   2.311   5.973  0.00  0.00    +0.000 A 
ATOM     15  N   UNL     1      47.708   1.164   6.683  0.00  0.00    +0.000 NA
ATOM     16  C   UNL     1      46.806   1.109   7.690  0.00  0.00    +0.000 A 
ENDBRANCH  10  11
ENDBRANCH   9  10
ENDBRANCH   8   9
ENDBRANCH   1   8
BRANCH   4  17
ATOM     17  C   UNL     1      48.043   6.530  13.503  0.00  0.00    +0.000 C 
BRANCH  17  18
ATOM     18  N   UNL     1      47.707   6.643  14.923  0.00  0.00    +0.000 NA
ATOM     19  H   UNL     1      46.898   6.053  15.116  0.00  0.00    +0.000 HD
BRANCH  18  20
ATOM     20  C   UNL     1      48.826   6.227  15.768  0.00  0.00    +0.000 C 
BRANCH  20  21
ATOM     21  C   UNL     1      48.482   5.016  16.577  0.00  0.00    +0.000 A 
ATOM     22  C   UNL     1      47.235   4.423  16.547  0.00  0.00    +0.000 A 
ATOM     23  N   UNL     1      46.903   3.324  17.255  0.00  0.00    +0.000 NA
ATOM     24  C   UNL     1      47.880   2.809  18.018  0.00  0.00    +0.000 A 
ATOM     25  N   UNL     1      49.129   3.282  18.124  0.00  0.00    +0.000 NA
ATOM     26  C   UNL     1      49.400   4.385  17.395  0.00  0.00    +0.000 A 
ENDBRANCH  20  21
ENDBRANCH  18  20
ENDBRANCH  17  18
ENDBRANCH   4  17
TORSDOF 8
ENDMDL
MODEL 2
REMARK VINA RESULT:    -7.524      0.831      1.477
REMARK INTER + INTRA:         -11.970
REMARK INTER:                 -11.094
REMARK INTRA:                  -0.877
REMARK UNBOUND:                -0.928
REMARK  Name = 
REMARK  8 active torsions:
REMARK  status: ('A' for Active; 'I' for Inactive)
REMARK    1  A    between atoms: C_2  and  O_3
REMARK    2  A    between atoms: C_2  and  C_11
REMARK    3  A    between atoms: O_3  and  C_4
REMARK    4  A    between atoms: C_4  and  C_5
REMARK    5  A    between atoms: C_14  and  C_15
REMARK    6  A    between atoms: C_15  and  N_16
REMARK    7  A    between atoms: N_16  and  C_17
REMARK    8  A    between atoms: C_17  and  C_18
REMARK                            x       y       z     vdW  Elec       q    Type
REMARK                         _______ _______ _______ _____ _____    ______ ____
ROOT
ATOM      1  C   UNL     1      44.826   4.252  11.586  0.00  0.00    +0.000 A 
ATOM      2  C   UNL     1      45.328   5.360  10.893  0.00  0.00    +0.000 A 
ATOM      3  C   UNL     1      46.282   6.196  11.485  0.00  0.00    +0.000 A 
ATOM      4  C   UNL     1      46.747   5.943  12.784  0.00  0.00    +0.000 A 
ATOM      5  C   UNL     1      46.246   4.828  13.471  0.00  0.00    +0.000 A 
ATOM      6  C   UNL     1      45.295   3.987  12.879  0.00  0.00    +0.000 A 
ENDROOT
BRANCH   1   8
ATOM      7  O   UNL     1      42.873   2.879  11.507  0.00  0.00    +0.000 OA
ATOM      8  C   UNL     1      43.806   3.398  10.912  0.00  0.00    +0.000 C 
BRANCH   8   9
ATOM      9  O   UNL     1      44.071   3.275   9.590  0.00  0.00    +0.000 OA
BRANCH   9  10
ATOM     10  C   UNL     1      44.631   2.023   9.169  0.00  0.00    +0.000 C 
BRANCH  10  11
ATOM     11  C   UNL     1      45.759   2.290   8.215  0.00  0.00    +0.000 A 
ATOM     12  C   UNL     1      46.657   1.285   7.847  0.00  0.00    +0.000 A 
ATOM     13  C   UNL     1      47.675   1.567   6.941  0.00  0.00    +0.000 A 
ATOM     14  C   UNL     1      47.759   2.849   6.425  0.00  0.00    +0.000 A 
ATOM     15  N   UNL     1      46.908   3.846   6.754  0.00  0.00    +0.000 NA
ATOM     16  C   UNL     1      45.929   3.543   7.636  0.00  0.00    +0.000 A 
ENDBRANCH  10  11
ENDBRANCH   9  10
ENDBRANCH   8   9
ENDBRANCH   1   8
BRANCH   4  17
ATOM     17  C   UNL     1      47.793   6.836  13.419  0.00  0.00    +0.000 C 
BRANCH  17  18
ATOM     18  N   UNL     1      48.703   6.075  14.276  0.00  0.00    +0.000 NA
ATOM     19  H   UNL     1      49.651   6.173  13.915  0.00  0.00    +0.000 HD
BRANCH  18  20
ATOM     20  C   UNL     1      48.656   6.556  15.657  0.00  0.00    +0.000 C 
BRANCH  20  21
ATOM     21  C   UNL     1      48.574   5.422  16.630  0.00  0.00    +0.000 A 
ATOM     22  C   UNL     1      47.657   4.395  16.510  0.00  0.00    +0.000 A 
ATOM     23  N   UNL     1      47.571   3.356  17.364  0.00  0.00    +0.000 NA
ATOM     24  C   UNL     1      48.454   3.360  18.375  0.00  0.00    +0.000 A 
ATOM     25  N   UNL     1      49.396   4.288  18.594  0.00  0.00    +0.000 NA
ATOM     26  C   UNL     1      49.431   5.305  17.707  0.00  0.00    +0.000 A 
ENDBRANCH  20  21
ENDBRANCH  18  20
ENDBRANCH  17  18
ENDBRANCH   4  17
TORSDOF 8
ENDMDL
MODEL 3
REMARK VINA RESULT:    -7.520      2.283      8.372
REMARK INTER + INTRA:         -11.965
REMARK INTER:                 -11.058
REMARK INTRA:                  -0.907
REMARK UNBOUND:                -0.928
REMARK  Name = 
REMARK  8 active torsions:
REMARK  status: ('A' for Active; 'I' for Inactive)
REMARK    1  A    between atoms: C_2  and  O_3
REMARK    2  A    between atoms: C_2  and  C_11
REMARK    3  A    between atoms: O_3  and  C_4
REMARK    4  A    between atoms: C_4  and  C_5
REMARK    5  A    between atoms: C_14  and  C_15
REMARK    6  A    between atoms: C_15  and  N_16
REMARK    7  A    between atoms: N_16  and  C_17
REMARK    8  A    between atoms: C_17  and  C_18
REMARK                            x       y       z     vdW  Elec       q    Type
REMARK                         _______ _______ _______ _____ _____    ______ ____
ROOT
ATOM      1  C   UNL     1      46.621   5.859  12.729  0.00  0.00    +0.000 A 
ATOM      2  C   UNL     1      46.073   4.724  13.339  0.00  0.00    +0.000 A 
ATOM      3  C   UNL     1      45.098   3.966  12.682  0.00  0.00    +0.000 A 
ATOM      4  C   UNL     1      44.647   4.330  11.405  0.00  0.00    +0.000 A 
ATOM      5  C   UNL     1      45.204   5.464  10.795  0.00  0.00    +0.000 A 
ATOM      6  C   UNL     1      46.184   6.223  11.449  0.00  0.00    +0.000 A 
ENDROOT
BRANCH   1   8
ATOM      7  O   UNL     1      47.805   7.842  13.341  0.00  0.00    +0.000 OA
ATOM      8  C   UNL     1      47.652   6.637  13.475  0.00  0.00    +0.000 C 
BRANCH   8   9
ATOM      9  O   UNL     1      48.380   5.830  14.282  0.00  0.00    +0.000 OA
BRANCH   9  10
ATOM     10  C   UNL     1      48.502   6.241  15.651  0.00  0.00    +0.000 C 
BRANCH  10  11
ATOM     11  C   UNL     1      48.346   5.039  16.536  0.00  0.00    +0.000 A 
ATOM     12  C   UNL     1      49.364   4.635  17.405  0.00  0.00    +0.000 A 
ATOM     13  C   UNL     1      49.171   3.529  18.227  0.00  0.00    +0.000 A 
ATOM     14  C   UNL     1      47.959   2.864  18.159  0.00  0.00    +0.000 A 
ATOM     15  N   UNL     1      46.951   3.225  17.336  0.00  0.00    +0.000 NA
ATOM     16  C   UNL     1      47.166   4.304  16.549  0.00  0.00    +0.000 A 
ENDBRANCH  10  11
ENDBRANCH   9  10
ENDBRANCH   8   9
ENDBRANCH   1   8
BRANCH   4  17
ATOM     17  C   UNL     1      43.606   3.499  10.685  0.00  0.00    +0.000 C 
BRANCH  17  18
ATOM     18  N   UNL     1      43.982   3.250   9.293  0.00  0.00    +0.000 NA
ATOM     19  H   UNL     1      44.570   4.018   8.970  0.00  0.00    +0.000 HD
BRANCH  18  20
ATOM     20  C   UNL     1      44.710   1.989   9.157  0.00  0.00    +0.000 C 
BRANCH  20  21
ATOM     21  C   UNL     1      45.892   2.132   8.250  0.00  0.00    +0.000 A 
ATOM     22  C   UNL     1      46.650   1.055   7.832  0.00  0.00    +0.000 A 
ATOM     23  N   UNL     1      47.710   1.154   7.004  0.00  0.00    +0.000 NA
ATOM     24  C   UNL     1      48.004   2.394   6.583  0.00  0.00    +0.000 A 
ATOM     25  N   UNL     1      47.342   3.514   6.906  0.00  0.00    +0.000 NA
ATOM     26  C   UNL     1      46.293   3.352   7.740  0.00  0.00    +0.000 A 
ENDBRANCH  20  21
ENDBRANCH  18  20
ENDBRANCH  17  18
ENDBRANCH   4  17
TORSDOF 8
ENDMDL
MODEL 4
REMARK VINA RESULT:    -7.519      1.491      2.260
REMARK INTER + INTRA:         -11.964
REMARK INTER:                 -11.296
REMARK INTRA:                  -0.667
REMARK UNBOUND:                -0.928
REMARK  Name = 
REMARK  8 active torsions:
REMARK  status: ('A' for Active; 'I' for Inactive)
REMARK    1  A    between atoms: C_2  and  O_3
REMARK    2  A    between atoms: C_2  and  C_11
REMARK    3  A    between atoms: O_3  and  C_4
REMARK    4  A    between atoms: C_4  and  C_5
REMARK    5  A    between atoms: C_14  and  C_15
REMARK    6  A    between atoms: C_15  and  N_16
REMARK    7  A    between atoms: N_16  and  C_17
REMARK    8  A    between atoms: C_17  and  C_18
REMARK                            x       y       z     vdW  Elec       q    Type
REMARK                         _______ _______ _______ _____ _____    ______ ____
ROOT
ATOM      1  C   UNL     1      45.547   5.335  11.848  0.00  0.00    +0.000 A 
ATOM      2  C   UNL     1      46.489   6.371  11.811  0.00  0.00    +0.000 A 
ATOM      3  C   UNL     1      47.354   6.582  12.891  0.00  0.00    +0.000 A 
ATOM      4  C   UNL     1      47.291   5.766  14.030  0.00  0.00    +0.000 A 
ATOM      5  C   UNL     1      46.351   4.726  14.058  0.00  0.00    +0.000 A 
ATOM      6  C   UNL     1      45.486   4.509  12.977  0.00  0.00    +0.000 A 
ENDROOT
BRANCH   1   8
ATOM      7  O   UNL     1      43.427   5.247  10.751  0.00  0.00    +0.000 OA
ATOM      8  C   UNL     1      44.643   5.158  10.675  0.00  0.00    +0.000 C 
BRANCH   8   9
ATOM      9  O   UNL     1      45.350   4.873   9.555  0.00  0.00    +0.000 OA
BRANCH   9  10
ATOM     10  C   UNL     1      44.686   4.064   8.574  0.00  0.00    +0.000 C 
BRANCH  10  11
ATOM     11  C   UNL     1      45.666   3.073   8.018  0.00  0.00    +0.000 A 
ATOM     12  C   UNL     1      46.601   3.438   7.044  0.00  0.00    +0.000 A 
ATOM     13  C   UNL     1      47.509   2.495   6.571  0.00  0.00    +0.000 A 
ATOM     14  C   UNL     1      47.457   1.213   7.094  0.00  0.00    +0.000 A 
ATOM     15  N   UNL     1      46.572   0.824   8.037  0.00  0.00    +0.000 NA
ATOM     16  C   UNL     1      45.702   1.761   8.478  0.00  0.00    +0.000 A 
ENDBRANCH  10  11
ENDBRANCH   9  10
ENDBRANCH   8   9
ENDBRANCH   1   8
BRANCH   4  17
ATOM     17  C   UNL     1      48.239   5.982  15.190  0.00  0.00    +0.000 C 
BRANCH  17  18
ATOM     18  N   UNL     1      47.729   5.382  16.423  0.00  0.00    +0.000 NA
ATOM     19  H   UNL     1      47.402   4.438  16.217  0.00  0.00    +0.000 HD
BRANCH  18  20
ATOM     20  C   UNL     1      48.765   5.324  17.454  0.00  0.00    +0.000 C 
BRANCH  20  21
ATOM     21  C   UNL     1      49.582   4.075  17.342  0.00  0.00    +0.000 A 
ATOM     22  C   UNL     1      50.889   3.992  17.783  0.00  0.00    +0.000 A 
ATOM     23  N   UNL     1      51.642   2.877  17.707  0.00  0.00    +0.000 NA
ATOM     24  C   UNL     1      51.040   1.805  17.167  0.00  0.00    +0.000 A 
ATOM     25  N   UNL     1      49.779   1.755  16.715  0.00  0.00    +0.000 NA
ATOM     26  C   UNL     1      49.076   2.903  16.814  0.00  0.00    +0.000 A 
ENDBRANCH  20  21
ENDBRANCH  18  20
ENDBRANCH  17  18
ENDBRANCH   4  17
TORSDOF 8
ENDMDL
MODEL 5
REMARK VINA RESULT:    -7.034      3.013      4.639
REMARK INTER + INTRA:         -11.252
REMARK INTER:                 -10.264
REMARK INTRA:                  -0.988
REMARK UNBOUND:                -0.928
REMARK  Name = 
REMARK  8 active torsions:
REMARK  status: ('A' for Active; 'I' for Inactive)
REMARK    1  A    between atoms: C_2  and  O_3
REMARK    2  A    between atoms: C_2  and  C_11
REMARK    3  A    between atoms: O_3  and  C_4
REMARK    4  A    between atoms: C_4  and  C_5
REMARK    5  A    between atoms: C_14  and  C_15
REMARK    6  A    between atoms: C_15  and  N_16
REMARK    7  A    between atoms: N_16  and  C_17
REMARK    8  A    between atoms: C_17  and  C_18
REMARK                            x       y       z     vdW  Elec       q    Type
REMARK                         _______ _______ _______ _____ _____    ______ ____
ROOT
ATOM      1  C   UNL     1      44.930   4.262  11.170  0.00  0.00    +0.000 A 
ATOM      2  C   UNL     1      45.451   4.025  12.448  0.00  0.00    +0.000 A 
ATOM      3  C   UNL     1      46.381   4.907  13.012  0.00  0.00    +0.000 A 
ATOM      4  C   UNL     1      46.812   6.039  12.306  0.00  0.00    +0.000 A 
ATOM      5  C   UNL     1      46.282   6.276  11.029  0.00  0.00    +0.000 A 
ATOM      6  C   UNL     1      45.348   5.398  10.465  0.00  0.00    +0.000 A 
ENDROOT
BRANCH   1   8
ATOM      7  O   UNL     1      42.979   2.887  11.238  0.00  0.00    +0.000 OA
ATOM      8  C   UNL     1      43.949   3.288  10.613  0.00  0.00    +0.000 C 
BRANCH   8   9
ATOM      9  O   UNL     1      44.296   2.912   9.359  0.00  0.00    +0.000 OA
BRANCH   9  10
ATOM     10  C   UNL     1      45.257   1.853   9.256  0.00  0.00    +0.000 C 
BRANCH  10  11
ATOM     11  C   UNL     1      46.095   2.074   8.030  0.00  0.00    +0.000 A 
ATOM     12  C   UNL     1      46.090   3.297   7.353  0.00  0.00    +0.000 A 
ATOM     13  C   UNL     1      46.900   3.470   6.235  0.00  0.00    +0.000 A 
ATOM     14  C   UNL     1      47.698   2.413   5.832  0.00  0.00    +0.000 A 
ATOM     15  N   UNL     1      47.734   1.219   6.462  0.00  0.00    +0.000 NA
ATOM     16  C   UNL     1      46.936   1.079   7.545  0.00  0.00    +0.000 A 
ENDBRANCH  10  11
ENDBRANCH   9  10
ENDBRANCH   8   9
ENDBRANCH   1   8
BRANCH   4  17
ATOM     17  C   UNL     1      47.803   7.004  12.923  0.00  0.00    +0.000 C 
BRANCH  17  18
ATOM     18  N   UNL     1      48.190   8.056  11.981  0.00  0.00    +0.000 NA
ATOM     19  H   UNL     1      47.385   8.660  11.816  0.00  0.00    +0.000 HD
BRANCH  18  20
ATOM     20  C   UNL     1      49.299   8.853  12.503  0.00  0.00    +0.000 C 
BRANCH  20  21
ATOM     21  C   UNL     1      50.471   8.839  11.572  0.00  0.00    +0.000 A 
ATOM     22  C   UNL     1      50.988   7.676  11.035  0.00  0.00    +0.000 A 
ATOM     23  N   UNL     1      52.033   7.636  10.185  0.00  0.00    +0.000 NA
ATOM     24  C   UNL     1      52.568   8.825   9.866  0.00  0.00    +0.000 A 
ATOM     25  N   UNL     1      52.152  10.020  10.309  0.00  0.00    +0.000 NA
ATOM     26  C   UNL     1      51.104   9.996  11.160  0.00  0.00    +0.000 A 
ENDBRANCH  20  21
ENDBRANCH  18  20
ENDBRANCH  17  18
ENDBRANCH   4  17
TORSDOF 8
ENDMDL
MODEL 6
REMARK VINA RESULT:    -6.957      2.602      8.890
REMARK INTER + INTRA:         -11.139
REMARK INTER:                 -10.232
REMARK INTRA:                  -0.907
REMARK UNBOUND:                -0.928
REMARK  Name = 
REMARK  8 active torsions:
REMARK  status: ('A' for Active; 'I' for Inactive)
REMARK    1  A    between atoms: C_2  and  O_3
REMARK    2  A    between atoms: C_2  and  C_11
REMARK    3  A    between atoms: O_3  and  C_4
REMARK    4  A    between atoms: C_4  and  C_5
REMARK    5  A    between atoms: C_14  and  C_15
REMARK    6  A    between atoms: C_15  and  N_16
REMARK    7  A    between atoms: N_16  and  C_17
REMARK    8  A    between atoms: C_17  and  C_18
REMARK                            x       y       z     vdW  Elec       q    Type
REMARK                         _______ _______ _______ _____ _____    ______ ____
ROOT
ATOM      1  C   UNL     1      46.934   5.841  12.800  0.00  0.00    +0.000 A 
ATOM      2  C   UNL     1      46.458   6.313  11.571  0.00  0.00    +0.000 A 
ATOM      3  C   UNL     1      45.404   5.662  10.919  0.00  0.00    +0.000 A 
ATOM      4  C   UNL     1      44.810   4.523  11.481  0.00  0.00    +0.000 A 
ATOM      5  C   UNL     1      45.286   4.058  12.716  0.00  0.00    +0.000 A 
ATOM      6  C   UNL     1      46.337   4.710  13.372  0.00  0.00    +0.000 A 
ENDROOT
BRANCH   1   8
ATOM      7  O   UNL     1      48.539   7.599  12.998  0.00  0.00    +0.000 OA
ATOM      8  C   UNL     1      48.064   6.567  13.448  0.00  0.00    +0.000 C 
BRANCH   8   9
ATOM      9  O   UNL     1      48.482   5.920  14.562  0.00  0.00    +0.000 OA
BRANCH   9  10
ATOM     10  C   UNL     1      49.222   6.701  15.510  0.00  0.00    +0.000 C 
BRANCH  10  11
ATOM     11  C   UNL     1      48.590   6.551  16.863  0.00  0.00    +0.000 A 
ATOM     12  C   UNL     1      48.377   7.653  17.696  0.00  0.00    +0.000 A 
ATOM     13  C   UNL     1      47.765   7.475  18.933  0.00  0.00    +0.000 A 
ATOM     14  C   UNL     1      47.379   6.197  19.297  0.00  0.00    +0.000 A 
ATOM     15  N   UNL     1      47.564   5.108  18.519  0.00  0.00    +0.000 NA
ATOM     16  C   UNL     1      48.160   5.311  17.322  0.00  0.00    +0.000 A 
ENDBRANCH  10  11
ENDBRANCH   9  10
ENDBRANCH   8   9
ENDBRANCH   1   8
BRANCH   4  17
ATOM     17  C   UNL     1      43.657   3.829  10.787  0.00  0.00    +0.000 C 
BRANCH  17  18
ATOM     18  N   UNL     1      43.990   3.480   9.406  0.00  0.00    +0.000 NA
ATOM     19  H   UNL     1      44.569   4.221   9.011  0.00  0.00    +0.000 HD
BRANCH  18  20
ATOM     20  C   UNL     1      44.712   2.210   9.338  0.00  0.00    +0.000 C 
BRANCH  20  21
ATOM     21  C   UNL     1      45.756   2.227   8.266  0.00  0.00    +0.000 A 
ATOM     22  C   UNL     1      46.495   1.112   7.921  0.00  0.00    +0.000 A 
ATOM     23  N   UNL     1      47.431   1.096   6.951  0.00  0.00    +0.000 NA
ATOM     24  C   UNL     1      47.616   2.258   6.305  0.00  0.00    +0.000 A 
ATOM     25  N   UNL     1      46.957   3.402   6.536  0.00  0.00    +0.000 NA
ATOM     26  C   UNL     1      46.036   3.357   7.521  0.00  0.00    +0.000 A 
ENDBRANCH  20  21
ENDBRANCH  18  20
ENDBRANCH  17  18
ENDBRANCH   4  17
TORSDOF 8
ENDMDL
MODEL 7
REMARK VINA RESULT:    -6.880      3.944      7.976
REMARK INTER + INTRA:         -11.026
REMARK INTER:                  -9.901
REMARK INTRA:                  -1.125
REMARK UNBOUND:                -0.928
REMARK  Name = 
REMARK  8 active torsions:
REMARK  status: ('A' for Active; 'I' for Inactive)
REMARK    1  A    between atoms: C_2  and  O_3
REMARK    2  A    between atoms: C_2  and  C_11
REMARK    3  A    between atoms: O_3  and  C_4
REMARK    4  A    between atoms: C_4  and  C_5
REMARK    5  A    between atoms: C_14  and  C_15
REMARK    6  A    between atoms: C_15  and  N_16
REMARK    7  A    between atoms: N_16  and  C_17
REMARK    8  A    between atoms: C_17  and  C_18
REMARK                            x       y       z     vdW  Elec       q    Type
REMARK                         _______ _______ _______ _____ _____    ______ ____
ROOT
ATOM      1  C   UNL     1      46.982   5.545  12.875  0.00  0.00    +0.000 A 
ATOM      2  C   UNL     1      46.518   6.189  11.722  0.00  0.00    +0.000 A 
ATOM      3  C   UNL     1      45.418   5.682  11.019  0.00  0.00    +0.000 A 
ATOM      4  C   UNL     1      44.766   4.519  11.453  0.00  0.00    +0.000 A 
ATOM      5  C   UNL     1      45.231   3.882  12.613  0.00  0.00    +0.000 A 
ATOM      6  C   UNL     1      46.328   4.390  13.320  0.00  0.00    +0.000 A 
ENDROOT
BRANCH   1   8
ATOM      7  O   UNL     1      48.248   6.177  14.800  0.00  0.00    +0.000 OA
ATOM      8  C   UNL     1      48.162   6.122  13.582  0.00  0.00    +0.000 C 
BRANCH   8   9
ATOM      9  O   UNL     1      49.082   6.578  12.700  0.00  0.00    +0.000 OA
BRANCH   9  10
ATOM     10  C   UNL     1      49.895   7.675  13.140  0.00  0.00    +0.000 C 
BRANCH  10  11
ATOM     11  C   UNL     1      49.602   8.872  12.282  0.00  0.00    +0.000 A 
ATOM     12  C   UNL     1      48.312   9.401  12.184  0.00  0.00    +0.000 A 
ATOM     13  C   UNL     1      48.087  10.527  11.398  0.00  0.00    +0.000 A 
ATOM     14  C   UNL     1      49.164  11.094  10.737  0.00  0.00    +0.000 A 
ATOM     15  N   UNL     1      50.424  10.614  10.810  0.00  0.00    +0.000 NA
ATOM     16  C   UNL     1      50.614   9.519  11.582  0.00  0.00    +0.000 A 
ENDBRANCH  10  11
ENDBRANCH   9  10
ENDBRANCH   8   9
ENDBRANCH   1   8
BRANCH   4  17
ATOM     17  C   UNL     1      43.565   3.981  10.705  0.00  0.00    +0.000 C 
BRANCH  17  18
ATOM     18  N   UNL     1      43.919   3.557   9.350  0.00  0.00    +0.000 NA
ATOM     19  H   UNL     1      44.512   4.271   8.928  0.00  0.00    +0.000 HD
BRANCH  18  20
ATOM     20  C   UNL     1      44.629   2.278   9.362  0.00  0.00    +0.000 C 
BRANCH  20  21
ATOM     21  C   UNL     1      45.759   2.268   8.381  0.00  0.00    +0.000 A 
ATOM     22  C   UNL     1      46.431   1.115   8.022  0.00  0.00    +0.000 A 
ATOM     23  N   UNL     1      47.442   1.076   7.132  0.00  0.00    +0.000 NA
ATOM     24  C   UNL     1      47.778   2.254   6.583  0.00  0.00    +0.000 A 
ATOM     25  N   UNL     1      47.199   3.436   6.838  0.00  0.00    +0.000 NA
ATOM     26  C   UNL     1      46.195   3.412   7.740  0.00  0.00    +0.000 A 
ENDBRANCH  20  21
ENDBRANCH  18  20
ENDBRANCH  17  18
ENDBRANCH   4  17
TORSDOF 8
ENDMDL
MODEL 8
REMARK VINA RESULT:    -6.770      4.036      6.400
REMARK INTER + INTRA:         -10.864
REMARK INTER:                  -9.898
REMARK INTRA:                  -0.966
REMARK UNBOUND:                -0.928
REMARK  Name = 
REMARK  8 active torsions:
REMARK  status: ('A' for Active; 'I' for Inactive)
REMARK    1  A    between atoms: C_2  and  O_3
REMARK    2  A    between atoms: C_2  and  C_11
REMARK    3  A    between atoms: O_3  and  C_4
REMARK    4  A    between atoms: C_4  and  C_5
REMARK    5  A    between atoms: C_14  and  C_15
REMARK    6  A    between atoms: C_15  and  N_16
REMARK    7  A    between atoms: N_16  and  C_17
REMARK    8  A    between atoms: C_17  and  C_18
REMARK                            x       y       z     vdW  Elec       q    Type
REMARK                         _______ _______ _______ _____ _____    ______ ____
ROOT
ATOM      1  C   UNL     1      45.328   5.281  11.624  0.00  0.00    +0.000 A 
ATOM      2  C   UNL     1      44.466   6.265  11.125  0.00  0.00    +0.000 A 
ATOM      3  C   UNL     1      44.715   7.620  11.374  0.00  0.00    +0.000 A 
ATOM      4  C   UNL     1      45.828   8.016  12.130  0.00  0.00    +0.000 A 
ATOM      5  C   UNL     1      46.692   7.026  12.621  0.00  0.00    +0.000 A 
ATOM      6  C   UNL     1      46.447   5.670  12.370  0.00  0.00    +0.000 A 
ENDROOT
BRANCH   1   8
ATOM      7  O   UNL     1      45.153   2.960  12.160  0.00  0.00    +0.000 OA
ATOM      8  C   UNL     1      45.012   3.852  11.337  0.00  0.00    +0.000 C 
BRANCH   8   9
ATOM      9  O   UNL     1      44.579   3.696  10.063  0.00  0.00    +0.000 OA
BRANCH   9  10
ATOM     10  C   UNL     1      44.652   2.368   9.526  0.00  0.00    +0.000 C 
BRANCH  10  11
ATOM     11  C   UNL     1      45.626   2.358   8.384  0.00  0.00    +0.000 A 
ATOM     12  C   UNL     1      45.863   3.503   7.617  0.00  0.00    +0.000 A 
ATOM     13  C   UNL     1      46.792   3.460   6.581  0.00  0.00    +0.000 A 
ATOM     14  C   UNL     1      47.462   2.271   6.349  0.00  0.00    +0.000 A 
ATOM     15  N   UNL     1      47.263   1.146   7.070  0.00  0.00    +0.000 NA
ATOM     16  C   UNL     1      46.355   1.217   8.070  0.00  0.00    +0.000 A 
ENDBRANCH  10  11
ENDBRANCH   9  10
ENDBRANCH   8   9
ENDBRANCH   1   8
BRANCH   4  17
ATOM     17  C   UNL     1      46.110   9.482  12.384  0.00  0.00    +0.000 C 
BRANCH  17  18
ATOM     18  N   UNL     1      44.885  10.282  12.341  0.00  0.00    +0.000 NA
ATOM     19  H   UNL     1      44.590  10.479  13.297  0.00  0.00    +0.000 HD
BRANCH  18  20
ATOM     20  C   UNL     1      45.098  11.540  11.628  0.00  0.00    +0.000 C 
BRANCH  20  21
ATOM     21  C   UNL     1      44.687  11.434  10.192  0.00  0.00    +0.000 A 
ATOM     22  C   UNL     1      43.526  10.802   9.789  0.00  0.00    +0.000 A 
ATOM     23  N   UNL     1      43.126  10.705   8.506  0.00  0.00    +0.000 NA
ATOM     24  C   UNL     1      43.937  11.275   7.600  0.00  0.00    +0.000 A 
ATOM     25  N   UNL     1      45.079  11.925   7.864  0.00  0.00    +0.000 NA
ATOM     26  C   UNL     1      45.429  11.987   9.166  0.00  0.00    +0.000 A 
ENDBRANCH  20  21
ENDBRANCH  18  20
ENDBRANCH  17  18
ENDBRANCH   4  17
TORSDOF 8
ENDMDL
MODEL 9
REMARK VINA RESULT:    -6.693      2.285      3.830
REMARK INTER + INTRA:         -10.751
REMARK INTER:                  -9.910
REMARK INTRA:                  -0.841
REMARK UNBOUND:                -0.928
REMARK  Name = 
REMARK  8 active torsions:
REMARK  status: ('A' for Active; 'I' for Inactive)
REMARK    1  A    between atoms: C_2  and  O_3
REMARK    2  A    between atoms: C_2  and  C_11
REMARK    3  A    between atoms: O_3  and  C_4
REMARK    4  A    between atoms: C_4  and  C_5
REMARK    5  A    between atoms: C_14  and  C_15
REMARK    6  A    between atoms: C_15  and  N_16
REMARK    7  A    between atoms: N_16  and  C_17
REMARK    8  A    between atoms: C_17  and  C_18
REMARK                            x       y       z     vdW  Elec       q    Type
REMARK                         _______ _______ _______ _____ _____    ______ ____
ROOT
ATOM      1  C   UNL     1      44.915   5.041  11.715  0.00  0.00    +0.000 A 
ATOM      2  C   UNL     1      45.274   4.054  12.641  0.00  0.00    +0.000 A 
ATOM      3  C   UNL     1      46.271   4.302  13.593  0.00  0.00    +0.000 A 
ATOM      4  C   UNL     1      46.930   5.539  13.633  0.00  0.00    +0.000 A 
ATOM      5  C   UNL     1      46.561   6.526  12.708  0.00  0.00    +0.000 A 
ATOM      6  C   UNL     1      45.562   6.283  11.757  0.00  0.00    +0.000 A 
ENDROOT
BRANCH   1   8
ATOM      7  O   UNL     1      42.769   5.286  10.695  0.00  0.00    +0.000 OA
ATOM      8  C   UNL     1      43.854   4.723  10.717  0.00  0.00    +0.000 C 
BRANCH   8   9
ATOM      9  O   UNL     1      44.252   3.735   9.881  0.00  0.00    +0.000 OA
BRANCH   9  10
ATOM     10  C   UNL     1      44.693   4.145   8.579  0.00  0.00    +0.000 C 
BRANCH  10  11
ATOM     11  C   UNL     1      45.621   3.101   8.029  0.00  0.00    +0.000 A 
ATOM     12  C   UNL     1      46.533   3.398   7.012  0.00  0.00    +0.000 A 
ATOM     13  C   UNL     1      47.393   2.408   6.546  0.00  0.00    +0.000 A 
ATOM     14  C   UNL     1      47.319   1.150   7.119  0.00  0.00    +0.000 A 
ATOM     15  N   UNL     1      46.456   0.826   8.105  0.00  0.00    +0.000 NA
ATOM     16  C   UNL     1      45.631   1.807   8.539  0.00  0.00    +0.000 A 
ENDBRANCH  10  11
ENDBRANCH   9  10
ENDBRANCH   8   9
ENDBRANCH   1   8
BRANCH   4  17
ATOM     17  C   UNL     1      47.994   5.815  14.675  0.00  0.00    +0.000 C 
BRANCH  17  18
ATOM     18  N   UNL     1      48.197   7.251  14.872  0.00  0.00    +0.000 NA
ATOM     19  H   UNL     1      47.555   7.576  15.594  0.00  0.00    +0.000 HD
BRANCH  18  20
ATOM     20  C   UNL     1      49.572   7.542  15.275  0.00  0.00    +0.000 C 
BRANCH  20  21
ATOM     21  C   UNL     1      50.383   8.061  14.129  0.00  0.00    +0.000 A 
ATOM     22  C   UNL     1      51.742   8.294  14.217  0.00  0.00    +0.000 A 
ATOM     23  N   UNL     1      52.498   8.747  13.198  0.00  0.00    +0.000 NA
ATOM     24  C   UNL     1      51.846   8.968  12.045  0.00  0.00    +0.000 A 
ATOM     25  N   UNL     1      50.538   8.771  11.830  0.00  0.00    +0.000 NA
ATOM     26  C   UNL     1      49.833   8.319  12.889  0.00  0.00    +0.000 A 
ENDBRANCH  20  21
ENDBRANCH  18  20
ENDBRANCH  17  18
ENDBRANCH   4  17
TORSDOF 8
ENDMDL
