MODEL 1
REMARK VINA RESULT:    -7.986      0.000      0.000
REMARK INTER + INTRA:         -12.595
REMARK INTER:                 -11.721
REMARK INTRA:                  -0.874
REMARK UNBOUND:                -0.874
REMARK  Name = 
REMARK  10 active torsions:
REMARK  status: ('A' for Active; 'I' for Inactive)
REMARK    1  A    between atoms: C_1  and  O_2
REMARK    2  A    between atoms: O_2  and  C_3
REMARK    3  A    between atoms: C_7  and  C_8
REMARK    4  A    between atoms: C_8  and  N_9
REMARK    5  A    between atoms: N_9  and  C_10
REMARK    6  A    between atoms: N_9  and  C_11
REMARK    7  A    between atoms: C_11  and  C_12
REMARK    8  A    between atoms: C_15  and  C_16
REMARK    9  A    between atoms: C_16  and  N_17
REMARK   10  A    between atoms: C_18  and  C_20
REMARK                            x       y       z     vdW  Elec       q    Type
REMARK                         _______ _______ _______ _____ _____    ______ ____
ROOT
ATOM      1  C   UNL     1      46.443   4.744  13.064  0.00  0.00    +0.000 A 
ATOM      2  C   UNL     1      46.871   4.079  14.209  0.00  0.00    +0.000 A 
ATOM      3  N   UNL     1      47.699   4.643  15.121  0.00  0.00    +0.000 NA
ATOM      4  C   UNL     1      48.092   5.915  14.852  0.00  0.00    +0.000 A 
ATOM      5  C   UNL     1      47.670   6.575  13.703  0.00  0.00    +0.000 A 
ATOM      6  N   UNL     1      46.850   6.009  12.787  0.00  0.00    +0.000 NA
ENDROOT
BRANCH   1   7
ATOM      7  C   UNL     1      45.384   4.133  12.174  0.00  0.00    +0.000 C 
BRANCH   7   8
ATOM      8  N   UNL     1      44.360   5.111  11.739  0.00  0.00    +0.000 NA
ATOM      9  C   UNL     1      43.416   5.346  12.838  0.00  0.00    +0.000 C 
BRANCH   8  10
ATOM     10  C   UNL     1      43.654   4.610  10.529  0.00  0.00    +0.000 C 
BRANCH  10  15
ATOM     11  C   UNL     1      45.641   2.118   8.470  0.00  0.00    +0.000 A 
ATOM     12  C   UNL     1      46.401   2.994   7.704  0.00  0.00    +0.000 A 
ATOM     13  C   UNL     1      46.194   4.350   7.869  0.00  0.00    +0.000 A 
ATOM     14  N   UNL     1      45.316   4.877   8.746  0.00  0.00    +0.000 NA
ATOM     15  C   UNL     1      44.577   4.010   9.482  0.00  0.00    +0.000 A 
ATOM     16  C   UNL     1      44.685   2.627   9.341  0.00  0.00    +0.000 A 
BRANCH  11  18
ATOM     17  C   UNL     1      46.846   0.270   7.652  0.00  0.00    +0.000 C 
ATOM     18  O   UNL     1      45.745   0.754   8.421  0.00  0.00    +0.000 OA
ENDBRANCH  11  18
ENDBRANCH  10  15
ENDBRANCH   8  10
ENDBRANCH   7   8
ENDBRANCH   1   7
BRANCH   4  19
ATOM     19  C   UNL     1      48.940   6.636  15.867  0.00  0.00    +0.000 C 
BRANCH  19  20
ATOM     20  N   UNL     1      49.973   5.776  16.404  0.00  0.00    +0.000 N 
ATOM     21  C   UNL     1      50.080   5.513  17.742  0.00  0.00    +0.000 C 
ATOM     22  O   UNL     1      49.268   5.965  18.546  0.00  0.00    +0.000 OA
ATOM     23  H   UNL     1      50.705   5.492  15.757  0.00  0.00    +0.000 HD
BRANCH  21  24
ATOM     24  C   UNL     1      51.195   4.660  18.187  0.00  0.00    +0.000 A 
ATOM     25  C   UNL     1      52.193   5.213  18.981  0.00  0.00    +0.000 A 
ATOM     26  S   UNL     1      53.414   4.111  19.420  0.00  0.00    +0.000 S 
ATOM     27  C   UNL     1      52.664   2.853  18.556  0.00  0.00    +0.000 A 
ATOM     28  N   UNL     1      53.227   1.616  18.505  0.00  0.00    +0.000 NA
ATOM     29  C   UNL     1      52.554   0.753  17.817  0.00  0.00    +0.000 A 
ATOM     30  N   UNL     1      51.370   1.010  17.187  0.00  0.00    +0.000 N 
ATOM     31  C   UNL     1      50.763   2.246  17.211  0.00  0.00    +0.000 A 
ATOM     32  O   UNL     1      49.704   2.441  16.628  0.00  0.00    +0.000 OA
ATOM     33  C   UNL     1      51.485   3.262  17.958  0.00  0.00    +0.000 A 
ATOM     34  H   UNL     1      50.887   0.293  16.667  0.00  0.00    +0.000 HD
ENDBRANCH  21  24
ENDBRANCH  19  20
ENDBRANCH   4  19
TORSDOF 8
ENDMDL
MODEL 2
REMARK VINA RESULT:    -7.728      2.577      2.900
REMARK INTER + INTRA:         -12.216
REMARK INTER:                 -11.293
REMARK INTRA:                  -0.923
REMARK UNBOUND:                -0.874
REMARK  Name = 
REMARK  10 active torsions:
REMARK  status: ('A' for Active; 'I' for Inactive)
REMARK    1  A    between atoms: C_1  and  O_2
REMARK    2  A    between atoms: O_2  and  C_3
REMARK    3  A    between atoms: C_7  and  C_8
REMARK    4  A    between atoms: C_8  and  N_9
REMARK    5  A    between atoms: N_9  and  C_10
REMARK    6  A    between atoms: N_9  and  C_11
REMARK    7  A    between atoms: C_11  and  C_12
REMARK    8  A    between atoms: C_15  and  C_16
REMARK    9  A    between atoms: C_16  and  N_17
REMARK   10  A    between atoms: C_18  and  C_20
REMARK                            x       y       z     vdW  Elec       q    Type
REMARK                         _______ _______ _______ _____ _____    ______ ____
ROOT
ATOM      1  C   UNL     1      45.526   5.356  13.228  0.00  0.00    +0.000 A 
ATOM      2  C   UNL     1      46.518   4.598  13.844  0.00  0.00    +0.000 A 
ATOM      3  N   UNL     1      47.711   5.118  14.223  0.00  0.00    +0.000 NA
ATOM      4  C   UNL     1      47.885   6.439  13.968  0.00  0.00    +0.000 A 
ATOM      5  C   UNL     1      46.896   7.193  13.345  0.00  0.00    +0.000 A 
ATOM      6  N   UNL     1      45.709   6.673  12.957  0.00  0.00    +0.000 NA
ENDROOT
BRANCH   1   7
ATOM      7  C   UNL     1      44.154   4.768  12.986  0.00  0.00    +0.000 C 
BRANCH   7   8
ATOM      8  N   UNL     1      43.664   4.994  11.606  0.00  0.00    +0.000 NA
ATOM      9  C   UNL     1      42.441   5.804  11.652  0.00  0.00    +0.000 C 
BRANCH   8  10
ATOM     10  C   UNL     1      43.415   3.692  10.931  0.00  0.00    +0.000 C 
BRANCH  10  15
ATOM     11  C   UNL     1      45.670   1.914   8.451  0.00  0.00    +0.000 A 
ATOM     12  C   UNL     1      46.168   3.009   7.755  0.00  0.00    +0.000 A 
ATOM     13  C   UNL     1      45.708   4.265   8.102  0.00  0.00    +0.000 A 
ATOM     14  N   UNL     1      44.824   4.497   9.093  0.00  0.00    +0.000 NA
ATOM     15  C   UNL     1      44.343   3.418   9.760  0.00  0.00    +0.000 A 
ATOM     16  C   UNL     1      44.712   2.113   9.439  0.00  0.00    +0.000 A 
BRANCH  11  18
ATOM     17  C   UNL     1      47.150   0.462   7.338  0.00  0.00    +0.000 C 
ATOM     18  O   UNL     1      46.041   0.616   8.224  0.00  0.00    +0.000 OA
ENDBRANCH  11  18
ENDBRANCH  10  15
ENDBRANCH   8  10
ENDBRANCH   7   8
ENDBRANCH   1   7
BRANCH   4  19
ATOM     19  C   UNL     1      49.151   7.104  14.444  0.00  0.00    +0.000 C 
BRANCH  19  20
ATOM     20  N   UNL     1      49.132   7.320  15.874  0.00  0.00    +0.000 N 
ATOM     21  C   UNL     1      49.742   6.464  16.749  0.00  0.00    +0.000 C 
ATOM     22  O   UNL     1      50.376   5.490  16.348  0.00  0.00    +0.000 OA
ATOM     23  H   UNL     1      48.520   8.060  16.211  0.00  0.00    +0.000 HD
BRANCH  21  24
ATOM     24  C   UNL     1      49.625   6.753  18.188  0.00  0.00    +0.000 A 
ATOM     25  C   UNL     1      49.925   8.031  18.646  0.00  0.00    +0.000 A 
ATOM     26  S   UNL     1      49.743   8.221  20.329  0.00  0.00    +0.000 S 
ATOM     27  C   UNL     1      49.269   6.598  20.514  0.00  0.00    +0.000 A 
ATOM     28  N   UNL     1      48.985   6.096  21.745  0.00  0.00    +0.000 NA
ATOM     29  C   UNL     1      48.635   4.852  21.746  0.00  0.00    +0.000 A 
ATOM     30  N   UNL     1      48.535   4.070  20.630  0.00  0.00    +0.000 N 
ATOM     31  C   UNL     1      48.813   4.534  19.364  0.00  0.00    +0.000 A 
ATOM     32  O   UNL     1      48.719   3.801  18.387  0.00  0.00    +0.000 OA
ATOM     33  C   UNL     1      49.227   5.926  19.305  0.00  0.00    +0.000 A 
ATOM     34  H   UNL     1      48.252   3.103  20.692  0.00  0.00    +0.000 HD
ENDBRANCH  21  24
ENDBRANCH  19  20
ENDBRANCH   4  19
TORSDOF 8
ENDMDL
MODEL 3
REMARK VINA RESULT:    -7.601      3.310      8.890
REMARK INTER + INTRA:         -12.029
REMARK INTER:                 -10.622
REMARK INTRA:                  -1.407
REMARK UNBOUND:                -0.874
REMARK  Name = 
REMARK  10 active torsions:
REMARK  status: ('A' for Active; 'I' for Inactive)
REMARK    1  A    between atoms: C_1  and  O_2
REMARK    2  A    between atoms: O_2  and  C_3
REMARK    3  A    between atoms: C_7  and  C_8
REMARK    4  A    between atoms: C_8  and  N_9
REMARK    5  A    between atoms: N_9  and  C_10
REMARK    6  A    between atoms: N_9  and  C_11
REMARK    7  A    between atoms: C_11  and  C_12
REMARK    8  A    between atoms: C_15  and  C_16
REMARK    9  A    between atoms: C_16  and  N_17
REMARK   10  A    between atoms: C_18  and  C_20
REMARK                            x       y       z     vdW  Elec       q    Type
REMARK                         _______ _______ _______ _____ _____    ______ ____
ROOT
ATOM      1  C   UNL     1      50.022   7.529  15.374  0.00  0.00    +0.000 A 
ATOM      2  C   UNL     1      50.166   8.633  14.538  0.00  0.00    +0.000 A 
ATOM      3  N   UNL     1      49.497   8.761  13.367  0.00  0.00    +0.000 NA
ATOM      4  C   UNL     1      48.662   7.738  13.052  0.00  0.00    +0.000 A 
ATOM      5  C   UNL     1      48.524   6.632  13.885  0.00  0.00    +0.000 A 
ATOM      6  N   UNL     1      49.201   6.499  15.049  0.00  0.00    +0.000 NA
ENDROOT
BRANCH   1   7
ATOM      7  C   UNL     1      50.658   7.520  16.747  0.00  0.00    +0.000 C 
BRANCH   7   8
ATOM      8  N   UNL     1      49.667   7.387  17.840  0.00  0.00    +0.000 NA
ATOM      9  C   UNL     1      49.735   8.573  18.702  0.00  0.00    +0.000 C 
BRANCH   8  10
ATOM     10  C   UNL     1      49.928   6.147  18.620  0.00  0.00    +0.000 C 
BRANCH  10  15
ATOM     11  C   UNL     1      49.315   2.764  17.014  0.00  0.00    +0.000 A 
ATOM     12  C   UNL     1      47.930   2.801  16.905  0.00  0.00    +0.000 A 
ATOM     13  C   UNL     1      47.266   3.907  17.401  0.00  0.00    +0.000 A 
ATOM     14  N   UNL     1      47.882   4.966  17.962  0.00  0.00    +0.000 NA
ATOM     15  C   UNL     1      49.234   4.915  18.067  0.00  0.00    +0.000 A 
ATOM     16  C   UNL     1      49.977   3.814  17.641  0.00  0.00    +0.000 A 
BRANCH  11  18
ATOM     17  C   UNL     1      51.319   1.561  17.284  0.00  0.00    +0.000 C 
ATOM     18  O   UNL     1      50.103   1.742  16.558  0.00  0.00    +0.000 OA
ENDBRANCH  11  18
ENDBRANCH  10  15
ENDBRANCH   8  10
ENDBRANCH   7   8
ENDBRANCH   1   7
BRANCH   4  19
ATOM     19  C   UNL     1      47.817   7.854  11.810  0.00  0.00    +0.000 C 
BRANCH  19  20
ATOM     20  N   UNL     1      47.057   6.647  11.569  0.00  0.00    +0.000 N 
ATOM     21  C   UNL     1      45.721   6.559  11.846  0.00  0.00    +0.000 C 
ATOM     22  O   UNL     1      45.095   7.527  12.273  0.00  0.00    +0.000 OA
ATOM     23  H   UNL     1      47.593   5.818  11.320  0.00  0.00    +0.000 HD
BRANCH  21  24
ATOM     24  C   UNL     1      45.052   5.270  11.604  0.00  0.00    +0.000 A 
ATOM     25  C   UNL     1      44.335   4.678  12.637  0.00  0.00    +0.000 A 
ATOM     26  S   UNL     1      43.615   3.193  12.213  0.00  0.00    +0.000 S 
ATOM     27  C   UNL     1      44.244   3.277  10.636  0.00  0.00    +0.000 A 
ATOM     28  N   UNL     1      44.012   2.278   9.744  0.00  0.00    +0.000 NA
ATOM     29  C   UNL     1      44.544   2.467   8.581  0.00  0.00    +0.000 A 
ATOM     30  N   UNL     1      45.277   3.565   8.228  0.00  0.00    +0.000 N 
ATOM     31  C   UNL     1      45.537   4.601   9.097  0.00  0.00    +0.000 A 
ATOM     32  O   UNL     1      46.204   5.567   8.747  0.00  0.00    +0.000 OA
ATOM     33  C   UNL     1      44.975   4.434  10.427  0.00  0.00    +0.000 A 
ATOM     34  H   UNL     1      45.665   3.660   7.302  0.00  0.00    +0.000 HD
ENDBRANCH  21  24
ENDBRANCH  19  20
ENDBRANCH   4  19
TORSDOF 8
ENDMDL
MODEL 4
REMARK VINA RESULT:    -7.213      3.297      5.154
REMARK INTER + INTRA:         -11.461
REMARK INTER:                 -10.722
REMARK INTRA:                  -0.738
REMARK UNBOUND:                -0.874
REMARK  Name = 
REMARK  10 active torsions:
REMARK  status: ('A' for Active; 'I' for Inactive)
REMARK    1  A    between atoms: C_1  and  O_2
REMARK    2  A    between atoms: O_2  and  C_3
REMARK    3  A    between atoms: C_7  and  C_8
REMARK    4  A    between atoms: C_8  and  N_9
REMARK    5  A    between atoms: N_9  and  C_10
REMARK    6  A    between atoms: N_9  and  C_11
REMARK    7  A    between atoms: C_11  and  C_12
REMARK    8  A    between atoms: C_15  and  C_16
REMARK    9  A    between atoms: C_16  and  N_17
REMARK   10  A    between atoms: C_18  and  C_20
REMARK                            x       y       z     vdW  Elec       q    Type
REMARK                         _______ _______ _______ _____ _____    ______ ____
ROOT
ATOM      1  C   UNL     1      46.663   4.675  13.744  0.00  0.00    +0.000 A 
ATOM      2  C   UNL     1      47.581   5.718  13.655  0.00  0.00    +0.000 A 
ATOM      3  N   UNL     1      48.414   6.053  14.670  0.00  0.00    +0.000 NA
ATOM      4  C   UNL     1      48.306   5.300  15.794  0.00  0.00    +0.000 A 
ATOM      5  C   UNL     1      47.384   4.263  15.884  0.00  0.00    +0.000 A 
ATOM      6  N   UNL     1      46.544   3.934  14.875  0.00  0.00    +0.000 NA
ENDROOT
BRANCH   1   7
ATOM      7  C   UNL     1      45.884   4.235  12.525  0.00  0.00    +0.000 C 
BRANCH   7   8
ATOM      8  N   UNL     1      45.196   5.356  11.844  0.00  0.00    +0.000 NA
ATOM      9  C   UNL     1      44.465   6.151  12.837  0.00  0.00    +0.000 C 
BRANCH   8  10
ATOM     10  C   UNL     1      44.276   4.833  10.798  0.00  0.00    +0.000 C 
BRANCH  10  15
ATOM     11  C   UNL     1      45.749   2.207   8.490  0.00  0.00    +0.000 A 
ATOM     12  C   UNL     1      46.441   3.028   7.607  0.00  0.00    +0.000 A 
ATOM     13  C   UNL     1      46.353   4.395   7.785  0.00  0.00    +0.000 A 
ATOM     14  N   UNL     1      45.659   4.983   8.779  0.00  0.00    +0.000 NA
ATOM     15  C   UNL     1      44.985   4.170   9.630  0.00  0.00    +0.000 A 
ATOM     16  C   UNL     1      44.975   2.782   9.491  0.00  0.00    +0.000 A 
BRANCH  11  18
ATOM     17  C   UNL     1      46.800   0.275   7.655  0.00  0.00    +0.000 C 
ATOM     18  O   UNL     1      45.753   0.839   8.442  0.00  0.00    +0.000 OA
ENDBRANCH  11  18
ENDBRANCH  10  15
ENDBRANCH   8  10
ENDBRANCH   7   8
ENDBRANCH   1   7
BRANCH   4  19
ATOM     19  C   UNL     1      49.263   5.557  16.928  0.00  0.00    +0.000 C 
BRANCH  19  20
ATOM     20  N   UNL     1      48.916   6.761  17.653  0.00  0.00    +0.000 N 
ATOM     21  C   UNL     1      48.007   6.761  18.674  0.00  0.00    +0.000 C 
ATOM     22  O   UNL     1      47.476   5.719  19.052  0.00  0.00    +0.000 OA
ATOM     23  H   UNL     1      49.272   7.635  17.272  0.00  0.00    +0.000 HD
BRANCH  21  24
ATOM     24  C   UNL     1      47.695   8.048  19.316  0.00  0.00    +0.000 A 
ATOM     25  C   UNL     1      47.410   8.073  20.676  0.00  0.00    +0.000 A 
ATOM     26  S   UNL     1      47.069   9.628  21.281  0.00  0.00    +0.000 S 
ATOM     27  C   UNL     1      47.277  10.329  19.746  0.00  0.00    +0.000 A 
ATOM     28  N   UNL     1      47.099  11.665  19.565  0.00  0.00    +0.000 NA
ATOM     29  C   UNL     1      47.290  12.068  18.351  0.00  0.00    +0.000 A 
ATOM     30  N   UNL     1      47.650  11.262  17.309  0.00  0.00    +0.000 N 
ATOM     31  C   UNL     1      47.840   9.905  17.445  0.00  0.00    +0.000 A 
ATOM     32  O   UNL     1      48.157   9.212  16.486  0.00  0.00    +0.000 OA
ATOM     33  C   UNL     1      47.624   9.393  18.788  0.00  0.00    +0.000 A 
ATOM     34  H   UNL     1      47.789  11.635  16.382  0.00  0.00    +0.000 HD
ENDBRANCH  21  24
ENDBRANCH  19  20
ENDBRANCH   4  19
TORSDOF 8
ENDMDL
MODEL 5
REMARK VINA RESULT:    -6.946      3.801      8.430
REMARK INTER + INTRA:         -11.068
REMARK INTER:                 -10.117
REMARK INTRA:                  -0.951
REMARK UNBOUND:                -0.874
REMARK  Name = 
REMARK  10 active torsions:
REMARK  status: ('A' for Active; 'I' for Inactive)
REMARK    1  A    between atoms: C_1  and  O_2
REMARK    2  A    between atoms: O_2  and  C_3
REMARK    3  A    between atoms: C_7  and  C_8
REMARK    4  A    between atoms: C_8  and  N_9
REMARK    5  A    between atoms: N_9  and  C_10
REMARK    6  A    between atoms: N_9  and  C_11
REMARK    7  A    between atoms: C_11  and  C_12
REMARK    8  A    between atoms: C_15  and  C_16
REMARK    9  A    between atoms: C_16  and  N_17
REMARK   10  A    between atoms: C_18  and  C_20
REMARK                            x       y       z     vdW  Elec       q    Type
REMARK                         _______ _______ _______ _____ _____    ______ ____
ROOT
ATOM      1  C   UNL     1      49.584   7.650  17.690  0.00  0.00    +0.000 A 
ATOM      2  C   UNL     1      48.666   8.389  16.948  0.00  0.00    +0.000 A 
ATOM      3  N   UNL     1      48.659   8.405  15.593  0.00  0.00    +0.000 NA
ATOM      4  C   UNL     1      49.609   7.646  14.990  0.00  0.00    +0.000 A 
ATOM      5  C   UNL     1      50.530   6.914  15.733  0.00  0.00    +0.000 A 
ATOM      6  N   UNL     1      50.545   6.906  17.086  0.00  0.00    +0.000 NA
ENDROOT
BRANCH   1   7
ATOM      7  C   UNL     1      49.436   7.530  19.190  0.00  0.00    +0.000 C 
BRANCH   7   8
ATOM      8  N   UNL     1      48.084   7.085  19.603  0.00  0.00    +0.000 NA
ATOM      9  C   UNL     1      47.619   7.919  20.717  0.00  0.00    +0.000 C 
BRANCH   8  10
ATOM     10  C   UNL     1      48.114   5.649  19.989  0.00  0.00    +0.000 C 
BRANCH  10  15
ATOM     11  C   UNL     1      49.192   3.125  17.368  0.00  0.00    +0.000 A 
ATOM     12  C   UNL     1      48.064   3.131  16.555  0.00  0.00    +0.000 A 
ATOM     13  C   UNL     1      46.996   3.923  16.929  0.00  0.00    +0.000 A 
ATOM     14  N   UNL     1      46.989   4.712  18.021  0.00  0.00    +0.000 NA
ATOM     15  C   UNL     1      48.094   4.693  18.809  0.00  0.00    +0.000 A 
ATOM     16  C   UNL     1      49.195   3.882  18.534  0.00  0.00    +0.000 A 
BRANCH  11  18
ATOM     17  C   UNL     1      51.537   3.029  17.537  0.00  0.00    +0.000 C 
ATOM     18  O   UNL     1      50.326   2.400  17.118  0.00  0.00    +0.000 OA
ENDBRANCH  11  18
ENDBRANCH  10  15
ENDBRANCH   8  10
ENDBRANCH   7   8
ENDBRANCH   1   7
BRANCH   4  19
ATOM     19  C   UNL     1      49.604   7.545  13.487  0.00  0.00    +0.000 C 
BRANCH  19  20
ATOM     20  N   UNL     1      48.269   7.327  12.974  0.00  0.00    +0.000 N 
ATOM     21  C   UNL     1      47.599   6.150  13.161  0.00  0.00    +0.000 C 
ATOM     22  O   UNL     1      48.091   5.235  13.818  0.00  0.00    +0.000 OA
ATOM     23  H   UNL     1      47.906   8.038  12.342  0.00  0.00    +0.000 HD
BRANCH  21  24
ATOM     24  C   UNL     1      46.262   6.017  12.559  0.00  0.00    +0.000 A 
ATOM     25  C   UNL     1      45.642   7.145  12.036  0.00  0.00    +0.000 A 
ATOM     26  S   UNL     1      44.103   6.842  11.372  0.00  0.00    +0.000 S 
ATOM     27  C   UNL     1      44.198   5.191  11.770  0.00  0.00    +0.000 A 
ATOM     28  N   UNL     1      43.167   4.351  11.489  0.00  0.00    +0.000 NA
ATOM     29  C   UNL     1      43.369   3.123  11.840  0.00  0.00    +0.000 A 
ATOM     30  N   UNL     1      44.508   2.661  12.437  0.00  0.00    +0.000 N 
ATOM     31  C   UNL     1      45.576   3.474  12.740  0.00  0.00    +0.000 A 
ATOM     32  O   UNL     1      46.579   3.024  13.281  0.00  0.00    +0.000 OA
ATOM     33  C   UNL     1      45.398   4.871  12.380  0.00  0.00    +0.000 A 
ATOM     34  H   UNL     1      44.611   1.688  12.685  0.00  0.00    +0.000 HD
ENDBRANCH  21  24
ENDBRANCH  19  20
ENDBRANCH   4  19
TORSDOF 8
ENDMDL
MODEL 6
REMARK VINA RESULT:    -6.828      1.652      2.313
REMARK INTER + INTRA:         -10.895
REMARK INTER:                 -10.571
REMARK INTRA:                  -0.324
REMARK UNBOUND:                -0.874
REMARK  Name = 
REMARK  10 active torsions:
REMARK  status: ('A' for Active; 'I' for Inactive)
REMARK    1  A    between atoms: C_1  and  O_2
REMARK    2  A    between atoms: O_2  and  C_3
REMARK    3  A    between atoms: C_7  and  C_8
REMARK    4  A    between atoms: C_8  and  N_9
REMARK    5  A    between atoms: N_9  and  C_10
REMARK    6  A    between atoms: N_9  and  C_11
REMARK    7  A    between atoms: C_11  and  C_12
REMARK    8  A    between atoms: C_15  and  C_16
REMARK    9  A    between atoms: C_16  and  N_17
REMARK   10  A    between atoms: C_18  and  C_20
REMARK                            x       y       z     vdW  Elec       q    Type
REMARK                         _______ _______ _______ _____ _____    ______ ____
ROOT
ATOM      1  C   UNL     1      47.429   6.010  13.557  0.00  0.00    +0.000 A 
ATOM      2  C   UNL     1      48.316   6.714  14.367  0.00  0.00    +0.000 A 
ATOM      3  N   UNL     1      48.657   6.305  15.613  0.00  0.00    +0.000 NA
ATOM      4  C   UNL     1      48.080   5.150  16.032  0.00  0.00    +0.000 A 
ATOM      5  C   UNL     1      47.188   4.452  15.225  0.00  0.00    +0.000 A 
ATOM      6  N   UNL     1      46.839   4.865  13.984  0.00  0.00    +0.000 NA
ENDROOT
BRANCH   1   7
ATOM      7  C   UNL     1      47.221   6.417  12.116  0.00  0.00    +0.000 C 
BRANCH   7   8
ATOM      8  N   UNL     1      45.899   7.044  11.878  0.00  0.00    +0.000 NA
ATOM      9  C   UNL     1      45.751   8.210  12.756  0.00  0.00    +0.000 C 
BRANCH   8  10
ATOM     10  C   UNL     1      44.814   6.055  12.118  0.00  0.00    +0.000 C 
BRANCH  10  15
ATOM     11  C   UNL     1      45.155   4.093   8.888  0.00  0.00    +0.000 A 
ATOM     12  C   UNL     1      44.495   2.924   9.249  0.00  0.00    +0.000 A 
ATOM     13  C   UNL     1      44.013   2.821  10.540  0.00  0.00    +0.000 A 
ATOM     14  N   UNL     1      44.121   3.795  11.465  0.00  0.00    +0.000 NA
ATOM     15  C   UNL     1      44.772   4.928  11.100  0.00  0.00    +0.000 A 
ATOM     16  C   UNL     1      45.336   5.094   9.836  0.00  0.00    +0.000 A 
BRANCH  11  18
ATOM     17  C   UNL     1      46.685   3.421   7.232  0.00  0.00    +0.000 C 
ATOM     18  O   UNL     1      45.674   4.339   7.645  0.00  0.00    +0.000 OA
ENDBRANCH  11  18
ENDBRANCH  10  15
ENDBRANCH   8  10
ENDBRANCH   7   8
ENDBRANCH   1   7
BRANCH   4  19
ATOM     19  C   UNL     1      48.482   4.589  17.371  0.00  0.00    +0.000 C 
BRANCH  19  20
ATOM     20  N   UNL     1      49.840   4.091  17.352  0.00  0.00    +0.000 N 
ATOM     21  C   UNL     1      50.681   4.224  18.422  0.00  0.00    +0.000 C 
ATOM     22  O   UNL     1      50.299   4.738  19.471  0.00  0.00    +0.000 OA
ATOM     23  H   UNL     1      50.189   3.766  16.452  0.00  0.00    +0.000 HD
BRANCH  21  24
ATOM     24  C   UNL     1      52.058   3.721  18.281  0.00  0.00    +0.000 A 
ATOM     25  C   UNL     1      53.119   4.555  18.612  0.00  0.00    +0.000 A 
ATOM     26  S   UNL     1      54.650   3.840  18.401  0.00  0.00    +0.000 S 
ATOM     27  C   UNL     1      53.956   2.390  17.847  0.00  0.00    +0.000 A 
ATOM     28  N   UNL     1      54.742   1.348  17.465  0.00  0.00    +0.000 NA
ATOM     29  C   UNL     1      54.088   0.306  17.067  0.00  0.00    +0.000 A 
ATOM     30  N   UNL     1      52.726   0.209  17.025  0.00  0.00    +0.000 N 
ATOM     31  C   UNL     1      51.891   1.237  17.401  0.00  0.00    +0.000 A 
ATOM     32  O   UNL     1      50.674   1.116  17.343  0.00  0.00    +0.000 OA
ATOM     33  C   UNL     1      52.573   2.442  17.844  0.00  0.00    +0.000 A 
ATOM     34  H   UNL     1      52.270  -0.634  16.708  0.00  0.00    +0.000 HD
ENDBRANCH  21  24
ENDBRANCH  19  20
ENDBRANCH   4  19
TORSDOF 8
ENDMDL
MODEL 7
REMARK VINA RESULT:    -6.703      3.688      4.372
REMARK INTER + INTRA:         -10.712
REMARK INTER:                 -10.144
REMARK INTRA:                  -0.568
REMARK UNBOUND:                -0.874
REMARK  Name = 
REMARK  10 active torsions:
REMARK  status: ('A' for Active; 'I' for Inactive)
REMARK    1  A    between atoms: C_1  and  O_2
REMARK    2  A    between atoms: O_2  and  C_3
REMARK    3  A    between atoms: C_7  and  C_8
REMARK    4  A    between atoms: C_8  and  N_9
REMARK    5  A    between atoms: N_9  and  C_10
REMARK    6  A    between atoms: N_9  and  C_11
REMARK    7  A    between atoms: C_11  and  C_12
REMARK    8  A    between atoms: C_15  and  C_16
REMARK    9  A    between atoms: C_16  and  N_17
REMARK   10  A    between atoms: C_18  and  C_20
REMARK                            x       y       z     vdW  Elec       q    Type
REMARK                         _______ _______ _______ _____ _____    ______ ____
ROOT
ATOM      1  C   UNL     1      46.213   6.459  12.344  0.00  0.00    +0.000 A 
ATOM      2  C   UNL     1      45.808   7.790  12.287  0.00  0.00    +0.000 A 
ATOM      3  N   UNL     1      46.374   8.764  13.039  0.00  0.00    +0.000 NA
ATOM      4  C   UNL     1      47.377   8.364  13.862  0.00  0.00    +0.000 A 
ATOM      5  C   UNL     1      47.775   7.033  13.924  0.00  0.00    +0.000 A 
ATOM      6  N   UNL     1      47.204   6.058  13.181  0.00  0.00    +0.000 NA
ENDROOT
BRANCH   1   7
ATOM      7  C   UNL     1      45.668   5.450  11.359  0.00  0.00    +0.000 C 
BRANCH   7   8
ATOM      8  N   UNL     1      44.251   5.100  11.615  0.00  0.00    +0.000 NA
ATOM      9  C   UNL     1      44.188   4.060  12.648  0.00  0.00    +0.000 C 
BRANCH   8  10
ATOM     10  C   UNL     1      43.601   4.642  10.358  0.00  0.00    +0.000 C 
BRANCH  10  15
ATOM     11  C   UNL     1      45.873   3.397   7.585  0.00  0.00    +0.000 A 
ATOM     12  C   UNL     1      45.894   2.041   7.886  0.00  0.00    +0.000 A 
ATOM     13  C   UNL     1      45.202   1.611   9.002  0.00  0.00    +0.000 A 
ATOM     14  N   UNL     1      44.486   2.423   9.804  0.00  0.00    +0.000 NA
ATOM     15  C   UNL     1      44.479   3.745   9.502  0.00  0.00    +0.000 A 
ATOM     16  C   UNL     1      45.193   4.271   8.426  0.00  0.00    +0.000 A 
BRANCH  11  18
ATOM     17  C   UNL     1      47.028   3.027   5.569  0.00  0.00    +0.000 C 
ATOM     18  O   UNL     1      46.502   3.964   6.509  0.00  0.00    +0.000 OA
ENDBRANCH  11  18
ENDBRANCH  10  15
ENDBRANCH   8  10
ENDBRANCH   7   8
ENDBRANCH   1   7
BRANCH   4  19
ATOM     19  C   UNL     1      48.112   9.409  14.661  0.00  0.00    +0.000 C 
BRANCH  19  20
ATOM     20  N   UNL     1      47.812   9.307  16.073  0.00  0.00    +0.000 N 
ATOM     21  C   UNL     1      48.766   8.995  17.001  0.00  0.00    +0.000 C 
ATOM     22  O   UNL     1      49.940   8.830  16.675  0.00  0.00    +0.000 OA
ATOM     23  H   UNL     1      46.827   9.335  16.328  0.00  0.00    +0.000 HD
BRANCH  21  24
ATOM     24  C   UNL     1      48.344   8.874  18.406  0.00  0.00    +0.000 A 
ATOM     25  C   UNL     1      48.270  10.019  19.190  0.00  0.00    +0.000 A 
ATOM     26  S   UNL     1      47.768   9.729  20.791  0.00  0.00    +0.000 S 
ATOM     27  C   UNL     1      47.641   8.057  20.504  0.00  0.00    +0.000 A 
ATOM     28  N   UNL     1      47.271   7.210  21.501  0.00  0.00    +0.000 NA
ATOM     29  C   UNL     1      47.212   5.967  21.149  0.00  0.00    +0.000 A 
ATOM     30  N   UNL     1      47.480   5.498  19.894  0.00  0.00    +0.000 N 
ATOM     31  C   UNL     1      47.858   6.318  18.855  0.00  0.00    +0.000 A 
ATOM     32  O   UNL     1      48.097   5.861  17.744  0.00  0.00    +0.000 OA
ATOM     33  C   UNL     1      47.956   7.727  19.197  0.00  0.00    +0.000 A 
ATOM     34  H   UNL     1      47.412   4.515  19.677  0.00  0.00    +0.000 HD
ENDBRANCH  21  24
ENDBRANCH  19  20
ENDBRANCH   4  19
TORSDOF 8
ENDMDL
MODEL 8
REMARK VINA RESULT:    -6.205      2.892      3.374
REMARK INTER + INTRA:          -9.981
REMARK INTER:                  -9.432
REMARK INTRA:                  -0.548
REMARK UNBOUND:                -0.874
REMARK  Name = 
REMARK  10 active torsions:
REMARK  status: ('A' for Active; 'I' for Inactive)
REMARK    1  A    between atoms: C_1  and  O_2
REMARK    2  A    between atoms: O_2  and  C_3
REMARK    3  A    between atoms: C_7  and  C_8
REMARK    4  A    between atoms: C_8  and  N_9
REMARK    5  A    between atoms: N_9  and  C_10
REMARK    6  A    between atoms: N_9  and  C_11
REMARK    7  A    between atoms: C_11  and  C_12
REMARK    8  A    between atoms: C_15  and  C_16
REMARK    9  A    between atoms: C_16  and  N_17
REMARK   10  A    between atoms: C_18  and  C_20
REMARK                            x       y       z     vdW  Elec       q    Type
REMARK                         _______ _______ _______ _____ _____    ______ ____
ROOT
ATOM      1  C   UNL     1      46.785   6.546  12.436  0.00  0.00    +0.000 A 
ATOM      2  C   UNL     1      47.944   5.990  12.970  0.00  0.00    +0.000 A 
ATOM      3  N   UNL     1      48.689   6.610  13.917  0.00  0.00    +0.000 NA
ATOM      4  C   UNL     1      48.233   7.822  14.324  0.00  0.00    +0.000 A 
ATOM      5  C   UNL     1      47.079   8.380  13.783  0.00  0.00    +0.000 A 
ATOM      6  N   UNL     1      46.340   7.766  12.831  0.00  0.00    +0.000 NA
ENDROOT
BRANCH   1   7
ATOM      7  C   UNL     1      45.902   5.736  11.514  0.00  0.00    +0.000 C 
BRANCH   7   8
ATOM      8  N   UNL     1      44.478   5.746  11.924  0.00  0.00    +0.000 NA
ATOM      9  C   UNL     1      44.311   4.910  13.118  0.00  0.00    +0.000 C 
BRANCH   8  10
ATOM     10  C   UNL     1      43.621   5.259  10.809  0.00  0.00    +0.000 C 
BRANCH  10  15
ATOM     11  C   UNL     1      45.587   3.639   7.996  0.00  0.00    +0.000 A 
ATOM     12  C   UNL     1      45.316   2.301   8.257  0.00  0.00    +0.000 A 
ATOM     13  C   UNL     1      44.544   1.996   9.361  0.00  0.00    +0.000 A 
ATOM     14  N   UNL     1      44.014   2.919  10.188  0.00  0.00    +0.000 NA
ATOM     15  C   UNL     1      44.291   4.221   9.925  0.00  0.00    +0.000 A 
ATOM     16  C   UNL     1      45.106   4.613   8.864  0.00  0.00    +0.000 A 
BRANCH  11  18
ATOM     17  C   UNL     1      46.880   3.059   6.118  0.00  0.00    +0.000 C 
ATOM     18  O   UNL     1      46.326   4.089   6.936  0.00  0.00    +0.000 OA
ENDBRANCH  11  18
ENDBRANCH  10  15
ENDBRANCH   8  10
ENDBRANCH   7   8
ENDBRANCH   1   7
BRANCH   4  19
ATOM     19  C   UNL     1      48.961   8.528  15.438  0.00  0.00    +0.000 C 
BRANCH  19  20
ATOM     20  N   UNL     1      49.010   7.720  16.636  0.00  0.00    +0.000 N 
ATOM     21  C   UNL     1      48.430   8.117  17.809  0.00  0.00    +0.000 C 
ATOM     22  O   UNL     1      47.796   9.168  17.880  0.00  0.00    +0.000 OA
ATOM     23  H   UNL     1      49.623   6.907  16.608  0.00  0.00    +0.000 HD
BRANCH  21  24
ATOM     24  C   UNL     1      48.577   7.239  18.981  0.00  0.00    +0.000 A 
ATOM     25  C   UNL     1      47.475   7.012  19.797  0.00  0.00    +0.000 A 
ATOM     26  S   UNL     1      47.792   5.977  21.112  0.00  0.00    +0.000 S 
ATOM     27  C   UNL     1      49.419   5.800  20.650  0.00  0.00    +0.000 A 
ATOM     28  N   UNL     1      50.270   5.040  21.389  0.00  0.00    +0.000 NA
ATOM     29  C   UNL     1      51.476   4.988  20.926  0.00  0.00    +0.000 A 
ATOM     30  N   UNL     1      51.904   5.618  19.791  0.00  0.00    +0.000 N 
ATOM     31  C   UNL     1      51.079   6.397  19.012  0.00  0.00    +0.000 A 
ATOM     32  O   UNL     1      51.499   6.952  18.005  0.00  0.00    +0.000 OA
ATOM     33  C   UNL     1      49.711   6.504  19.494  0.00  0.00    +0.000 A 
ATOM     34  H   UNL     1      52.859   5.537  19.476  0.00  0.00    +0.000 HD
ENDBRANCH  21  24
ENDBRANCH  19  20
ENDBRANCH   4  19
TORSDOF 8
ENDMDL
MODEL 9
REMARK VINA RESULT:    -6.148      3.948      9.009
REMARK INTER + INTRA:          -9.898
REMARK INTER:                  -8.571
REMARK INTRA:                  -1.327
REMARK UNBOUND:                -0.874
REMARK  Name = 
REMARK  10 active torsions:
REMARK  status: ('A' for Active; 'I' for Inactive)
REMARK    1  A    between atoms: C_1  and  O_2
REMARK    2  A    between atoms: O_2  and  C_3
REMARK    3  A    between atoms: C_7  and  C_8
REMARK    4  A    between atoms: C_8  and  N_9
REMARK    5  A    between atoms: N_9  and  C_10
REMARK    6  A    between atoms: N_9  and  C_11
REMARK    7  A    between atoms: C_11  and  C_12
REMARK    8  A    between atoms: C_15  and  C_16
REMARK    9  A    between atoms: C_16  and  N_17
REMARK   10  A    between atoms: C_18  and  C_20
REMARK                            x       y       z     vdW  Elec       q    Type
REMARK                         _______ _______ _______ _____ _____    ______ ____
ROOT
ATOM      1  C   UNL     1      50.177   8.133  15.701  0.00  0.00    +0.000 A 
ATOM      2  C   UNL     1      50.009   7.292  14.604  0.00  0.00    +0.000 A 
ATOM      3  N   UNL     1      48.949   7.380  13.765  0.00  0.00    +0.000 NA
ATOM      4  C   UNL     1      48.048   8.353  14.055  0.00  0.00    +0.000 A 
ATOM      5  C   UNL     1      48.213   9.188  15.155  0.00  0.00    +0.000 A 
ATOM      6  N   UNL     1      49.266   9.094  16.000  0.00  0.00    +0.000 NA
ENDROOT
BRANCH   1   7
ATOM      7  C   UNL     1      51.461   8.104  16.498  0.00  0.00    +0.000 C 
BRANCH   7   8
ATOM      8  N   UNL     1      51.286   7.535  17.854  0.00  0.00    +0.000 NA
ATOM      9  C   UNL     1      52.472   7.837  18.664  0.00  0.00    +0.000 C 
BRANCH   8  10
ATOM     10  C   UNL     1      51.060   6.067  17.768  0.00  0.00    +0.000 C 
BRANCH  10  15
ATOM     11  C   UNL     1      47.608   4.593  17.211  0.00  0.00    +0.000 A 
ATOM     12  C   UNL     1      46.951   5.100  18.326  0.00  0.00    +0.000 A 
ATOM     13  C   UNL     1      47.679   5.857  19.223  0.00  0.00    +0.000 A 
ATOM     14  N   UNL     1      48.984   6.158  19.070  0.00  0.00    +0.000 NA
ATOM     15  C   UNL     1      49.614   5.653  17.980  0.00  0.00    +0.000 A 
ATOM     16  C   UNL     1      48.968   4.835  17.054  0.00  0.00    +0.000 A 
BRANCH  11  18
ATOM     17  C   UNL     1      46.972   4.455  14.950  0.00  0.00    +0.000 C 
ATOM     18  O   UNL     1      47.014   3.838  16.236  0.00  0.00    +0.000 OA
ENDBRANCH  11  18
ENDBRANCH  10  15
ENDBRANCH   8  10
ENDBRANCH   7   8
ENDBRANCH   1   7
BRANCH   4  19
ATOM     19  C   UNL     1      46.892   8.568  13.113  0.00  0.00    +0.000 C 
BRANCH  19  20
ATOM     20  N   UNL     1      46.576   7.364  12.377  0.00  0.00    +0.000 N 
ATOM     21  C   UNL     1      45.471   7.267  11.576  0.00  0.00    +0.000 C 
ATOM     22  O   UNL     1      44.719   8.226  11.412  0.00  0.00    +0.000 OA
ATOM     23  H   UNL     1      47.133   6.541  12.596  0.00  0.00    +0.000 HD
BRANCH  21  24
ATOM     24  C   UNL     1      45.219   5.981  10.905  0.00  0.00    +0.000 A 
ATOM     25  C   UNL     1      45.738   5.769   9.634  0.00  0.00    +0.000 A 
ATOM     26  S   UNL     1      45.369   4.239   8.984  0.00  0.00    +0.000 S 
ATOM     27  C   UNL     1      44.488   3.803  10.372  0.00  0.00    +0.000 A 
ATOM     28  N   UNL     1      43.873   2.593  10.450  0.00  0.00    +0.000 NA
ATOM     29  C   UNL     1      43.241   2.388  11.559  0.00  0.00    +0.000 A 
ATOM     30  N   UNL     1      43.174   3.275  12.595  0.00  0.00    +0.000 N 
ATOM     31  C   UNL     1      43.780   4.511  12.560  0.00  0.00    +0.000 A 
ATOM     32  O   UNL     1      43.693   5.284  13.506  0.00  0.00    +0.000 OA
ATOM     33  C   UNL     1      44.495   4.803  11.328  0.00  0.00    +0.000 A 
ATOM     34  H   UNL     1      42.668   3.057  13.440  0.00  0.00    +0.000 HD
ENDBRANCH  21  24
ENDBRANCH  19  20
ENDBRANCH   4  19
TORSDOF 8
ENDMDL
