MODEL 1
REMARK VINA RESULT:    -8.063      0.000      0.000
REMARK INTER + INTRA:         -10.970
REMARK INTER:                 -10.419
REMARK INTRA:                  -0.550
REMARK UNBOUND:                -0.550
REMARK  Name = 
REMARK  5 active torsions:
REMARK  status: ('A' for Active; 'I' for Inactive)
REMARK    1  A    between atoms: C_2  and  C_4
REMARK    2  A    between atoms: C_8  and  O_9
REMARK    3  A    between atoms: O_9  and  C_10
REMARK    4  A    between atoms: C_10  and  C_11
REMARK    5  A    between atoms: C_15  and  C_16
REMARK                            x       y       z     vdW  Elec       q    Type
REMARK                         _______ _______ _______ _____ _____    ______ ____
ROOT
ATOM      1  C   UNL     1      43.893   4.613  10.817  0.00  0.00    +0.000 C 
ENDROOT
BRANCH   1   2
ATOM      2  C   UNL     1      44.949   4.762  11.870  0.00  0.00    +0.000 A 
ATOM      3  C   UNL     1      45.320   3.678  12.652  0.00  0.00    +0.000 A 
ATOM      4  N   UNL     1      46.240   3.741  13.634  0.00  0.00    +0.000 NA
ATOM      5  C   UNL     1      46.821   4.945  13.852  0.00  0.00    +0.000 A 
ATOM      6  C   UNL     1      46.536   6.105  13.132  0.00  0.00    +0.000 A 
ATOM      7  C   UNL     1      45.593   5.983  12.103  0.00  0.00    +0.000 A 
BRANCH   6   8
ATOM      8  C   UNL     1      47.177   7.452  13.424  0.00  0.00    +0.000 C 
ATOM      9  C   UNL     1      47.477   8.262  12.150  0.00  0.00    +0.000 C 
ATOM     10  C   UNL     1      48.748   7.788  11.449  0.00  0.00    +0.000 C 
ATOM     11  C   UNL     1      49.932   7.670  12.409  0.00  0.00    +0.000 C 
ATOM     12  N   UNL     1      49.624   6.886  13.601  0.00  0.00    +0.000 NA
ATOM     13  C   UNL     1      48.444   7.388  14.309  0.00  0.00    +0.000 C 
ATOM     14  H   UNL     1      50.427   6.881  14.230  0.00  0.00    +0.000 HD
ENDBRANCH   6   8
ENDBRANCH   1   2
BRANCH   1  15
ATOM     15  O   UNL     1      44.489   4.809   9.538  0.00  0.00    +0.000 OA
BRANCH  15  20
ATOM     16  C   UNL     1      46.545   2.523   7.471  0.00  0.00    +0.000 A 
ATOM     17  C   UNL     1      46.045   1.338   7.992  0.00  0.00    +0.000 A 
ATOM     18  N   UNL     1      45.112   1.289   8.975  0.00  0.00    +0.000 NA
ATOM     19  C   UNL     1      44.653   2.478   9.432  0.00  0.00    +0.000 A 
ATOM     20  C   UNL     1      45.074   3.719   8.961  0.00  0.00    +0.000 A 
ATOM     21  C   UNL     1      46.039   3.735   7.955  0.00  0.00    +0.000 A 
BRANCH  16  23
ATOM     22  N   UNL     1      47.424   3.295   5.341  0.00  0.00    +0.000 N 
ATOM     23  C   UNL     1      47.571   2.454   6.413  0.00  0.00    +0.000 C 
ATOM     24  O   UNL     1      48.530   1.702   6.497  0.00  0.00    +0.000 OA
ATOM     25  H   UNL     1      48.198   3.311   4.685  0.00  0.00    +0.000 HD
ATOM     26  H   UNL     1      46.825   4.108   5.365  0.00  0.00    +0.000 HD
ENDBRANCH  16  23
ENDBRANCH  15  20
ENDBRANCH   1  15
TORSDOF 5
ENDMDL
MODEL 2
REMARK VINA RESULT:    -7.600      1.776      2.252
REMARK INTER + INTRA:         -10.372
REMARK INTER:                 -10.006
REMARK INTRA:                  -0.366
REMARK UNBOUND:                -0.550
REMARK  Name = 
REMARK  5 active torsions:
REMARK  status: ('A' for Active; 'I' for Inactive)
REMARK    1  A    between atoms: C_2  and  C_4
REMARK    2  A    between atoms: C_8  and  O_9
REMARK    3  A    between atoms: O_9  and  C_10
REMARK    4  A    between atoms: C_10  and  C_11
REMARK    5  A    between atoms: C_15  and  C_16
REMARK                            x       y       z     vdW  Elec       q    Type
REMARK                         _______ _______ _______ _____ _____    ______ ____
ROOT
ATOM      1  C   UNL     1      44.881   2.775  11.887  0.00  0.00    +0.000 C 
ENDROOT
BRANCH   1   2
ATOM      2  C   UNL     1      44.864   4.225  12.269  0.00  0.00    +0.000 A 
ATOM      3  C   UNL     1      43.702   4.813  12.746  0.00  0.00    +0.000 A 
ATOM      4  N   UNL     1      43.602   6.113  13.082  0.00  0.00    +0.000 NA
ATOM      5  C   UNL     1      44.716   6.869  12.937  0.00  0.00    +0.000 A 
ATOM      6  C   UNL     1      45.943   6.395  12.473  0.00  0.00    +0.000 A 
ATOM      7  C   UNL     1      46.004   5.030  12.161  0.00  0.00    +0.000 A 
BRANCH   6   8
ATOM      8  C   UNL     1      47.167   7.276  12.285  0.00  0.00    +0.000 C 
ATOM      9  C   UNL     1      48.450   6.652  12.861  0.00  0.00    +0.000 C 
ATOM     10  C   UNL     1      48.542   6.816  14.377  0.00  0.00    +0.000 C 
ATOM     11  C   UNL     1      48.292   8.257  14.822  0.00  0.00    +0.000 C 
ATOM     12  N   UNL     1      47.063   8.819  14.272  0.00  0.00    +0.000 NA
ATOM     13  C   UNL     1      47.011   8.723  12.811  0.00  0.00    +0.000 C 
ATOM     14  H   UNL     1      46.969   9.794  14.557  0.00  0.00    +0.000 HD
ENDBRANCH   6   8
ENDBRANCH   1   2
BRANCH   1  15
ATOM     15  O   UNL     1      44.218   2.623  10.636  0.00  0.00    +0.000 OA
BRANCH  15  20
ATOM     16  C   UNL     1      46.457   2.339   7.699  0.00  0.00    +0.000 A 
ATOM     17  C   UNL     1      46.351   3.659   7.285  0.00  0.00    +0.000 A 
ATOM     18  N   UNL     1      45.578   4.579   7.912  0.00  0.00    +0.000 NA
ATOM     19  C   UNL     1      44.904   4.155   9.007  0.00  0.00    +0.000 A 
ATOM     20  C   UNL     1      44.960   2.860   9.515  0.00  0.00    +0.000 A 
ATOM     21  C   UNL     1      45.759   1.937   8.843  0.00  0.00    +0.000 A 
BRANCH  16  23
ATOM     22  N   UNL     1      48.469   1.942   6.394  0.00  0.00    +0.000 N 
ATOM     23  C   UNL     1      47.319   1.422   6.927  0.00  0.00    +0.000 C 
ATOM     24  O   UNL     1      47.039   0.240   6.791  0.00  0.00    +0.000 OA
ATOM     25  H   UNL     1      49.098   1.270   5.968  0.00  0.00    +0.000 HD
ATOM     26  H   UNL     1      48.871   2.812   6.712  0.00  0.00    +0.000 HD
ENDBRANCH  16  23
ENDBRANCH  15  20
ENDBRANCH   1  15
TORSDOF 5
ENDMDL
MODEL 3
REMARK VINA RESULT:    -7.123      3.049      4.988
REMARK INTER + INTRA:          -9.756
REMARK INTER:                  -9.096
REMARK INTRA:                  -0.660
REMARK UNBOUND:                -0.550
REMARK  Name = 
REMARK  5 active torsions:
REMARK  status: ('A' for Active; 'I' for Inactive)
REMARK    1  A    between atoms: C_2  and  C_4
REMARK    2  A    between atoms: C_8  and  O_9
REMARK    3  A    between atoms: O_9  and  C_10
REMARK    4  A    between atoms: C_10  and  C_11
REMARK    5  A    between atoms: C_15  and  C_16
REMARK                            x       y       z     vdW  Elec       q    Type
REMARK                         _______ _______ _______ _____ _____    ______ ____
ROOT
ATOM      1  C   UNL     1      47.217   6.110  12.846  0.00  0.00    +0.000 C 
ENDROOT
BRANCH   1   2
ATOM      2  C   UNL     1      47.797   6.141  14.228  0.00  0.00    +0.000 A 
ATOM      3  C   UNL     1      48.504   7.250  14.670  0.00  0.00    +0.000 A 
ATOM      4  N   UNL     1      49.077   7.340  15.885  0.00  0.00    +0.000 NA
ATOM      5  C   UNL     1      48.940   6.271  16.706  0.00  0.00    +0.000 A 
ATOM      6  C   UNL     1      48.251   5.103  16.381  0.00  0.00    +0.000 A 
ATOM      7  C   UNL     1      47.650   5.069  15.115  0.00  0.00    +0.000 A 
BRANCH   6   8
ATOM      8  C   UNL     1      48.146   3.904  17.309  0.00  0.00    +0.000 C 
ATOM      9  C   UNL     1      49.266   3.862  18.363  0.00  0.00    +0.000 C 
ATOM     10  C   UNL     1      50.577   3.327  17.792  0.00  0.00    +0.000 C 
ATOM     11  C   UNL     1      50.387   2.017  17.028  0.00  0.00    +0.000 C 
ATOM     12  N   UNL     1      49.328   2.090  16.026  0.00  0.00    +0.000 NA
ATOM     13  C   UNL     1      48.054   2.537  16.593  0.00  0.00    +0.000 C 
ATOM     14  H   UNL     1      49.208   1.180  15.581  0.00  0.00    +0.000 HD
ENDBRANCH   6   8
ENDBRANCH   1   2
BRANCH   1  15
ATOM     15  O   UNL     1      45.796   6.146  12.945  0.00  0.00    +0.000 OA
BRANCH  15  20
ATOM     16  C   UNL     1      44.397   3.585  10.663  0.00  0.00    +0.000 A 
ATOM     17  C   UNL     1      43.613   2.937  11.606  0.00  0.00    +0.000 A 
ATOM     18  N   UNL     1      43.563   3.298  12.912  0.00  0.00    +0.000 NA
ATOM     19  C   UNL     1      44.316   4.365  13.272  0.00  0.00    +0.000 A 
ATOM     20  C   UNL     1      45.117   5.095  12.398  0.00  0.00    +0.000 A 
ATOM     21  C   UNL     1      45.151   4.693  11.064  0.00  0.00    +0.000 A 
BRANCH  16  23
ATOM     22  N   UNL     1      44.327   4.031   8.274  0.00  0.00    +0.000 N 
ATOM     23  C   UNL     1      44.383   3.093   9.271  0.00  0.00    +0.000 C 
ATOM     24  O   UNL     1      44.448   1.901   9.012  0.00  0.00    +0.000 OA
ATOM     25  H   UNL     1      44.433   3.676   7.330  0.00  0.00    +0.000 HD
ATOM     26  H   UNL     1      44.554   5.004   8.428  0.00  0.00    +0.000 HD
ENDBRANCH  16  23
ENDBRANCH  15  20
ENDBRANCH   1  15
TORSDOF 5
ENDMDL
MODEL 4
REMARK VINA RESULT:    -7.082      1.795      2.416
REMARK INTER + INTRA:          -9.703
REMARK INTER:                  -8.969
REMARK INTRA:                  -0.734
REMARK UNBOUND:                -0.550
REMARK  Name = 
REMARK  5 active torsions:
REMARK  status: ('A' for Active; 'I' for Inactive)
REMARK    1  A    between atoms: C_2  and  C_4
REMARK    2  A    between atoms: C_8  and  O_9
REMARK    3  A    between atoms: O_9  and  C_10
REMARK    4  A    between atoms: C_10  and  C_11
REMARK    5  A    between atoms: C_15  and  C_16
REMARK                            x       y       z     vdW  Elec       q    Type
REMARK                         _______ _______ _______ _____ _____    ______ ____
ROOT
ATOM      1  C   UNL     1      44.102   5.779  12.695  0.00  0.00    +0.000 C 
ENDROOT
BRANCH   1   2
ATOM      2  C   UNL     1      45.583   5.952  12.845  0.00  0.00    +0.000 A 
ATOM      3  C   UNL     1      46.325   5.046  13.588  0.00  0.00    +0.000 A 
ATOM      4  N   UNL     1      47.653   5.150  13.791  0.00  0.00    +0.000 NA
ATOM      5  C   UNL     1      48.276   6.212  13.226  0.00  0.00    +0.000 A 
ATOM      6  C   UNL     1      47.642   7.187  12.456  0.00  0.00    +0.000 A 
ATOM      7  C   UNL     1      46.266   7.020  12.251  0.00  0.00    +0.000 A 
BRANCH   6   8
ATOM      8  C   UNL     1      48.361   8.389  11.866  0.00  0.00    +0.000 C 
ATOM      9  C   UNL     1      49.807   8.531  12.372  0.00  0.00    +0.000 C 
ATOM     10  C   UNL     1      49.873   9.154  13.765  0.00  0.00    +0.000 C 
ATOM     11  C   UNL     1      49.044  10.434  13.870  0.00  0.00    +0.000 C 
ATOM     12  N   UNL     1      47.674  10.267  13.396  0.00  0.00    +0.000 NA
ATOM     13  C   UNL     1      47.617   9.735  12.032  0.00  0.00    +0.000 C 
ATOM     14  H   UNL     1      47.181  11.158  13.439  0.00  0.00    +0.000 HD
ENDBRANCH   6   8
ENDBRANCH   1   2
BRANCH   1  15
ATOM     15  O   UNL     1      43.777   5.793  11.308  0.00  0.00    +0.000 OA
BRANCH  15  20
ATOM     16  C   UNL     1      45.256   3.439   8.859  0.00  0.00    +0.000 A 
ATOM     17  C   UNL     1      44.622   2.297   9.327  0.00  0.00    +0.000 A 
ATOM     18  N   UNL     1      43.782   2.291  10.391  0.00  0.00    +0.000 NA
ATOM     19  C   UNL     1      43.559   3.485  10.990  0.00  0.00    +0.000 A 
ATOM     20  C   UNL     1      44.129   4.689  10.585  0.00  0.00    +0.000 A 
ATOM     21  C   UNL     1      44.993   4.659   9.492  0.00  0.00    +0.000 A 
BRANCH  16  23
ATOM     22  N   UNL     1      46.763   2.107   7.494  0.00  0.00    +0.000 N 
ATOM     23  C   UNL     1      46.162   3.322   7.700  0.00  0.00    +0.000 C 
ATOM     24  O   UNL     1      46.350   4.255   6.935  0.00  0.00    +0.000 OA
ATOM     25  H   UNL     1      47.289   2.017   6.632  0.00  0.00    +0.000 HD
ATOM     26  H   UNL     1      46.427   1.255   7.919  0.00  0.00    +0.000 HD
ENDBRANCH  16  23
ENDBRANCH  15  20
ENDBRANCH   1  15
TORSDOF 5
ENDMDL
MODEL 5
REMARK VINA RESULT:    -6.760      3.968      7.870
REMARK INTER + INTRA:          -9.286
REMARK INTER:                  -8.478
REMARK INTRA:                  -0.808
REMARK UNBOUND:                -0.550
REMARK  Name = 
REMARK  5 active torsions:
REMARK  status: ('A' for Active; 'I' for Inactive)
REMARK    1  A    between atoms: C_2  and  C_4
REMARK    2  A    between atoms: C_8  and  O_9
REMARK    3  A    between atoms: O_9  and  C_10
REMARK    4  A    between atoms: C_10  and  C_11
REMARK    5  A    between atoms: C_15  and  C_16
REMARK                            x       y       z     vdW  Elec       q    Type
REMARK                         _______ _______ _______ _____ _____    ______ ____
ROOT
ATOM      1  C   UNL     1      48.737   7.229  13.641  0.00  0.00    +0.000 C 
ENDROOT
BRANCH   1   2
ATOM      2  C   UNL     1      47.378   7.436  13.043  0.00  0.00    +0.000 A 
ATOM      3  C   UNL     1      47.061   8.633  12.417  0.00  0.00    +0.000 A 
ATOM      4  N   UNL     1      45.854   8.903  11.882  0.00  0.00    +0.000 NA
ATOM      5  C   UNL     1      44.914   7.933  11.973  0.00  0.00    +0.000 A 
ATOM      6  C   UNL     1      45.112   6.690  12.573  0.00  0.00    +0.000 A 
ATOM      7  C   UNL     1      46.391   6.446  13.091  0.00  0.00    +0.000 A 
BRANCH   6   8
ATOM      8  C   UNL     1      44.025   5.633  12.694  0.00  0.00    +0.000 C 
ATOM      9  C   UNL     1      44.584   4.202  12.755  0.00  0.00    +0.000 C 
ATOM     10  C   UNL     1      44.970   3.673  11.375  0.00  0.00    +0.000 C 
ATOM     11  C   UNL     1      43.856   3.866  10.346  0.00  0.00    +0.000 C 
ATOM     12  N   UNL     1      43.354   5.236  10.300  0.00  0.00    +0.000 NA
ATOM     13  C   UNL     1      42.920   5.715  11.614  0.00  0.00    +0.000 C 
ATOM     14  H   UNL     1      42.582   5.300   9.637  0.00  0.00    +0.000 HD
ENDBRANCH   6   8
ENDBRANCH   1   2
BRANCH   1  15
ATOM     15  O   UNL     1      48.666   7.484  15.040  0.00  0.00    +0.000 OA
BRANCH  15  20
ATOM     16  C   UNL     1      48.605   4.505  17.242  0.00  0.00    +0.000 A 
ATOM     17  C   UNL     1      49.962   4.487  17.530  0.00  0.00    +0.000 A 
ATOM     18  N   UNL     1      50.847   5.378  17.018  0.00  0.00    +0.000 NA
ATOM     19  C   UNL     1      50.338   6.332  16.203  0.00  0.00    +0.000 A 
ATOM     20  C   UNL     1      48.991   6.449  15.870  0.00  0.00    +0.000 A 
ATOM     21  C   UNL     1      48.110   5.513  16.408  0.00  0.00    +0.000 A 
BRANCH  16  23
ATOM     22  N   UNL     1      48.158   2.915  19.026  0.00  0.00    +0.000 N 
ATOM     23  C   UNL     1      47.739   3.474  17.846  0.00  0.00    +0.000 C 
ATOM     24  O   UNL     1      46.677   3.148  17.337  0.00  0.00    +0.000 OA
ATOM     25  H   UNL     1      47.496   2.295  19.478  0.00  0.00    +0.000 HD
ATOM     26  H   UNL     1      48.862   3.343  19.611  0.00  0.00    +0.000 HD
ENDBRANCH  16  23
ENDBRANCH  15  20
ENDBRANCH   1  15
TORSDOF 5
ENDMDL
MODEL 6
REMARK VINA RESULT:    -6.546      3.137      4.618
REMARK INTER + INTRA:          -9.010
REMARK INTER:                  -8.608
REMARK INTRA:                  -0.402
REMARK UNBOUND:                -0.550
REMARK  Name = 
REMARK  5 active torsions:
REMARK  status: ('A' for Active; 'I' for Inactive)
REMARK    1  A    between atoms: C_2  and  C_4
REMARK    2  A    between atoms: C_8  and  O_9
REMARK    3  A    between atoms: O_9  and  C_10
REMARK    4  A    between atoms: C_10  and  C_11
REMARK    5  A    between atoms: C_15  and  C_16
REMARK                            x       y       z     vdW  Elec       q    Type
REMARK                         _______ _______ _______ _____ _____    ______ ____
ROOT
ATOM      1  C   UNL     1      47.472   6.558  12.977  0.00  0.00    +0.000 C 
ENDROOT
BRANCH   1   2
ATOM      2  C   UNL     1      47.565   5.639  14.157  0.00  0.00    +0.000 A 
ATOM      3  C   UNL     1      46.972   4.386  14.121  0.00  0.00    +0.000 A 
ATOM      4  N   UNL     1      46.989   3.517  15.150  0.00  0.00    +0.000 NA
ATOM      5  C   UNL     1      47.628   3.915  16.275  0.00  0.00    +0.000 A 
ATOM      6  C   UNL     1      48.264   5.146  16.434  0.00  0.00    +0.000 A 
ATOM      7  C   UNL     1      48.243   6.004  15.326  0.00  0.00    +0.000 A 
BRANCH   6   8
ATOM      8  C   UNL     1      48.943   5.581  17.723  0.00  0.00    +0.000 C 
ATOM      9  C   UNL     1      50.305   6.254  17.486  0.00  0.00    +0.000 C 
ATOM     10  C   UNL     1      51.414   5.237  17.224  0.00  0.00    +0.000 C 
ATOM     11  C   UNL     1      51.440   4.123  18.270  0.00  0.00    +0.000 C 
ATOM     12  N   UNL     1      50.138   3.493  18.464  0.00  0.00    +0.000 NA
ATOM     13  C   UNL     1      49.091   4.465  18.784  0.00  0.00    +0.000 C 
ATOM     14  H   UNL     1      50.198   2.794  19.205  0.00  0.00    +0.000 HD
ENDBRANCH   6   8
ENDBRANCH   1   2
BRANCH   1  15
ATOM     15  O   UNL     1      46.115   6.959  12.813  0.00  0.00    +0.000 OA
BRANCH  15  20
ATOM     16  C   UNL     1      44.825   4.900  10.017  0.00  0.00    +0.000 A 
ATOM     17  C   UNL     1      43.550   4.709  10.530  0.00  0.00    +0.000 A 
ATOM     18  N   UNL     1      43.144   5.201  11.726  0.00  0.00    +0.000 NA
ATOM     19  C   UNL     1      44.052   5.930  12.418  0.00  0.00    +0.000 A 
ATOM     20  C   UNL     1      45.347   6.197  11.980  0.00  0.00    +0.000 A 
ATOM     21  C   UNL     1      45.734   5.670  10.750  0.00  0.00    +0.000 A 
BRANCH  16  23
ATOM     22  N   UNL     1      44.384   3.255   8.282  0.00  0.00    +0.000 N 
ATOM     23  C   UNL     1      45.158   4.302   8.709  0.00  0.00    +0.000 C 
ATOM     24  O   UNL     1      46.067   4.737   8.018  0.00  0.00    +0.000 OA
ATOM     25  H   UNL     1      44.559   2.937   7.335  0.00  0.00    +0.000 HD
ATOM     26  H   UNL     1      43.475   3.055   8.674  0.00  0.00    +0.000 HD
ENDBRANCH  16  23
ENDBRANCH  15  20
ENDBRANCH   1  15
TORSDOF 5
ENDMDL
MODEL 7
REMARK VINA RESULT:    -6.265      4.016      8.127
REMARK INTER + INTRA:          -8.647
REMARK INTER:                  -8.045
REMARK INTRA:                  -0.602
REMARK UNBOUND:                -0.550
REMARK  Name = 
REMARK  5 active torsions:
REMARK  status: ('A' for Active; 'I' for Inactive)
REMARK    1  A    between atoms: C_2  and  C_4
REMARK    2  A    between atoms: C_8  and  O_9
REMARK    3  A    between atoms: O_9  and  C_10
REMARK    4  A    between atoms: C_10  and  C_11
REMARK    5  A    between atoms: C_15  and  C_16
REMARK                            x       y       z     vdW  Elec       q    Type
REMARK                         _______ _______ _______ _____ _____    ______ ____
ROOT
ATOM      1  C   UNL     1      48.284   6.973  14.195  0.00  0.00    +0.000 C 
ENDROOT
BRANCH   1   2
ATOM      2  C   UNL     1      47.062   7.201  13.358  0.00  0.00    +0.000 A 
ATOM      3  C   UNL     1      46.895   8.391  12.666  0.00  0.00    +0.000 A 
ATOM      4  N   UNL     1      45.814   8.679  11.916  0.00  0.00    +0.000 NA
ATOM      5  C   UNL     1      44.846   7.734  11.851  0.00  0.00    +0.000 A 
ATOM      6  C   UNL     1      44.898   6.499  12.497  0.00  0.00    +0.000 A 
ATOM      7  C   UNL     1      46.055   6.235  13.242  0.00  0.00    +0.000 A 
BRANCH   6   8
ATOM      8  C   UNL     1      43.779   5.472  12.436  0.00  0.00    +0.000 C 
ATOM      9  C   UNL     1      44.272   4.033  12.670  0.00  0.00    +0.000 C 
ATOM     10  C   UNL     1      44.916   3.433  11.422  0.00  0.00    +0.000 C 
ATOM     11  C   UNL     1      44.042   3.601  10.179  0.00  0.00    +0.000 C 
ATOM     12  N   UNL     1      43.600   4.976   9.974  0.00  0.00    +0.000 NA
ATOM     13  C   UNL     1      42.921   5.525  11.150  0.00  0.00    +0.000 C 
ATOM     14  H   UNL     1      42.982   5.025   9.164  0.00  0.00    +0.000 HD
ENDBRANCH   6   8
ENDBRANCH   1   2
BRANCH   1  15
ATOM     15  O   UNL     1      48.385   5.583  14.490  0.00  0.00    +0.000 OA
BRANCH  15  20
ATOM     16  C   UNL     1      47.987   5.329  18.164  0.00  0.00    +0.000 A 
ATOM     17  C   UNL     1      47.244   4.157  18.167  0.00  0.00    +0.000 A 
ATOM     18  N   UNL     1      46.874   3.504  17.038  0.00  0.00    +0.000 NA
ATOM     19  C   UNL     1      47.289   4.043  15.867  0.00  0.00    +0.000 A 
ATOM     20  C   UNL     1      48.055   5.199  15.758  0.00  0.00    +0.000 A 
ATOM     21  C   UNL     1      48.412   5.850  16.938  0.00  0.00    +0.000 A 
BRANCH  16  23
ATOM     22  N   UNL     1      47.558   5.606  20.541  0.00  0.00    +0.000 N 
ATOM     23  C   UNL     1      48.318   5.960  19.457  0.00  0.00    +0.000 C 
ATOM     24  O   UNL     1      49.248   6.744  19.568  0.00  0.00    +0.000 OA
ATOM     25  H   UNL     1      47.875   5.964  21.435  0.00  0.00    +0.000 HD
ATOM     26  H   UNL     1      46.984   4.775  20.555  0.00  0.00    +0.000 HD
ENDBRANCH  16  23
ENDBRANCH  15  20
ENDBRANCH   1  15
TORSDOF 5
ENDMDL
MODEL 8
REMARK VINA RESULT:    -6.226      3.432      5.106
REMARK INTER + INTRA:          -8.596
REMARK INTER:                  -8.115
REMARK INTRA:                  -0.480
REMARK UNBOUND:                -0.550
REMARK  Name = 
REMARK  5 active torsions:
REMARK  status: ('A' for Active; 'I' for Inactive)
REMARK    1  A    between atoms: C_2  and  C_4
REMARK    2  A    between atoms: C_8  and  O_9
REMARK    3  A    between atoms: O_9  and  C_10
REMARK    4  A    between atoms: C_10  and  C_11
REMARK    5  A    between atoms: C_15  and  C_16
REMARK                            x       y       z     vdW  Elec       q    Type
REMARK                         _______ _______ _______ _____ _____    ______ ____
ROOT
ATOM      1  C   UNL     1      47.031   4.777  14.140  0.00  0.00    +0.000 C 
ENDROOT
BRANCH   1   2
ATOM      2  C   UNL     1      47.544   4.671  15.544  0.00  0.00    +0.000 A 
ATOM      3  C   UNL     1      47.358   3.506  16.274  0.00  0.00    +0.000 A 
ATOM      4  N   UNL     1      47.764   3.345  17.548  0.00  0.00    +0.000 NA
ATOM      5  C   UNL     1      48.390   4.397  18.128  0.00  0.00    +0.000 A 
ATOM      6  C   UNL     1      48.639   5.617  17.499  0.00  0.00    +0.000 A 
ATOM      7  C   UNL     1      48.221   5.726  16.166  0.00  0.00    +0.000 A 
BRANCH   6   8
ATOM      8  C   UNL     1      49.310   6.795  18.187  0.00  0.00    +0.000 C 
ATOM      9  C   UNL     1      48.998   6.868  19.692  0.00  0.00    +0.000 C 
ATOM     10  C   UNL     1      47.621   7.468  19.967  0.00  0.00    +0.000 C 
ATOM     11  C   UNL     1      47.399   8.782  19.217  0.00  0.00    +0.000 C 
ATOM     12  N   UNL     1      47.690   8.680  17.791  0.00  0.00    +0.000 NA
ATOM     13  C   UNL     1      49.038   8.169  17.532  0.00  0.00    +0.000 C 
ATOM     14  H   UNL     1      47.575   9.591  17.347  0.00  0.00    +0.000 HD
ENDBRANCH   6   8
ENDBRANCH   1   2
BRANCH   1  15
ATOM     15  O   UNL     1      45.701   4.272  14.098  0.00  0.00    +0.000 OA
BRANCH  15  20
ATOM     16  C   UNL     1      44.479   3.886  10.622  0.00  0.00    +0.000 A 
ATOM     17  C   UNL     1      43.532   4.899  10.668  0.00  0.00    +0.000 A 
ATOM     18  N   UNL     1      43.290   5.646  11.773  0.00  0.00    +0.000 NA
ATOM     19  C   UNL     1      44.047   5.373  12.863  0.00  0.00    +0.000 A 
ATOM     20  C   UNL     1      45.036   4.394  12.911  0.00  0.00    +0.000 A 
ATOM     21  C   UNL     1      45.254   3.639  11.760  0.00  0.00    +0.000 A 
BRANCH  16  23
ATOM     22  N   UNL     1      44.317   3.768   8.199  0.00  0.00    +0.000 N 
ATOM     23  C   UNL     1      44.644   3.127   9.366  0.00  0.00    +0.000 C 
ATOM     24  O   UNL     1      45.081   1.987   9.358  0.00  0.00    +0.000 OA
ATOM     25  H   UNL     1      44.545   3.270   7.346  0.00  0.00    +0.000 HD
ATOM     26  H   UNL     1      44.228   4.772   8.136  0.00  0.00    +0.000 HD
ENDBRANCH  16  23
ENDBRANCH  15  20
ENDBRANCH   1  15
TORSDOF 5
ENDMDL
MODEL 9
REMARK VINA RESULT:    -6.166      4.114      6.494
REMARK INTER + INTRA:          -8.518
REMARK INTER:                  -7.499
REMARK INTRA:                  -1.019
REMARK UNBOUND:                -0.550
REMARK  Name = 
REMARK  5 active torsions:
REMARK  status: ('A' for Active; 'I' for Inactive)
REMARK    1  A    between atoms: C_2  and  C_4
REMARK    2  A    between atoms: C_8  and  O_9
REMARK    3  A    between atoms: O_9  and  C_10
REMARK    4  A    between atoms: C_10  and  C_11
REMARK    5  A    between atoms: C_15  and  C_16
REMARK                            x       y       z     vdW  Elec       q    Type
REMARK                         _______ _______ _______ _____ _____    ______ ____
ROOT
ATOM      1  C   UNL     1      48.944   8.308  14.107  0.00  0.00    +0.000 C 
ENDROOT
BRANCH   1   2
ATOM      2  C   UNL     1      49.554   7.453  15.175  0.00  0.00    +0.000 A 
ATOM      3  C   UNL     1      50.911   7.530  15.449  0.00  0.00    +0.000 A 
ATOM      4  N   UNL     1      51.536   6.774  16.373  0.00  0.00    +0.000 NA
ATOM      5  C   UNL     1      50.769   5.896  17.063  0.00  0.00    +0.000 A 
ATOM      6  C   UNL     1      49.397   5.727  16.883  0.00  0.00    +0.000 A 
ATOM      7  C   UNL     1      48.789   6.555  15.929  0.00  0.00    +0.000 A 
BRANCH   6   8
ATOM      8  C   UNL     1      48.569   4.706  17.646  0.00  0.00    +0.000 C 
ATOM      9  C   UNL     1      49.413   3.549  18.207  0.00  0.00    +0.000 C 
ATOM     10  C   UNL     1      49.748   2.508  17.141  0.00  0.00    +0.000 C 
ATOM     11  C   UNL     1      48.514   2.060  16.357  0.00  0.00    +0.000 C 
ATOM     12  N   UNL     1      47.740   3.177  15.825  0.00  0.00    +0.000 NA
ATOM     13  C   UNL     1      47.361   4.138  16.864  0.00  0.00    +0.000 C 
ATOM     14  H   UNL     1      46.904   2.828  15.357  0.00  0.00    +0.000 HD
ENDBRANCH   6   8
ENDBRANCH   1   2
BRANCH   1  15
ATOM     15  O   UNL     1      48.665   7.495  12.971  0.00  0.00    +0.000 OA
BRANCH  15  20
ATOM     16  C   UNL     1      45.613   5.397  12.893  0.00  0.00    +0.000 A 
ATOM     17  C   UNL     1      44.735   6.401  12.509  0.00  0.00    +0.000 A 
ATOM     18  N   UNL     1      45.111   7.688  12.312  0.00  0.00    +0.000 NA
ATOM     19  C   UNL     1      46.425   7.966  12.488  0.00  0.00    +0.000 A 
ATOM     20  C   UNL     1      47.388   7.028  12.850  0.00  0.00    +0.000 A 
ATOM     21  C   UNL     1      46.966   5.715  13.052  0.00  0.00    +0.000 A 
BRANCH  16  23
ATOM     22  N   UNL     1      45.979   2.997  13.017  0.00  0.00    +0.000 N 
ATOM     23  C   UNL     1      45.085   4.033  13.093  0.00  0.00    +0.000 C 
ATOM     24  O   UNL     1      43.907   3.832  13.346  0.00  0.00    +0.000 OA
ATOM     25  H   UNL     1      45.616   2.085  13.270  0.00  0.00    +0.000 HD
ATOM     26  H   UNL     1      46.977   3.133  13.092  0.00  0.00    +0.000 HD
ENDBRANCH  16  23
ENDBRANCH  15  20
ENDBRANCH   1  15
TORSDOF 5
ENDMDL
