MODEL 1
REMARK VINA RESULT:    -8.178      0.000      0.000
REMARK INTER + INTRA:         -11.900
REMARK INTER:                 -11.046
REMARK INTRA:                  -0.854
REMARK UNBOUND:                -0.854
REMARK  Name = 
REMARK  7 active torsions:
REMARK  status: ('A' for Active; 'I' for Inactive)
REMARK    1  A    between atoms: C_1  and  N_2
REMARK    2  A    between atoms: N_5  and  C_6
REMARK    3  A    between atoms: C_10  and  C_11
REMARK    4  A    between atoms: C_11  and  C_12
REMARK    5  A    between atoms: C_12  and  N_13
REMARK    6  A    between atoms: N_13  and  C_14
REMARK    7  A    between atoms: C_17  and  C_18
REMARK                            x       y       z     vdW  Elec       q    Type
REMARK                         _______ _______ _______ _____ _____    ______ ____
ROOT
ATOM      1  C   UNL     1      43.791   4.243  12.944  0.00  0.00    +0.000 C 
ENDROOT
BRANCH   1   6
ATOM      2  C   UNL     1      46.543   6.885  12.849  0.00  0.00    +0.000 A 
ATOM      3  C   UNL     1      47.582   6.109  13.362  0.00  0.00    +0.000 A 
ATOM      4  N   UNL     1      47.486   4.809  13.733  0.00  0.00    +0.000 NA
ATOM      5  C   UNL     1      46.275   4.233  13.592  0.00  0.00    +0.000 A 
ATOM      6  C   UNL     1      45.152   4.881  13.094  0.00  0.00    +0.000 A 
ATOM      7  C   UNL     1      45.314   6.224  12.726  0.00  0.00    +0.000 A 
BRANCH   2  12
ATOM      8  C   UNL     1      47.054  12.057  10.782  0.00  0.00    +0.000 C 
ATOM      9  N   UNL     1      46.926  11.024  11.807  0.00  0.00    +0.000 NA
ATOM     10  C   UNL     1      45.648  10.291  11.649  0.00  0.00    +0.000 C 
ATOM     11  C   UNL     1      45.489   9.133  12.667  0.00  0.00    +0.000 C 
ATOM     12  N   UNL     1      46.645   8.231  12.547  0.00  0.00    +0.000 N 
ATOM     13  C   UNL     1      47.934   8.919  12.748  0.00  0.00    +0.000 C 
ATOM     14  C   UNL     1      48.056  10.070  11.723  0.00  0.00    +0.000 C 
ENDBRANCH   2  12
ENDBRANCH   1   6
BRANCH   1  15
ATOM     15  C   UNL     1      43.692   3.201  11.829  0.00  0.00    +0.000 C 
BRANCH  15  16
ATOM     16  N   UNL     1      43.589   3.822  10.515  0.00  0.00    +0.000 N 
ATOM     17  H   UNL     1      42.642   3.975  10.178  0.00  0.00    +0.000 HD
BRANCH  16  18
ATOM     18  C   UNL     1      44.463   3.404   9.504  0.00  0.00    +0.000 A 
ATOM     19  C   UNL     1      44.879   2.075   9.342  0.00  0.00    +0.000 A 
ATOM     20  C   UNL     1      45.833   1.722   8.381  0.00  0.00    +0.000 A 
ATOM     21  C   UNL     1      46.409   2.702   7.573  0.00  0.00    +0.000 A 
ATOM     22  C   UNL     1      46.029   4.037   7.738  0.00  0.00    +0.000 A 
ATOM     23  C   UNL     1      45.067   4.377   8.700  0.00  0.00    +0.000 A 
BRANCH  21  24
ATOM     24  C   UNL     1      47.446   2.284   6.594  0.00  0.00    +0.000 C 
ATOM     25  N   UNL     1      47.574   3.028   5.454  0.00  0.00    +0.000 N 
ATOM     26  O   UNL     1      48.145   1.295   6.776  0.00  0.00    +0.000 OA
ATOM     27  H   UNL     1      46.871   3.687   5.153  0.00  0.00    +0.000 HD
ATOM     28  H   UNL     1      48.215   2.670   4.758  0.00  0.00    +0.000 HD
ENDBRANCH  21  24
ENDBRANCH  16  18
ENDBRANCH  15  16
ENDBRANCH   1  15
TORSDOF 6
ENDMDL
MODEL 2
REMARK VINA RESULT:    -8.124      1.013      1.103
REMARK INTER + INTRA:         -11.827
REMARK INTER:                 -10.978
REMARK INTRA:                  -0.850
REMARK UNBOUND:                -0.854
REMARK  Name = 
REMARK  7 active torsions:
REMARK  status: ('A' for Active; 'I' for Inactive)
REMARK    1  A    between atoms: C_1  and  N_2
REMARK    2  A    between atoms: N_5  and  C_6
REMARK    3  A    between atoms: C_10  and  C_11
REMARK    4  A    between atoms: C_11  and  C_12
REMARK    5  A    between atoms: C_12  and  N_13
REMARK    6  A    between atoms: N_13  and  C_14
REMARK    7  A    between atoms: C_17  and  C_18
REMARK                            x       y       z     vdW  Elec       q    Type
REMARK                         _______ _______ _______ _____ _____    ______ ____
ROOT
ATOM      1  C   UNL     1      43.415   5.004  12.633  0.00  0.00    +0.000 C 
ENDROOT
BRANCH   1   6
ATOM      2  C   UNL     1      46.683   6.925  13.064  0.00  0.00    +0.000 A 
ATOM      3  C   UNL     1      47.503   5.850  13.405  0.00  0.00    +0.000 A 
ATOM      4  N   UNL     1      47.107   4.558  13.505  0.00  0.00    +0.000 NA
ATOM      5  C   UNL     1      45.806   4.308  13.255  0.00  0.00    +0.000 A 
ATOM      6  C   UNL     1      44.875   5.278  12.904  0.00  0.00    +0.000 A 
ATOM      7  C   UNL     1      45.344   6.595  12.816  0.00  0.00    +0.000 A 
BRANCH   2  12
ATOM      8  C   UNL     1      48.977  11.985  12.420  0.00  0.00    +0.000 C 
ATOM      9  N   UNL     1      48.068  10.980  12.963  0.00  0.00    +0.000 NA
ATOM     10  C   UNL     1      47.217  10.415  11.890  0.00  0.00    +0.000 C 
ATOM     11  C   UNL     1      46.279   9.290  12.395  0.00  0.00    +0.000 C 
ATOM     12  N   UNL     1      47.091   8.247  13.041  0.00  0.00    +0.000 N 
ATOM     13  C   UNL     1      47.916   8.765  14.148  0.00  0.00    +0.000 C 
ATOM     14  C   UNL     1      48.832   9.889  13.612  0.00  0.00    +0.000 C 
ENDBRANCH   2  12
ENDBRANCH   1   6
BRANCH   1  15
ATOM     15  C   UNL     1      43.140   4.181  11.374  0.00  0.00    +0.000 C 
BRANCH  15  16
ATOM     16  N   UNL     1      43.775   4.762  10.198  0.00  0.00    +0.000 N 
ATOM     17  H   UNL     1      43.199   5.410   9.667  0.00  0.00    +0.000 HD
BRANCH  16  18
ATOM     18  C   UNL     1      44.558   3.937   9.382  0.00  0.00    +0.000 A 
ATOM     19  C   UNL     1      44.603   2.541   9.507  0.00  0.00    +0.000 A 
ATOM     20  C   UNL     1      45.477   1.768   8.736  0.00  0.00    +0.000 A 
ATOM     21  C   UNL     1      46.346   2.382   7.833  0.00  0.00    +0.000 A 
ATOM     22  C   UNL     1      46.337   3.775   7.713  0.00  0.00    +0.000 A 
ATOM     23  C   UNL     1      45.451   4.539   8.487  0.00  0.00    +0.000 A 
BRANCH  21  24
ATOM     24  C   UNL     1      47.284   1.523   7.065  0.00  0.00    +0.000 C 
ATOM     25  N   UNL     1      48.392   2.118   6.533  0.00  0.00    +0.000 N 
ATOM     26  O   UNL     1      47.065   0.331   6.882  0.00  0.00    +0.000 OA
ATOM     27  H   UNL     1      48.485   3.120   6.448  0.00  0.00    +0.000 HD
ATOM     28  H   UNL     1      48.964   1.538   5.931  0.00  0.00    +0.000 HD
ENDBRANCH  21  24
ENDBRANCH  16  18
ENDBRANCH  15  16
ENDBRANCH   1  15
TORSDOF 6
ENDMDL
MODEL 3
REMARK VINA RESULT:    -7.980      2.453      4.469
REMARK INTER + INTRA:         -11.633
REMARK INTER:                 -11.193
REMARK INTRA:                  -0.439
REMARK UNBOUND:                -0.854
REMARK  Name = 
REMARK  7 active torsions:
REMARK  status: ('A' for Active; 'I' for Inactive)
REMARK    1  A    between atoms: C_1  and  N_2
REMARK    2  A    between atoms: N_5  and  C_6
REMARK    3  A    between atoms: C_10  and  C_11
REMARK    4  A    between atoms: C_11  and  C_12
REMARK    5  A    between atoms: C_12  and  N_13
REMARK    6  A    between atoms: N_13  and  C_14
REMARK    7  A    between atoms: C_17  and  C_18
REMARK                            x       y       z     vdW  Elec       q    Type
REMARK                         _______ _______ _______ _____ _____    ______ ____
ROOT
ATOM      1  C   UNL     1      44.914   3.730  11.944  0.00  0.00    +0.000 C 
ENDROOT
BRANCH   1   6
ATOM      2  C   UNL     1      47.231   5.352  14.505  0.00  0.00    +0.000 A 
ATOM      3  C   UNL     1      47.579   6.485  13.769  0.00  0.00    +0.000 A 
ATOM      4  N   UNL     1      47.135   6.783  12.525  0.00  0.00    +0.000 NA
ATOM      5  C   UNL     1      46.289   5.898  11.962  0.00  0.00    +0.000 A 
ATOM      6  C   UNL     1      45.854   4.730  12.575  0.00  0.00    +0.000 A 
ATOM      7  C   UNL     1      46.347   4.476  13.862  0.00  0.00    +0.000 A 
BRANCH   2  12
ATOM      8  C   UNL     1      48.655   4.499  19.846  0.00  0.00    +0.000 C 
ATOM      9  N   UNL     1      48.795   4.456  18.393  0.00  0.00    +0.000 NA
ATOM     10  C   UNL     1      47.698   3.665  17.788  0.00  0.00    +0.000 C 
ATOM     11  C   UNL     1      47.754   3.644  16.240  0.00  0.00    +0.000 C 
ATOM     12  N   UNL     1      47.755   5.029  15.744  0.00  0.00    +0.000 N 
ATOM     13  C   UNL     1      48.865   5.833  16.288  0.00  0.00    +0.000 C 
ATOM     14  C   UNL     1      48.783   5.827  17.832  0.00  0.00    +0.000 C 
ENDBRANCH   2  12
ENDBRANCH   1   6
BRANCH   1  15
ATOM     15  C   UNL     1      43.598   4.322  11.434  0.00  0.00    +0.000 C 
BRANCH  15  16
ATOM     16  N   UNL     1      43.666   4.647  10.015  0.00  0.00    +0.000 N 
ATOM     17  H   UNL     1      42.775   4.856   9.572  0.00  0.00    +0.000 HD
BRANCH  16  18
ATOM     18  C   UNL     1      44.517   3.897   9.195  0.00  0.00    +0.000 A 
ATOM     19  C   UNL     1      44.545   2.495   9.185  0.00  0.00    +0.000 A 
ATOM     20  C   UNL     1      45.483   1.791   8.423  0.00  0.00    +0.000 A 
ATOM     21  C   UNL     1      46.432   2.479   7.667  0.00  0.00    +0.000 A 
ATOM     22  C   UNL     1      46.439   3.877   7.686  0.00  0.00    +0.000 A 
ATOM     23  C   UNL     1      45.490   4.572   8.448  0.00  0.00    +0.000 A 
BRANCH  21  24
ATOM     24  C   UNL     1      47.433   1.688   6.905  0.00  0.00    +0.000 C 
ATOM     25  N   UNL     1      48.496   2.361   6.372  0.00  0.00    +0.000 N 
ATOM     26  O   UNL     1      47.303   0.483   6.728  0.00  0.00    +0.000 OA
ATOM     27  H   UNL     1      48.514   3.366   6.283  0.00  0.00    +0.000 HD
ATOM     28  H   UNL     1      49.110   1.822   5.775  0.00  0.00    +0.000 HD
ENDBRANCH  21  24
ENDBRANCH  16  18
ENDBRANCH  15  16
ENDBRANCH   1  15
TORSDOF 6
ENDMDL
MODEL 4
REMARK VINA RESULT:    -7.505      1.854      4.229
REMARK INTER + INTRA:         -10.991
REMARK INTER:                 -10.254
REMARK INTRA:                  -0.737
REMARK UNBOUND:                -0.854
REMARK  Name = 
REMARK  7 active torsions:
REMARK  status: ('A' for Active; 'I' for Inactive)
REMARK    1  A    between atoms: C_1  and  N_2
REMARK    2  A    between atoms: N_5  and  C_6
REMARK    3  A    between atoms: C_10  and  C_11
REMARK    4  A    between atoms: C_11  and  C_12
REMARK    5  A    between atoms: C_12  and  N_13
REMARK    6  A    between atoms: N_13  and  C_14
REMARK    7  A    between atoms: C_17  and  C_18
REMARK                            x       y       z     vdW  Elec       q    Type
REMARK                         _______ _______ _______ _____ _____    ______ ____
ROOT
ATOM      1  C   UNL     1      44.058   6.555  11.239  0.00  0.00    +0.000 C 
ENDROOT
BRANCH   1   6
ATOM      2  C   UNL     1      46.905   6.802  13.767  0.00  0.00    +0.000 A 
ATOM      3  C   UNL     1      47.325   8.099  13.468  0.00  0.00    +0.000 A 
ATOM      4  N   UNL     1      46.775   8.908  12.532  0.00  0.00    +0.000 NA
ATOM      5  C   UNL     1      45.739   8.402  11.835  0.00  0.00    +0.000 A 
ATOM      6  C   UNL     1      45.213   7.131  12.024  0.00  0.00    +0.000 A 
ATOM      7  C   UNL     1      45.822   6.340  13.008  0.00  0.00    +0.000 A 
BRANCH   2  12
ATOM      8  C   UNL     1      48.890   3.798  18.047  0.00  0.00    +0.000 C 
ATOM      9  N   UNL     1      48.806   4.294  16.675  0.00  0.00    +0.000 NA
ATOM     10  C   UNL     1      47.496   3.947  16.077  0.00  0.00    +0.000 C 
ATOM     11  C   UNL     1      47.321   4.509  14.644  0.00  0.00    +0.000 C 
ATOM     12  N   UNL     1      47.528   5.966  14.675  0.00  0.00    +0.000 N 
ATOM     13  C   UNL     1      48.844   6.347  15.221  0.00  0.00    +0.000 C 
ATOM     14  C   UNL     1      48.988   5.764  16.645  0.00  0.00    +0.000 C 
ENDBRANCH   2  12
ENDBRANCH   1   6
BRANCH   1  15
ATOM     15  C   UNL     1      43.865   5.046  11.397  0.00  0.00    +0.000 C 
BRANCH  15  16
ATOM     16  N   UNL     1      43.522   4.409  10.132  0.00  0.00    +0.000 N 
ATOM     17  H   UNL     1      42.661   3.869  10.135  0.00  0.00    +0.000 HD
BRANCH  16  18
ATOM     18  C   UNL     1      44.541   3.801   9.389  0.00  0.00    +0.000 A 
ATOM     19  C   UNL     1      45.343   4.488   8.467  0.00  0.00    +0.000 A 
ATOM     20  C   UNL     1      46.280   3.817   7.674  0.00  0.00    +0.000 A 
ATOM     21  C   UNL     1      46.419   2.432   7.772  0.00  0.00    +0.000 A 
ATOM     22  C   UNL     1      45.608   1.725   8.665  0.00  0.00    +0.000 A 
ATOM     23  C   UNL     1      44.678   2.409   9.460  0.00  0.00    +0.000 A 
BRANCH  21  24
ATOM     24  C   UNL     1      47.399   1.759   6.881  0.00  0.00    +0.000 C 
ATOM     25  N   UNL     1      48.484   2.483   6.476  0.00  0.00    +0.000 N 
ATOM     26  O   UNL     1      47.235   0.609   6.494  0.00  0.00    +0.000 OA
ATOM     27  H   UNL     1      48.533   3.488   6.566  0.00  0.00    +0.000 HD
ATOM     28  H   UNL     1      49.085   2.041   5.792  0.00  0.00    +0.000 HD
ENDBRANCH  21  24
ENDBRANCH  16  18
ENDBRANCH  15  16
ENDBRANCH   1  15
TORSDOF 6
ENDMDL
MODEL 5
REMARK VINA RESULT:    -6.954      3.314      7.881
REMARK INTER + INTRA:         -10.247
REMARK INTER:                  -9.633
REMARK INTRA:                  -0.614
REMARK UNBOUND:                -0.854
REMARK  Name = 
REMARK  7 active torsions:
REMARK  status: ('A' for Active; 'I' for Inactive)
REMARK    1  A    between atoms: C_1  and  N_2
REMARK    2  A    between atoms: N_5  and  C_6
REMARK    3  A    between atoms: C_10  and  C_11
REMARK    4  A    between atoms: C_11  and  C_12
REMARK    5  A    between atoms: C_12  and  N_13
REMARK    6  A    between atoms: N_13  and  C_14
REMARK    7  A    between atoms: C_17  and  C_18
REMARK                            x       y       z     vdW  Elec       q    Type
REMARK                         _______ _______ _______ _____ _____    ______ ____
ROOT
ATOM      1  C   UNL     1      45.018   6.944  12.643  0.00  0.00    +0.000 C 
ENDROOT
BRANCH   1   6
ATOM      2  C   UNL     1      44.663   3.820  10.480  0.00  0.00    +0.000 A 
ATOM      3  C   UNL     1      43.770   3.118  11.290  0.00  0.00    +0.000 A 
ATOM      4  N   UNL     1      43.263   3.555  12.467  0.00  0.00    +0.000 NA
ATOM      5  C   UNL     1      43.670   4.772  12.881  0.00  0.00    +0.000 A 
ATOM      6  C   UNL     1      44.552   5.584  12.179  0.00  0.00    +0.000 A 
ATOM      7  C   UNL     1      45.042   5.078  10.967  0.00  0.00    +0.000 A 
BRANCH   2  12
ATOM      8  C   UNL     1      47.724   1.959   6.185  0.00  0.00    +0.000 C 
ATOM      9  N   UNL     1      46.515   2.349   6.907  0.00  0.00    +0.000 NA
ATOM     10  C   UNL     1      46.325   1.492   8.101  0.00  0.00    +0.000 C 
ATOM     11  C   UNL     1      45.095   1.905   8.948  0.00  0.00    +0.000 C 
ATOM     12  N   UNL     1      45.226   3.323   9.319  0.00  0.00    +0.000 N 
ATOM     13  C   UNL     1      45.369   4.212   8.150  0.00  0.00    +0.000 C 
ATOM     14  C   UNL     1      46.598   3.768   7.326  0.00  0.00    +0.000 C 
ENDBRANCH   2  12
ENDBRANCH   1   6
BRANCH   1  15
ATOM     15  C   UNL     1      46.520   7.192  12.490  0.00  0.00    +0.000 C 
BRANCH  15  16
ATOM     16  N   UNL     1      47.302   6.014  12.841  0.00  0.00    +0.000 N 
ATOM     17  H   UNL     1      47.063   5.165  12.334  0.00  0.00    +0.000 HD
BRANCH  16  18
ATOM     18  C   UNL     1      47.589   5.776  14.190  0.00  0.00    +0.000 A 
ATOM     19  C   UNL     1      48.488   6.550  14.938  0.00  0.00    +0.000 A 
ATOM     20  C   UNL     1      48.820   6.212  16.254  0.00  0.00    +0.000 A 
ATOM     21  C   UNL     1      48.272   5.074  16.846  0.00  0.00    +0.000 A 
ATOM     22  C   UNL     1      47.396   4.273  16.107  0.00  0.00    +0.000 A 
ATOM     23  C   UNL     1      47.065   4.625  14.791  0.00  0.00    +0.000 A 
BRANCH  21  24
ATOM     24  C   UNL     1      48.685   4.734  18.232  0.00  0.00    +0.000 C 
ATOM     25  N   UNL     1      47.729   4.235  19.070  0.00  0.00    +0.000 N 
ATOM     26  O   UNL     1      49.829   4.920  18.628  0.00  0.00    +0.000 OA
ATOM     27  H   UNL     1      46.742   4.296  18.868  0.00  0.00    +0.000 HD
ATOM     28  H   UNL     1      48.006   4.104  20.035  0.00  0.00    +0.000 HD
ENDBRANCH  21  24
ENDBRANCH  16  18
ENDBRANCH  15  16
ENDBRANCH   1  15
TORSDOF 6
ENDMDL
MODEL 6
REMARK VINA RESULT:    -6.931      3.853      8.202
REMARK INTER + INTRA:         -10.215
REMARK INTER:                  -9.688
REMARK INTRA:                  -0.527
REMARK UNBOUND:                -0.854
REMARK  Name = 
REMARK  7 active torsions:
REMARK  status: ('A' for Active; 'I' for Inactive)
REMARK    1  A    between atoms: C_1  and  N_2
REMARK    2  A    between atoms: N_5  and  C_6
REMARK    3  A    between atoms: C_10  and  C_11
REMARK    4  A    between atoms: C_11  and  C_12
REMARK    5  A    between atoms: C_12  and  N_13
REMARK    6  A    between atoms: N_13  and  C_14
REMARK    7  A    between atoms: C_17  and  C_18
REMARK                            x       y       z     vdW  Elec       q    Type
REMARK                         _______ _______ _______ _____ _____    ______ ____
ROOT
ATOM      1  C   UNL     1      45.596   5.524  13.425  0.00  0.00    +0.000 C 
ENDROOT
BRANCH   1   6
ATOM      2  C   UNL     1      44.782   3.290  10.440  0.00  0.00    +0.000 A 
ATOM      3  C   UNL     1      43.646   2.670  10.959  0.00  0.00    +0.000 A 
ATOM      4  N   UNL     1      43.109   2.905  12.180  0.00  0.00    +0.000 NA
ATOM      5  C   UNL     1      43.740   3.815  12.949  0.00  0.00    +0.000 A 
ATOM      6  C   UNL     1      44.879   4.511  12.564  0.00  0.00    +0.000 A 
ATOM      7  C   UNL     1      45.387   4.226  11.289  0.00  0.00    +0.000 A 
BRANCH   2  12
ATOM      8  C   UNL     1      47.882   2.248   5.903  0.00  0.00    +0.000 C 
ATOM      9  N   UNL     1      46.663   2.410   6.692  0.00  0.00    +0.000 NA
ATOM     10  C   UNL     1      46.628   1.428   7.801  0.00  0.00    +0.000 C 
ATOM     11  C   UNL     1      45.390   1.599   8.717  0.00  0.00    +0.000 C 
ATOM     12  N   UNL     1      45.357   2.981   9.221  0.00  0.00    +0.000 N 
ATOM     13  C   UNL     1      45.342   3.986   8.142  0.00  0.00    +0.000 C 
ATOM     14  C   UNL     1      46.584   3.782   7.244  0.00  0.00    +0.000 C 
ENDBRANCH   2  12
ENDBRANCH   1   6
BRANCH   1  15
ATOM     15  C   UNL     1      46.900   5.025  14.048  0.00  0.00    +0.000 C 
BRANCH  15  16
ATOM     16  N   UNL     1      46.716   4.617  15.435  0.00  0.00    +0.000 N 
ATOM     17  H   UNL     1      46.130   5.231  15.996  0.00  0.00    +0.000 HD
BRANCH  16  18
ATOM     18  C   UNL     1      47.821   4.128  16.142  0.00  0.00    +0.000 A 
ATOM     19  C   UNL     1      48.728   4.949  16.828  0.00  0.00    +0.000 A 
ATOM     20  C   UNL     1      49.873   4.423  17.434  0.00  0.00    +0.000 A 
ATOM     21  C   UNL     1      50.147   3.058  17.349  0.00  0.00    +0.000 A 
ATOM     22  C   UNL     1      49.270   2.226  16.646  0.00  0.00    +0.000 A 
ATOM     23  C   UNL     1      48.123   2.764  16.047  0.00  0.00    +0.000 A 
BRANCH  21  24
ATOM     24  C   UNL     1      51.395   2.551  17.976  0.00  0.00    +0.000 C 
ATOM     25  N   UNL     1      52.011   3.353  18.894  0.00  0.00    +0.000 N 
ATOM     26  O   UNL     1      51.881   1.470  17.665  0.00  0.00    +0.000 OA
ATOM     27  H   UNL     1      51.789   4.333  18.997  0.00  0.00    +0.000 HD
ATOM     28  H   UNL     1      52.910   3.035  19.234  0.00  0.00    +0.000 HD
ENDBRANCH  21  24
ENDBRANCH  16  18
ENDBRANCH  15  16
ENDBRANCH   1  15
TORSDOF 6
ENDMDL
MODEL 7
REMARK VINA RESULT:    -6.416      2.928      7.426
REMARK INTER + INTRA:          -9.520
REMARK INTER:                  -8.757
REMARK INTRA:                  -0.763
REMARK UNBOUND:                -0.854
REMARK  Name = 
REMARK  7 active torsions:
REMARK  status: ('A' for Active; 'I' for Inactive)
REMARK    1  A    between atoms: C_1  and  N_2
REMARK    2  A    between atoms: N_5  and  C_6
REMARK    3  A    between atoms: C_10  and  C_11
REMARK    4  A    between atoms: C_11  and  C_12
REMARK    5  A    between atoms: C_12  and  N_13
REMARK    6  A    between atoms: N_13  and  C_14
REMARK    7  A    between atoms: C_17  and  C_18
REMARK                            x       y       z     vdW  Elec       q    Type
REMARK                         _______ _______ _______ _____ _____    ______ ____
ROOT
ATOM      1  C   UNL     1      45.285   5.838  13.161  0.00  0.00    +0.000 C 
ENDROOT
BRANCH   1   6
ATOM      2  C   UNL     1      44.751   3.273  10.387  0.00  0.00    +0.000 A 
ATOM      3  C   UNL     1      43.734   2.535  10.991  0.00  0.00    +0.000 A 
ATOM      4  N   UNL     1      43.195   2.786  12.209  0.00  0.00    +0.000 NA
ATOM      5  C   UNL     1      43.699   3.839  12.882  0.00  0.00    +0.000 A 
ATOM      6  C   UNL     1      44.710   4.663  12.406  0.00  0.00    +0.000 A 
ATOM      7  C   UNL     1      45.227   4.354  11.140  0.00  0.00    +0.000 A 
BRANCH   2  12
ATOM      8  C   UNL     1      47.895   2.209   5.885  0.00  0.00    +0.000 C 
ATOM      9  N   UNL     1      46.669   2.366   6.663  0.00  0.00    +0.000 NA
ATOM     10  C   UNL     1      46.639   1.399   7.786  0.00  0.00    +0.000 C 
ATOM     11  C   UNL     1      45.392   1.566   8.691  0.00  0.00    +0.000 C 
ATOM     12  N   UNL     1      45.338   2.955   9.176  0.00  0.00    +0.000 N 
ATOM     13  C   UNL     1      45.318   3.945   8.083  0.00  0.00    +0.000 C 
ATOM     14  C   UNL     1      46.569   3.745   7.197  0.00  0.00    +0.000 C 
ENDBRANCH   2  12
ENDBRANCH   1   6
BRANCH   1  15
ATOM     15  C   UNL     1      44.859   7.209  12.634  0.00  0.00    +0.000 C 
BRANCH  15  16
ATOM     16  N   UNL     1      45.883   7.805  11.786  0.00  0.00    +0.000 N 
ATOM     17  H   UNL     1      45.879   7.500  10.816  0.00  0.00    +0.000 HD
BRANCH  16  18
ATOM     18  C   UNL     1      47.176   7.955  12.301  0.00  0.00    +0.000 A 
ATOM     19  C   UNL     1      48.314   7.378  11.718  0.00  0.00    +0.000 A 
ATOM     20  C   UNL     1      49.570   7.470  12.325  0.00  0.00    +0.000 A 
ATOM     21  C   UNL     1      49.712   8.128  13.548  0.00  0.00    +0.000 A 
ATOM     22  C   UNL     1      48.585   8.685  14.159  0.00  0.00    +0.000 A 
ATOM     23  C   UNL     1      47.332   8.592  13.538  0.00  0.00    +0.000 A 
BRANCH  21  24
ATOM     24  C   UNL     1      51.059   8.167  14.173  0.00  0.00    +0.000 C 
ATOM     25  N   UNL     1      51.318   7.269  15.170  0.00  0.00    +0.000 N 
ATOM     26  O   UNL     1      51.903   8.989  13.838  0.00  0.00    +0.000 OA
ATOM     27  H   UNL     1      50.589   6.750  15.638  0.00  0.00    +0.000 HD
ATOM     28  H   UNL     1      52.202   7.377  15.649  0.00  0.00    +0.000 HD
ENDBRANCH  21  24
ENDBRANCH  16  18
ENDBRANCH  15  16
ENDBRANCH   1  15
TORSDOF 6
ENDMDL
MODEL 8
REMARK VINA RESULT:    -6.142      3.596      6.250
REMARK INTER + INTRA:          -9.150
REMARK INTER:                  -8.307
REMARK INTRA:                  -0.843
REMARK UNBOUND:                -0.854
REMARK  Name = 
REMARK  7 active torsions:
REMARK  status: ('A' for Active; 'I' for Inactive)
REMARK    1  A    between atoms: C_1  and  N_2
REMARK    2  A    between atoms: N_5  and  C_6
REMARK    3  A    between atoms: C_10  and  C_11
REMARK    4  A    between atoms: C_11  and  C_12
REMARK    5  A    between atoms: C_12  and  N_13
REMARK    6  A    between atoms: N_13  and  C_14
REMARK    7  A    between atoms: C_17  and  C_18
REMARK                            x       y       z     vdW  Elec       q    Type
REMARK                         _______ _______ _______ _____ _____    ______ ____
ROOT
ATOM      1  C   UNL     1      48.052   7.682  12.088  0.00  0.00    +0.000 C 
ENDROOT
BRANCH   1   6
ATOM      2  C   UNL     1      49.791   6.929  15.400  0.00  0.00    +0.000 A 
ATOM      3  C   UNL     1      50.953   7.671  15.188  0.00  0.00    +0.000 A 
ATOM      4  N   UNL     1      51.232   8.398  14.080  0.00  0.00    +0.000 NA
ATOM      5  C   UNL     1      50.299   8.392  13.107  0.00  0.00    +0.000 A 
ATOM      6  C   UNL     1      49.096   7.701  13.180  0.00  0.00    +0.000 A 
ATOM      7  C   UNL     1      48.863   6.967  14.351  0.00  0.00    +0.000 A 
BRANCH   2  12
ATOM      8  C   UNL     1      48.761   4.478  20.321  0.00  0.00    +0.000 C 
ATOM      9  N   UNL     1      49.114   4.559  18.906  0.00  0.00    +0.000 NA
ATOM     10  C   UNL     1      47.997   5.140  18.125  0.00  0.00    +0.000 C 
ATOM     11  C   UNL     1      48.340   5.317  16.624  0.00  0.00    +0.000 C 
ATOM     12  N   UNL     1      49.559   6.132  16.507  0.00  0.00    +0.000 N 
ATOM     13  C   UNL     1      50.707   5.557  17.233  0.00  0.00    +0.000 C 
ATOM     14  C   UNL     1      50.328   5.387  18.722  0.00  0.00    +0.000 C 
ENDBRANCH   2  12
ENDBRANCH   1   6
BRANCH   1  15
ATOM     15  C   UNL     1      46.802   8.514  12.383  0.00  0.00    +0.000 C 
BRANCH  15  16
ATOM     16  N   UNL     1      45.865   7.798  13.238  0.00  0.00    +0.000 N 
ATOM     17  H   UNL     1      46.104   7.778  14.226  0.00  0.00    +0.000 HD
BRANCH  16  18
ATOM     18  C   UNL     1      45.336   6.584  12.784  0.00  0.00    +0.000 A 
ATOM     19  C   UNL     1      45.646   5.342  13.356  0.00  0.00    +0.000 A 
ATOM     20  C   UNL     1      45.172   4.147  12.804  0.00  0.00    +0.000 A 
ATOM     21  C   UNL     1      44.392   4.169  11.647  0.00  0.00    +0.000 A 
ATOM     22  C   UNL     1      44.095   5.395  11.045  0.00  0.00    +0.000 A 
ATOM     23  C   UNL     1      44.570   6.587  11.612  0.00  0.00    +0.000 A 
BRANCH  21  24
ATOM     24  C   UNL     1      43.945   2.872  11.076  0.00  0.00    +0.000 C 
ATOM     25  N   UNL     1      44.662   2.364  10.029  0.00  0.00    +0.000 N 
ATOM     26  O   UNL     1      42.955   2.288  11.498  0.00  0.00    +0.000 OA
ATOM     27  H   UNL     1      45.320   2.917   9.500  0.00  0.00    +0.000 HD
ATOM     28  H   UNL     1      44.284   1.534   9.591  0.00  0.00    +0.000 HD
ENDBRANCH  21  24
ENDBRANCH  16  18
ENDBRANCH  15  16
ENDBRANCH   1  15
TORSDOF 6
ENDMDL
MODEL 9
REMARK VINA RESULT:    -6.105      3.720      7.733
REMARK INTER + INTRA:          -9.100
REMARK INTER:                  -8.088
REMARK INTRA:                  -1.011
REMARK UNBOUND:                -0.854
REMARK  Name = 
REMARK  7 active torsions:
REMARK  status: ('A' for Active; 'I' for Inactive)
REMARK    1  A    between atoms: C_1  and  N_2
REMARK    2  A    between atoms: N_5  and  C_6
REMARK    3  A    between atoms: C_10  and  C_11
REMARK    4  A    between atoms: C_11  and  C_12
REMARK    5  A    between atoms: C_12  and  N_13
REMARK    6  A    between atoms: N_13  and  C_14
REMARK    7  A    between atoms: C_17  and  C_18
REMARK                            x       y       z     vdW  Elec       q    Type
REMARK                         _______ _______ _______ _____ _____    ______ ____
ROOT
ATOM      1  C   UNL     1      48.270   9.658  12.778  0.00  0.00    +0.000 C 
ENDROOT
BRANCH   1   6
ATOM      2  C   UNL     1      45.033   7.900  11.782  0.00  0.00    +0.000 A 
ATOM      3  C   UNL     1      44.349   9.009  11.285  0.00  0.00    +0.000 A 
ATOM      4  N   UNL     1      44.831  10.274  11.234  0.00  0.00    +0.000 NA
ATOM      5  C   UNL     1      46.078  10.461  11.711  0.00  0.00    +0.000 A 
ATOM      6  C   UNL     1      46.877   9.452  12.233  0.00  0.00    +0.000 A 
ATOM      7  C   UNL     1      46.324   8.164  12.259  0.00  0.00    +0.000 A 
BRANCH   2  12
ATOM      8  C   UNL     1      43.435   2.544  11.596  0.00  0.00    +0.000 C 
ATOM      9  N   UNL     1      43.401   3.944  12.008  0.00  0.00    +0.000 NA
ATOM     10  C   UNL     1      44.659   4.314  12.698  0.00  0.00    +0.000 C 
ATOM     11  C   UNL     1      44.709   5.810  13.097  0.00  0.00    +0.000 C 
ATOM     12  N   UNL     1      44.495   6.631  11.895  0.00  0.00    +0.000 N 
ATOM     13  C   UNL     1      43.226   6.324  11.208  0.00  0.00    +0.000 C 
ATOM     14  C   UNL     1      43.206   4.825  10.832  0.00  0.00    +0.000 C 
ENDBRANCH   2  12
ENDBRANCH   1   6
BRANCH   1  15
ATOM     15  C   UNL     1      48.484   9.142  14.202  0.00  0.00    +0.000 C 
BRANCH  15  16
ATOM     16  N   UNL     1      49.311   7.943  14.224  0.00  0.00    +0.000 N 
ATOM     17  H   UNL     1      49.693   7.660  13.325  0.00  0.00    +0.000 HD
BRANCH  16  18
ATOM     18  C   UNL     1      48.898   6.857  15.004  0.00  0.00    +0.000 A 
ATOM     19  C   UNL     1      47.981   5.891  14.563  0.00  0.00    +0.000 A 
ATOM     20  C   UNL     1      47.520   4.881  15.414  0.00  0.00    +0.000 A 
ATOM     21  C   UNL     1      47.953   4.829  16.739  0.00  0.00    +0.000 A 
ATOM     22  C   UNL     1      48.844   5.799  17.207  0.00  0.00    +0.000 A 
ATOM     23  C   UNL     1      49.304   6.803  16.343  0.00  0.00    +0.000 A 
BRANCH  21  24
ATOM     24  C   UNL     1      47.406   3.762  17.616  0.00  0.00    +0.000 C 
ATOM     25  N   UNL     1      48.001   3.578  18.832  0.00  0.00    +0.000 N 
ATOM     26  O   UNL     1      46.477   3.047  17.260  0.00  0.00    +0.000 OA
ATOM     27  H   UNL     1      48.904   3.967  19.061  0.00  0.00    +0.000 HD
ATOM     28  H   UNL     1      47.679   2.783  19.370  0.00  0.00    +0.000 HD
ENDBRANCH  21  24
ENDBRANCH  16  18
ENDBRANCH  15  16
ENDBRANCH   1  15
TORSDOF 6
ENDMDL
