MODEL 1
REMARK VINA RESULT:    -9.107      0.000      0.000
REMARK INTER + INTRA:         -13.493
REMARK INTER:                 -12.301
REMARK INTRA:                  -1.193
REMARK UNBOUND:                -1.193
REMARK  Name = 
REMARK  6 active torsions:
REMARK  status: ('A' for Active; 'I' for Inactive)
REMARK    1  A    between atoms: C_2  and  C_4
REMARK    2  A    between atoms: C_7  and  O_8
REMARK    3  A    between atoms: O_8  and  C_9
REMARK    4  A    between atoms: C_9  and  C_10
REMARK    5  A    between atoms: C_10  and  C_13
REMARK    6  A    between atoms: C_17  and  C_18
REMARK                            x       y       z     vdW  Elec       q    Type
REMARK                         _______ _______ _______ _____ _____    ______ ____
ROOT
ATOM      1  C   UNL     1      43.335   5.355  12.079  0.00  0.00    +0.000 C 
ATOM      2  F   UNL     1      42.822   6.506  11.549  0.00  0.00    +0.000 F 
ATOM      3  F   UNL     1      42.493   5.025  13.105  0.00  0.00    +0.000 F 
ENDROOT
BRANCH   1   4
ATOM      4  C   UNL     1      44.762   5.551  12.570  0.00  0.00    +0.000 A 
ATOM      5  C   UNL     1      45.411   4.526  13.270  0.00  0.00    +0.000 A 
ATOM      6  C   UNL     1      46.718   4.699  13.718  0.00  0.00    +0.000 A 
ATOM      7  C   UNL     1      47.400   5.888  13.447  0.00  0.00    +0.000 A 
ATOM      8  C   UNL     1      46.808   6.925  12.702  0.00  0.00    +0.000 A 
ATOM      9  C   UNL     1      45.469   6.740  12.296  0.00  0.00    +0.000 A 
BRANCH   8  10
ATOM     10  C   UNL     1      47.590   8.119  12.292  0.00  0.00    +0.000 A 
ATOM     11  C   UNL     1      48.942   7.998  11.914  0.00  0.00    +0.000 A 
ATOM     12  C   UNL     1      49.677   9.089  11.440  0.00  0.00    +0.000 A 
ATOM     13  C   UNL     1      49.072  10.335  11.327  0.00  0.00    +0.000 A 
ATOM     14  C   UNL     1      47.744  10.491  11.713  0.00  0.00    +0.000 A 
ATOM     15  C   UNL     1      47.015   9.399  12.200  0.00  0.00    +0.000 A 
ENDBRANCH   8  10
ENDBRANCH   1   4
BRANCH   1  16
ATOM     16  C   UNL     1      43.268   4.250  11.015  0.00  0.00    +0.000 C 
BRANCH  16  17
ATOM     17  O   UNL     1      43.587   4.767   9.706  0.00  0.00    +0.000 OA
BRANCH  17  21
ATOM     18  C   UNL     1      46.367   2.414   7.771  0.00  0.00    +0.000 A 
ATOM     19  C   UNL     1      45.502   1.836   8.700  0.00  0.00    +0.000 A 
ATOM     20  C   UNL     1      44.566   2.640   9.358  0.00  0.00    +0.000 A 
ATOM     21  C   UNL     1      44.532   3.995   9.058  0.00  0.00    +0.000 A 
ATOM     22  N   UNL     1      45.365   4.581   8.172  0.00  0.00    +0.000 NA
ATOM     23  C   UNL     1      46.270   3.782   7.558  0.00  0.00    +0.000 A 
BRANCH  18  25
ATOM     24  N   UNL     1      48.445   2.370   6.512  0.00  0.00    +0.000 N 
ATOM     25  C   UNL     1      47.389   1.662   7.013  0.00  0.00    +0.000 C 
ATOM     26  O   UNL     1      47.321   0.448   6.879  0.00  0.00    +0.000 OA
ATOM     27  H   UNL     1      49.193   1.821   6.106  0.00  0.00    +0.000 HD
ATOM     28  H   UNL     1      48.671   3.305   6.820  0.00  0.00    +0.000 HD
ENDBRANCH  18  25
ENDBRANCH  17  21
ENDBRANCH  16  17
ENDBRANCH   1  16
TORSDOF 6
ENDMDL
MODEL 2
REMARK VINA RESULT:    -9.077      0.799      1.072
REMARK INTER + INTRA:         -13.453
REMARK INTER:                 -12.269
REMARK INTRA:                  -1.185
REMARK UNBOUND:                -1.193
REMARK  Name = 
REMARK  6 active torsions:
REMARK  status: ('A' for Active; 'I' for Inactive)
REMARK    1  A    between atoms: C_2  and  C_4
REMARK    2  A    between atoms: C_7  and  O_8
REMARK    3  A    between atoms: O_8  and  C_9
REMARK    4  A    between atoms: C_9  and  C_10
REMARK    5  A    between atoms: C_10  and  C_13
REMARK    6  A    between atoms: C_17  and  C_18
REMARK                            x       y       z     vdW  Elec       q    Type
REMARK                         _______ _______ _______ _____ _____    ______ ____
ROOT
ATOM      1  C   UNL     1      43.311   4.707  12.491  0.00  0.00    +0.000 C 
ATOM      2  F   UNL     1      42.331   5.650  12.352  0.00  0.00    +0.000 F 
ATOM      3  F   UNL     1      42.918   3.932  13.547  0.00  0.00    +0.000 F 
ENDROOT
BRANCH   1   4
ATOM      4  C   UNL     1      44.671   5.344  12.742  0.00  0.00    +0.000 A 
ATOM      5  C   UNL     1      45.748   4.556  13.166  0.00  0.00    +0.000 A 
ATOM      6  C   UNL     1      46.994   5.133  13.394  0.00  0.00    +0.000 A 
ATOM      7  C   UNL     1      47.184   6.499  13.174  0.00  0.00    +0.000 A 
ATOM      8  C   UNL     1      46.146   7.321  12.699  0.00  0.00    +0.000 A 
ATOM      9  C   UNL     1      44.883   6.719  12.516  0.00  0.00    +0.000 A 
BRANCH   8  10
ATOM     10  C   UNL     1      46.396   8.737  12.327  0.00  0.00    +0.000 A 
ATOM     11  C   UNL     1      47.708   9.199  12.095  0.00  0.00    +0.000 A 
ATOM     12  C   UNL     1      47.965  10.501  11.658  0.00  0.00    +0.000 A 
ATOM     13  C   UNL     1      46.911  11.380  11.438  0.00  0.00    +0.000 A 
ATOM     14  C   UNL     1      45.606  10.961  11.679  0.00  0.00    +0.000 A 
ATOM     15  C   UNL     1      45.353   9.659  12.129  0.00  0.00    +0.000 A 
ENDBRANCH   8  10
ENDBRANCH   1   4
BRANCH   1  16
ATOM     16  C   UNL     1      43.340   3.835  11.228  0.00  0.00    +0.000 C 
BRANCH  16  17
ATOM     17  O   UNL     1      43.774   4.594  10.080  0.00  0.00    +0.000 OA
BRANCH  17  21
ATOM     18  C   UNL     1      46.402   2.440   7.744  0.00  0.00    +0.000 A 
ATOM     19  C   UNL     1      45.649   1.784   8.718  0.00  0.00    +0.000 A 
ATOM     20  C   UNL     1      44.765   2.521   9.512  0.00  0.00    +0.000 A 
ATOM     21  C   UNL     1      44.667   3.889   9.297  0.00  0.00    +0.000 A 
ATOM     22  N   UNL     1      45.392   4.550   8.370  0.00  0.00    +0.000 NA
ATOM     23  C   UNL     1      46.251   3.815   7.623  0.00  0.00    +0.000 A 
BRANCH  18  25
ATOM     24  N   UNL     1      48.444   2.484   6.427  0.00  0.00    +0.000 N 
ATOM     25  C   UNL     1      47.361   1.763   6.845  0.00  0.00    +0.000 C 
ATOM     26  O   UNL     1      47.220   0.590   6.526  0.00  0.00    +0.000 OA
ATOM     27  H   UNL     1      49.150   1.967   5.916  0.00  0.00    +0.000 HD
ATOM     28  H   UNL     1      48.730   3.346   6.869  0.00  0.00    +0.000 HD
ENDBRANCH  18  25
ENDBRANCH  17  21
ENDBRANCH  16  17
ENDBRANCH   1  16
TORSDOF 6
ENDMDL
MODEL 3
REMARK VINA RESULT:    -8.933      2.066      3.849
REMARK INTER + INTRA:         -13.259
REMARK INTER:                 -12.033
REMARK INTRA:                  -1.226
REMARK UNBOUND:                -1.193
REMARK  Name = 
REMARK  6 active torsions:
REMARK  status: ('A' for Active; 'I' for Inactive)
REMARK    1  A    between atoms: C_2  and  C_4
REMARK    2  A    between atoms: C_7  and  O_8
REMARK    3  A    between atoms: O_8  and  C_9
REMARK    4  A    between atoms: C_9  and  C_10
REMARK    5  A    between atoms: C_10  and  C_13
REMARK    6  A    between atoms: C_17  and  C_18
REMARK                            x       y       z     vdW  Elec       q    Type
REMARK                         _______ _______ _______ _____ _____    ______ ____
ROOT
ATOM      1  C   UNL     1      43.717   4.602  12.431  0.00  0.00    +0.000 C 
ATOM      2  F   UNL     1      42.777   5.415  13.000  0.00  0.00    +0.000 F 
ATOM      3  F   UNL     1      43.466   3.354  12.933  0.00  0.00    +0.000 F 
ENDROOT
BRANCH   1   4
ATOM      4  C   UNL     1      45.130   5.061  12.759  0.00  0.00    +0.000 A 
ATOM      5  C   UNL     1      45.790   5.962  11.914  0.00  0.00    +0.000 A 
ATOM      6  C   UNL     1      47.081   6.388  12.212  0.00  0.00    +0.000 A 
ATOM      7  C   UNL     1      47.717   5.939  13.372  0.00  0.00    +0.000 A 
ATOM      8  C   UNL     1      47.075   5.075  14.278  0.00  0.00    +0.000 A 
ATOM      9  C   UNL     1      45.783   4.626  13.931  0.00  0.00    +0.000 A 
BRANCH   8  10
ATOM     10  C   UNL     1      47.699   4.723  15.578  0.00  0.00    +0.000 A 
ATOM     11  C   UNL     1      48.448   5.676  16.298  0.00  0.00    +0.000 A 
ATOM     12  C   UNL     1      48.973   5.400  17.564  0.00  0.00    +0.000 A 
ATOM     13  C   UNL     1      48.757   4.157  18.148  0.00  0.00    +0.000 A 
ATOM     14  C   UNL     1      48.040   3.187  17.453  0.00  0.00    +0.000 A 
ATOM     15  C   UNL     1      47.528   3.463  16.180  0.00  0.00    +0.000 A 
ENDBRANCH   8  10
ENDBRANCH   1   4
BRANCH   1  16
ATOM     16  C   UNL     1      43.489   4.574  10.913  0.00  0.00    +0.000 C 
BRANCH  16  17
ATOM     17  O   UNL     1      43.474   3.220  10.413  0.00  0.00    +0.000 OA
BRANCH  17  21
ATOM     18  C   UNL     1      46.411   2.638   7.577  0.00  0.00    +0.000 A 
ATOM     19  C   UNL     1      45.946   3.928   7.832  0.00  0.00    +0.000 A 
ATOM     20  C   UNL     1      44.945   4.118   8.790  0.00  0.00    +0.000 A 
ATOM     21  C   UNL     1      44.449   3.007   9.458  0.00  0.00    +0.000 A 
ATOM     22  N   UNL     1      44.873   1.747   9.221  0.00  0.00    +0.000 NA
ATOM     23  C   UNL     1      45.834   1.589   8.280  0.00  0.00    +0.000 A 
BRANCH  18  25
ATOM     24  N   UNL     1      47.387   2.921   5.369  0.00  0.00    +0.000 N 
ATOM     25  C   UNL     1      47.468   2.319   6.594  0.00  0.00    +0.000 C 
ATOM     26  O   UNL     1      48.405   1.585   6.877  0.00  0.00    +0.000 OA
ATOM     27  H   UNL     1      48.183   2.788   4.757  0.00  0.00    +0.000 HD
ATOM     28  H   UNL     1      46.794   3.719   5.190  0.00  0.00    +0.000 HD
ENDBRANCH  18  25
ENDBRANCH  17  21
ENDBRANCH  16  17
ENDBRANCH   1  16
TORSDOF 6
ENDMDL
MODEL 4
REMARK VINA RESULT:    -7.980      4.509      7.934
REMARK INTER + INTRA:         -11.972
REMARK INTER:                 -11.089
REMARK INTRA:                  -0.883
REMARK UNBOUND:                -1.193
REMARK  Name = 
REMARK  6 active torsions:
REMARK  status: ('A' for Active; 'I' for Inactive)
REMARK    1  A    between atoms: C_2  and  C_4
REMARK    2  A    between atoms: C_7  and  O_8
REMARK    3  A    between atoms: O_8  and  C_9
REMARK    4  A    between atoms: C_9  and  C_10
REMARK    5  A    between atoms: C_10  and  C_13
REMARK    6  A    between atoms: C_17  and  C_18
REMARK                            x       y       z     vdW  Elec       q    Type
REMARK                         _______ _______ _______ _____ _____    ______ ____
ROOT
ATOM      1  C   UNL     1      45.357   5.718  12.684  0.00  0.00    +0.000 C 
ATOM      2  F   UNL     1      44.369   6.203  13.496  0.00  0.00    +0.000 F 
ATOM      3  F   UNL     1      45.700   6.763  11.872  0.00  0.00    +0.000 F 
ENDROOT
BRANCH   1   4
ATOM      4  C   UNL     1      44.883   4.517  11.879  0.00  0.00    +0.000 A 
ATOM      5  C   UNL     1      43.745   3.807  12.281  0.00  0.00    +0.000 A 
ATOM      6  C   UNL     1      43.306   2.710  11.546  0.00  0.00    +0.000 A 
ATOM      7  C   UNL     1      43.983   2.327  10.385  0.00  0.00    +0.000 A 
ATOM      8  C   UNL     1      45.099   3.042   9.913  0.00  0.00    +0.000 A 
ATOM      9  C   UNL     1      45.548   4.123  10.700  0.00  0.00    +0.000 A 
BRANCH   8  10
ATOM     10  C   UNL     1      45.720   2.719   8.603  0.00  0.00    +0.000 A 
ATOM     11  C   UNL     1      45.902   3.720   7.628  0.00  0.00    +0.000 A 
ATOM     12  C   UNL     1      46.563   3.465   6.422  0.00  0.00    +0.000 A 
ATOM     13  C   UNL     1      47.063   2.195   6.162  0.00  0.00    +0.000 A 
ATOM     14  C   UNL     1      46.880   1.180   7.095  0.00  0.00    +0.000 A 
ATOM     15  C   UNL     1      46.206   1.436   8.296  0.00  0.00    +0.000 A 
ENDBRANCH   8  10
ENDBRANCH   1   4
BRANCH   1  16
ATOM     16  C   UNL     1      46.571   5.352  13.551  0.00  0.00    +0.000 C 
BRANCH  16  17
ATOM     17  O   UNL     1      46.266   4.259  14.441  0.00  0.00    +0.000 OA
BRANCH  17  21
ATOM     18  C   UNL     1      48.477   4.488  17.915  0.00  0.00    +0.000 A 
ATOM     19  C   UNL     1      48.731   5.384  16.876  0.00  0.00    +0.000 A 
ATOM     20  C   UNL     1      47.982   5.297  15.698  0.00  0.00    +0.000 A 
ATOM     21  C   UNL     1      47.005   4.315  15.607  0.00  0.00    +0.000 A 
ATOM     22  N   UNL     1      46.748   3.428  16.592  0.00  0.00    +0.000 NA
ATOM     23  C   UNL     1      47.496   3.526  17.717  0.00  0.00    +0.000 A 
BRANCH  18  25
ATOM     24  N   UNL     1      48.589   3.884  20.266  0.00  0.00    +0.000 N 
ATOM     25  C   UNL     1      49.200   4.490  19.204  0.00  0.00    +0.000 C 
ATOM     26  O   UNL     1      50.321   4.970  19.308  0.00  0.00    +0.000 OA
ATOM     27  H   UNL     1      49.151   3.787  21.104  0.00  0.00    +0.000 HD
ATOM     28  H   UNL     1      47.803   3.259  20.161  0.00  0.00    +0.000 HD
ENDBRANCH  18  25
ENDBRANCH  17  21
ENDBRANCH  16  17
ENDBRANCH   1  16
TORSDOF 6
ENDMDL
MODEL 5
REMARK VINA RESULT:    -7.212      4.486      7.650
REMARK INTER + INTRA:         -10.934
REMARK INTER:                  -9.784
REMARK INTRA:                  -1.150
REMARK UNBOUND:                -1.193
REMARK  Name = 
REMARK  6 active torsions:
REMARK  status: ('A' for Active; 'I' for Inactive)
REMARK    1  A    between atoms: C_2  and  C_4
REMARK    2  A    between atoms: C_7  and  O_8
REMARK    3  A    between atoms: O_8  and  C_9
REMARK    4  A    between atoms: C_9  and  C_10
REMARK    5  A    between atoms: C_10  and  C_13
REMARK    6  A    between atoms: C_17  and  C_18
REMARK                            x       y       z     vdW  Elec       q    Type
REMARK                         _______ _______ _______ _____ _____    ______ ____
ROOT
ATOM      1  C   UNL     1      48.899   8.338  12.339  0.00  0.00    +0.000 C 
ATOM      2  F   UNL     1      49.026   9.585  12.885  0.00  0.00    +0.000 F 
ATOM      3  F   UNL     1      49.624   8.377  11.181  0.00  0.00    +0.000 F 
ENDROOT
BRANCH   1   4
ATOM      4  C   UNL     1      47.442   7.988  12.074  0.00  0.00    +0.000 A 
ATOM      5  C   UNL     1      46.435   8.925  12.336  0.00  0.00    +0.000 A 
ATOM      6  C   UNL     1      45.101   8.610  12.092  0.00  0.00    +0.000 A 
ATOM      7  C   UNL     1      44.762   7.365  11.558  0.00  0.00    +0.000 A 
ATOM      8  C   UNL     1      45.743   6.411  11.229  0.00  0.00    +0.000 A 
ATOM      9  C   UNL     1      47.082   6.740  11.526  0.00  0.00    +0.000 A 
BRANCH   8  10
ATOM     10  C   UNL     1      45.385   5.153  10.525  0.00  0.00    +0.000 A 
ATOM     11  C   UNL     1      44.749   4.100  11.212  0.00  0.00    +0.000 A 
ATOM     12  C   UNL     1      44.322   2.942  10.556  0.00  0.00    +0.000 A 
ATOM     13  C   UNL     1      44.518   2.809   9.187  0.00  0.00    +0.000 A 
ATOM     14  C   UNL     1      45.163   3.822   8.484  0.00  0.00    +0.000 A 
ATOM     15  C   UNL     1      45.602   4.975   9.147  0.00  0.00    +0.000 A 
ENDBRANCH   8  10
ENDBRANCH   1   4
BRANCH   1  16
ATOM     16  C   UNL     1      49.544   7.318  13.288  0.00  0.00    +0.000 C 
BRANCH  16  17
ATOM     17  O   UNL     1      49.366   7.702  14.667  0.00  0.00    +0.000 OA
BRANCH  17  21
ATOM     18  C   UNL     1      48.109   4.586  17.058  0.00  0.00    +0.000 A 
ATOM     19  C   UNL     1      49.019   5.515  17.560  0.00  0.00    +0.000 A 
ATOM     20  C   UNL     1      49.447   6.566  16.742  0.00  0.00    +0.000 A 
ATOM     21  C   UNL     1      48.943   6.646  15.451  0.00  0.00    +0.000 A 
ATOM     22  N   UNL     1      48.071   5.753  14.937  0.00  0.00    +0.000 NA
ATOM     23  C   UNL     1      47.683   4.738  15.745  0.00  0.00    +0.000 A 
BRANCH  18  25
ATOM     24  N   UNL     1      48.242   3.106  18.981  0.00  0.00    +0.000 N 
ATOM     25  C   UNL     1      47.584   3.441  17.832  0.00  0.00    +0.000 C 
ATOM     26  O   UNL     1      46.571   2.846  17.486  0.00  0.00    +0.000 OA
ATOM     27  H   UNL     1      47.796   2.403  19.559  0.00  0.00    +0.000 HD
ATOM     28  H   UNL     1      48.905   3.721  19.430  0.00  0.00    +0.000 HD
ENDBRANCH  18  25
ENDBRANCH  17  21
ENDBRANCH  16  17
ENDBRANCH   1  16
TORSDOF 6
ENDMDL
MODEL 6
REMARK VINA RESULT:    -7.140      5.467      7.157
REMARK INTER + INTRA:         -10.837
REMARK INTER:                 -10.021
REMARK INTRA:                  -0.815
REMARK UNBOUND:                -1.193
REMARK  Name = 
REMARK  6 active torsions:
REMARK  status: ('A' for Active; 'I' for Inactive)
REMARK    1  A    between atoms: C_2  and  C_4
REMARK    2  A    between atoms: C_7  and  O_8
REMARK    3  A    between atoms: O_8  and  C_9
REMARK    4  A    between atoms: C_9  and  C_10
REMARK    5  A    between atoms: C_10  and  C_13
REMARK    6  A    between atoms: C_17  and  C_18
REMARK                            x       y       z     vdW  Elec       q    Type
REMARK                         _______ _______ _______ _____ _____    ______ ____
ROOT
ATOM      1  C   UNL     1      47.949   3.206  16.998  0.00  0.00    +0.000 C 
ATOM      2  F   UNL     1      46.938   2.487  17.573  0.00  0.00    +0.000 F 
ATOM      3  F   UNL     1      48.807   2.272  16.486  0.00  0.00    +0.000 F 
ENDROOT
BRANCH   1   4
ATOM      4  C   UNL     1      48.643   4.107  18.009  0.00  0.00    +0.000 A 
ATOM      5  C   UNL     1      49.996   3.913  18.310  0.00  0.00    +0.000 A 
ATOM      6  C   UNL     1      50.636   4.736  19.232  0.00  0.00    +0.000 A 
ATOM      7  C   UNL     1      49.938   5.781  19.841  0.00  0.00    +0.000 A 
ATOM      8  C   UNL     1      48.591   6.048  19.531  0.00  0.00    +0.000 A 
ATOM      9  C   UNL     1      47.956   5.172  18.626  0.00  0.00    +0.000 A 
BRANCH   8  10
ATOM     10  C   UNL     1      47.902   7.248  20.070  0.00  0.00    +0.000 A 
ATOM     11  C   UNL     1      47.649   7.372  21.451  0.00  0.00    +0.000 A 
ATOM     12  C   UNL     1      47.083   8.528  21.997  0.00  0.00    +0.000 A 
ATOM     13  C   UNL     1      46.757   9.597  21.170  0.00  0.00    +0.000 A 
ATOM     14  C   UNL     1      46.975   9.496  19.799  0.00  0.00    +0.000 A 
ATOM     15  C   UNL     1      47.530   8.332  19.255  0.00  0.00    +0.000 A 
ENDBRANCH   8  10
ENDBRANCH   1   4
BRANCH   1  16
ATOM     16  C   UNL     1      47.370   4.028  15.837  0.00  0.00    +0.000 C 
BRANCH  16  17
ATOM     17  O   UNL     1      47.443   3.298  14.594  0.00  0.00    +0.000 OA
BRANCH  17  21
ATOM     18  C   UNL     1      44.803   4.771  11.789  0.00  0.00    +0.000 A 
ATOM     19  C   UNL     1      45.534   5.658  12.579  0.00  0.00    +0.000 A 
ATOM     20  C   UNL     1      46.422   5.152  13.534  0.00  0.00    +0.000 A 
ATOM     21  C   UNL     1      46.546   3.775  13.658  0.00  0.00    +0.000 A 
ATOM     22  N   UNL     1      45.843   2.896  12.914  0.00  0.00    +0.000 NA
ATOM     23  C   UNL     1      44.980   3.411  12.006  0.00  0.00    +0.000 A 
BRANCH  18  25
ATOM     24  N   UNL     1      44.032   4.700   9.485  0.00  0.00    +0.000 N 
ATOM     25  C   UNL     1      43.843   5.190  10.746  0.00  0.00    +0.000 C 
ATOM     26  O   UNL     1      42.887   5.909  11.009  0.00  0.00    +0.000 OA
ATOM     27  H   UNL     1      43.296   4.897   8.818  0.00  0.00    +0.000 HD
ATOM     28  H   UNL     1      44.635   3.914   9.289  0.00  0.00    +0.000 HD
ENDBRANCH  18  25
ENDBRANCH  17  21
ENDBRANCH  16  17
ENDBRANCH   1  16
TORSDOF 6
ENDMDL
MODEL 7
REMARK VINA RESULT:    -7.065      3.284      6.690
REMARK INTER + INTRA:         -10.735
REMARK INTER:                  -9.651
REMARK INTRA:                  -1.085
REMARK UNBOUND:                -1.193
REMARK  Name = 
REMARK  6 active torsions:
REMARK  status: ('A' for Active; 'I' for Inactive)
REMARK    1  A    between atoms: C_2  and  C_4
REMARK    2  A    between atoms: C_7  and  O_8
REMARK    3  A    between atoms: O_8  and  C_9
REMARK    4  A    between atoms: C_9  and  C_10
REMARK    5  A    between atoms: C_10  and  C_13
REMARK    6  A    between atoms: C_17  and  C_18
REMARK                            x       y       z     vdW  Elec       q    Type
REMARK                         _______ _______ _______ _____ _____    ______ ____
ROOT
ATOM      1  C   UNL     1      43.770   6.135  11.747  0.00  0.00    +0.000 C 
ATOM      2  F   UNL     1      43.808   6.188  13.113  0.00  0.00    +0.000 F 
ATOM      3  F   UNL     1      42.553   6.656  11.401  0.00  0.00    +0.000 F 
ENDROOT
BRANCH   1   4
ATOM      4  C   UNL     1      43.934   4.712  11.235  0.00  0.00    +0.000 A 
ATOM      5  C   UNL     1      43.175   3.674  11.789  0.00  0.00    +0.000 A 
ATOM      6  C   UNL     1      43.320   2.371  11.322  0.00  0.00    +0.000 A 
ATOM      7  C   UNL     1      44.205   2.096  10.277  0.00  0.00    +0.000 A 
ATOM      8  C   UNL     1      44.949   3.114   9.653  0.00  0.00    +0.000 A 
ATOM      9  C   UNL     1      44.815   4.418  10.174  0.00  0.00    +0.000 A 
BRANCH   8  10
ATOM     10  C   UNL     1      45.772   2.835   8.448  0.00  0.00    +0.000 A 
ATOM     11  C   UNL     1      46.284   1.544   8.209  0.00  0.00    +0.000 A 
ATOM     12  C   UNL     1      46.985   1.232   7.041  0.00  0.00    +0.000 A 
ATOM     13  C   UNL     1      47.191   2.210   6.074  0.00  0.00    +0.000 A 
ATOM     14  C   UNL     1      46.717   3.500   6.291  0.00  0.00    +0.000 A 
ATOM     15  C   UNL     1      46.026   3.812   7.468  0.00  0.00    +0.000 A 
ENDBRANCH   8  10
ENDBRANCH   1   4
BRANCH   1  16
ATOM     16  C   UNL     1      44.870   7.049  11.189  0.00  0.00    +0.000 C 
BRANCH  16  17
ATOM     17  O   UNL     1      45.281   8.028  12.166  0.00  0.00    +0.000 OA
BRANCH  17  21
ATOM     18  C   UNL     1      49.347   8.697  11.998  0.00  0.00    +0.000 A 
ATOM     19  C   UNL     1      48.855   7.401  11.842  0.00  0.00    +0.000 A 
ATOM     20  C   UNL     1      47.475   7.180  11.907  0.00  0.00    +0.000 A 
ATOM     21  C   UNL     1      46.641   8.267  12.123  0.00  0.00    +0.000 A 
ATOM     22  N   UNL     1      47.092   9.529  12.288  0.00  0.00    +0.000 NA
ATOM     23  C   UNL     1      48.433   9.714  12.234  0.00  0.00    +0.000 A 
BRANCH  18  25
ATOM     24  N   UNL     1      51.348   9.553  13.079  0.00  0.00    +0.000 N 
ATOM     25  C   UNL     1      50.781   9.049  11.942  0.00  0.00    +0.000 C 
ATOM     26  O   UNL     1      51.449   8.852  10.935  0.00  0.00    +0.000 OA
ATOM     27  H   UNL     1      52.354   9.670  13.058  0.00  0.00    +0.000 HD
ATOM     28  H   UNL     1      50.909   9.483  13.985  0.00  0.00    +0.000 HD
ENDBRANCH  18  25
ENDBRANCH  17  21
ENDBRANCH  16  17
ENDBRANCH   1  16
TORSDOF 6
ENDMDL
MODEL 8
REMARK VINA RESULT:    -6.642      5.918      8.029
REMARK INTER + INTRA:         -10.164
REMARK INTER:                  -9.195
REMARK INTRA:                  -0.969
REMARK UNBOUND:                -1.193
REMARK  Name = 
REMARK  6 active torsions:
REMARK  status: ('A' for Active; 'I' for Inactive)
REMARK    1  A    between atoms: C_2  and  C_4
REMARK    2  A    between atoms: C_7  and  O_8
REMARK    3  A    between atoms: O_8  and  C_9
REMARK    4  A    between atoms: C_9  and  C_10
REMARK    5  A    between atoms: C_10  and  C_13
REMARK    6  A    between atoms: C_17  and  C_18
REMARK                            x       y       z     vdW  Elec       q    Type
REMARK                         _______ _______ _______ _____ _____    ______ ____
ROOT
ATOM      1  C   UNL     1      47.903   3.330  16.697  0.00  0.00    +0.000 C 
ATOM      2  F   UNL     1      46.989   2.786  17.556  0.00  0.00    +0.000 F 
ATOM      3  F   UNL     1      48.136   2.362  15.759  0.00  0.00    +0.000 F 
ENDROOT
BRANCH   1   4
ATOM      4  C   UNL     1      49.183   3.728  17.417  0.00  0.00    +0.000 A 
ATOM      5  C   UNL     1      49.220   4.895  18.190  0.00  0.00    +0.000 A 
ATOM      6  C   UNL     1      50.388   5.262  18.853  0.00  0.00    +0.000 A 
ATOM      7  C   UNL     1      51.523   4.452  18.774  0.00  0.00    +0.000 A 
ATOM      8  C   UNL     1      51.517   3.243  18.053  0.00  0.00    +0.000 A 
ATOM      9  C   UNL     1      50.335   2.917  17.356  0.00  0.00    +0.000 A 
BRANCH   8  10
ATOM     10  C   UNL     1      52.677   2.317  18.098  0.00  0.00    +0.000 A 
ATOM     11  C   UNL     1      53.871   2.690  18.748  0.00  0.00    +0.000 A 
ATOM     12  C   UNL     1      54.946   1.807  18.882  0.00  0.00    +0.000 A 
ATOM     13  C   UNL     1      54.853   0.519  18.369  0.00  0.00    +0.000 A 
ATOM     14  C   UNL     1      53.696   0.127  17.702  0.00  0.00    +0.000 A 
ATOM     15  C   UNL     1      52.626   1.019  17.558  0.00  0.00    +0.000 A 
ENDBRANCH   8  10
ENDBRANCH   1   4
BRANCH   1  16
ATOM     16  C   UNL     1      47.266   4.542  16.002  0.00  0.00    +0.000 C 
BRANCH  16  17
ATOM     17  O   UNL     1      47.752   4.684  14.651  0.00  0.00    +0.000 OA
BRANCH  17  21
ATOM     18  C   UNL     1      44.661   5.163  11.963  0.00  0.00    +0.000 A 
ATOM     19  C   UNL     1      45.112   3.880  12.273  0.00  0.00    +0.000 A 
ATOM     20  C   UNL     1      46.165   3.724  13.181  0.00  0.00    +0.000 A 
ATOM     21  C   UNL     1      46.725   4.862  13.744  0.00  0.00    +0.000 A 
ATOM     22  N   UNL     1      46.316   6.115  13.453  0.00  0.00    +0.000 NA
ATOM     23  C   UNL     1      45.303   6.238  12.562  0.00  0.00    +0.000 A 
BRANCH  18  25
ATOM     24  N   UNL     1      42.771   6.534  11.291  0.00  0.00    +0.000 N 
ATOM     25  C   UNL     1      43.554   5.446  11.026  0.00  0.00    +0.000 C 
ATOM     26  O   UNL     1      43.374   4.766  10.025  0.00  0.00    +0.000 OA
ATOM     27  H   UNL     1      42.100   6.783  10.574  0.00  0.00    +0.000 HD
ATOM     28  H   UNL     1      43.043   7.257  11.941  0.00  0.00    +0.000 HD
ENDBRANCH  18  25
ENDBRANCH  17  21
ENDBRANCH  16  17
ENDBRANCH   1  16
TORSDOF 6
ENDMDL
MODEL 9
REMARK VINA RESULT:    -6.318      3.945      6.387
REMARK INTER + INTRA:          -9.727
REMARK INTER:                  -8.288
REMARK INTRA:                  -1.439
REMARK UNBOUND:                -1.193
REMARK  Name = 
REMARK  6 active torsions:
REMARK  status: ('A' for Active; 'I' for Inactive)
REMARK    1  A    between atoms: C_2  and  C_4
REMARK    2  A    between atoms: C_7  and  O_8
REMARK    3  A    between atoms: O_8  and  C_9
REMARK    4  A    between atoms: C_9  and  C_10
REMARK    5  A    between atoms: C_10  and  C_13
REMARK    6  A    between atoms: C_17  and  C_18
REMARK                            x       y       z     vdW  Elec       q    Type
REMARK                         _______ _______ _______ _____ _____    ______ ____
ROOT
ATOM      1  C   UNL     1      48.720   9.072  13.651  0.00  0.00    +0.000 C 
ATOM      2  F   UNL     1      49.998   9.327  13.236  0.00  0.00    +0.000 F 
ATOM      3  F   UNL     1      48.064  10.268  13.555  0.00  0.00    +0.000 F 
ENDROOT
BRANCH   1   4
ATOM      4  C   UNL     1      48.690   8.531  15.073  0.00  0.00    +0.000 A 
ATOM      5  C   UNL     1      48.391   9.385  16.143  0.00  0.00    +0.000 A 
ATOM      6  C   UNL     1      48.359   8.895  17.445  0.00  0.00    +0.000 A 
ATOM      7  C   UNL     1      48.598   7.540  17.690  0.00  0.00    +0.000 A 
ATOM      8  C   UNL     1      48.850   6.634  16.643  0.00  0.00    +0.000 A 
ATOM      9  C   UNL     1      48.918   7.165  15.338  0.00  0.00    +0.000 A 
BRANCH   8  10
ATOM     10  C   UNL     1      48.953   5.175  16.898  0.00  0.00    +0.000 A 
ATOM     11  C   UNL     1      47.880   4.314  16.596  0.00  0.00    +0.000 A 
ATOM     12  C   UNL     1      47.982   2.927  16.743  0.00  0.00    +0.000 A 
ATOM     13  C   UNL     1      49.169   2.364  17.195  0.00  0.00    +0.000 A 
ATOM     14  C   UNL     1      50.240   3.189  17.523  0.00  0.00    +0.000 A 
ATOM     15  C   UNL     1      50.130   4.579  17.387  0.00  0.00    +0.000 A 
ENDBRANCH   8  10
ENDBRANCH   1   4
BRANCH   1  16
ATOM     16  C   UNL     1      48.075   8.079  12.674  0.00  0.00    +0.000 C 
BRANCH  16  17
ATOM     17  O   UNL     1      46.639   8.220  12.660  0.00  0.00    +0.000 OA
BRANCH  17  21
ATOM     18  C   UNL     1      44.737   4.639  11.907  0.00  0.00    +0.000 A 
ATOM     19  C   UNL     1      45.689   4.713  12.924  0.00  0.00    +0.000 A 
ATOM     20  C   UNL     1      46.335   5.928  13.170  0.00  0.00    +0.000 A 
ATOM     21  C   UNL     1      46.001   7.025  12.388  0.00  0.00    +0.000 A 
ATOM     22  N   UNL     1      45.092   6.977  11.391  0.00  0.00    +0.000 NA
ATOM     23  C   UNL     1      44.490   5.785  11.164  0.00  0.00    +0.000 A 
BRANCH  18  25
ATOM     24  N   UNL     1      43.803   2.490  12.555  0.00  0.00    +0.000 N 
ATOM     25  C   UNL     1      43.988   3.411  11.563  0.00  0.00    +0.000 C 
ATOM     26  O   UNL     1      43.509   3.246  10.449  0.00  0.00    +0.000 OA
ATOM     27  H   UNL     1      43.184   1.719  12.335  0.00  0.00    +0.000 HD
ATOM     28  H   UNL     1      43.947   2.703  13.532  0.00  0.00    +0.000 HD
ENDBRANCH  18  25
ENDBRANCH  17  21
ENDBRANCH  16  17
ENDBRANCH   1  16
TORSDOF 6
ENDMDL
