MODEL 1
REMARK VINA RESULT:    -7.980      0.000      0.000
REMARK INTER + INTRA:         -12.453
REMARK INTER:                 -11.712
REMARK INTRA:                  -0.742
REMARK UNBOUND:                -0.742
REMARK  Name = 
REMARK  9 active torsions:
REMARK  status: ('A' for Active; 'I' for Inactive)
REMARK    1  A    between atoms: C_1  and  C_2
REMARK    2  A    between atoms: C_2  and  N_3
REMARK    3  A    between atoms: C_2  and  C_20
REMARK    4  A    between atoms: N_3  and  C_4
REMARK    5  A    between atoms: C_4  and  C_5
REMARK    6  A    between atoms: C_8  and  C_9
REMARK    7  A    between atoms: C_9  and  C_10
REMARK    8  A    between atoms: C_10  and  N_11
REMARK    9  A    between atoms: N_11  and  C_12
REMARK                            x       y       z     vdW  Elec       q    Type
REMARK                         _______ _______ _______ _____ _____    ______ ____
ROOT
ATOM      1  C   UNL     1      48.552   6.345  14.787  0.00  0.00    +0.000 C 
ENDROOT
BRANCH   1   2
ATOM      2  C   UNL     1      47.408   6.178  13.822  0.00  0.00    +0.000 A 
ATOM      3  C   UNL     1      46.844   7.253  13.130  0.00  0.00    +0.000 A 
ATOM      4  C   UNL     1      45.802   7.027  12.230  0.00  0.00    +0.000 A 
ATOM      5  C   UNL     1      45.354   5.725  12.029  0.00  0.00    +0.000 A 
ATOM      6  N   UNL     1      45.925   4.664  12.642  0.00  0.00    +0.000 NA
ATOM      7  C   UNL     1      46.904   4.914  13.539  0.00  0.00    +0.000 A 
BRANCH   5   8
ATOM      8  C   UNL     1      44.248   5.458  11.035  0.00  0.00    +0.000 C 
BRANCH   8   9
ATOM      9  C   UNL     1      44.380   4.139  10.256  0.00  0.00    +0.000 C 
BRANCH   9  10
ATOM     10  N   UNL     1      44.192   4.303   8.810  0.00  0.00    +0.000 NA
ATOM     11  H   UNL     1      44.440   5.245   8.516  0.00  0.00    +0.000 HD
BRANCH  10  12
ATOM     12  C   UNL     1      44.915   3.300   8.020  0.00  0.00    +0.000 C 
ATOM     13  C   UNL     1      45.318   2.074   8.851  0.00  0.00    +0.000 C 
ATOM     14  C   UNL     1      46.217   1.148   8.051  0.00  0.00    +0.000 C 
ATOM     15  O   UNL     1      47.361   1.844   7.562  0.00  0.00    +0.000 OA
ATOM     16  C   UNL     1      47.001   2.906   6.679  0.00  0.00    +0.000 C 
ATOM     17  C   UNL     1      46.161   3.949   7.405  0.00  0.00    +0.000 C 
ENDBRANCH  10  12
ENDBRANCH   9  10
ENDBRANCH   8   9
ENDBRANCH   5   8
ENDBRANCH   1   2
BRANCH   1  18
ATOM     18  N   UNL     1      48.154   6.098  16.171  0.00  0.00    +0.000 NA
ATOM     19  H   UNL     1      48.773   6.620  16.791  0.00  0.00    +0.000 HD
BRANCH  18  21
ATOM     20  C   UNL     1      46.979   4.210  17.323  0.00  0.00    +0.000 C 
ATOM     21  C   UNL     1      48.219   4.676  16.554  0.00  0.00    +0.000 C 
BRANCH  21  22
ATOM     22  C   UNL     1      49.472   4.530  17.402  0.00  0.00    +0.000 A 
ATOM     23  C   UNL     1      49.967   5.531  18.225  0.00  0.00    +0.000 A 
ATOM     24  S   UNL     1      51.450   5.132  18.965  0.00  0.00    +0.000 S 
ATOM     25  C   UNL     1      51.476   3.603  18.218  0.00  0.00    +0.000 A 
ATOM     26  N   UNL     1      52.528   2.757  18.384  0.00  0.00    +0.000 NA
ATOM     27  C   UNL     1      52.410   1.634  17.757  0.00  0.00    +0.000 A 
ATOM     28  N   UNL     1      51.324   1.268  17.005  0.00  0.00    +0.000 N 
ATOM     29  C   UNL     1      50.216   2.068  16.846  0.00  0.00    +0.000 A 
ATOM     30  O   UNL     1      49.218   1.671  16.252  0.00  0.00    +0.000 OA
ATOM     31  C   UNL     1      50.336   3.375  17.465  0.00  0.00    +0.000 A 
ATOM     32  H   UNL     1      51.277   0.352  16.581  0.00  0.00    +0.000 HD
ENDBRANCH  21  22
ENDBRANCH  18  21
ENDBRANCH   1  18
TORSDOF 8
ENDMDL
MODEL 2
REMARK VINA RESULT:    -7.855      1.086      1.658
REMARK INTER + INTRA:         -12.271
REMARK INTER:                 -11.379
REMARK INTRA:                  -0.892
REMARK UNBOUND:                -0.742
REMARK  Name = 
REMARK  9 active torsions:
REMARK  status: ('A' for Active; 'I' for Inactive)
REMARK    1  A    between atoms: C_1  and  C_2
REMARK    2  A    between atoms: C_2  and  N_3
REMARK    3  A    between atoms: C_2  and  C_20
REMARK    4  A    between atoms: N_3  and  C_4
REMARK    5  A    between atoms: C_4  and  C_5
REMARK    6  A    between atoms: C_8  and  C_9
REMARK    7  A    between atoms: C_9  and  C_10
REMARK    8  A    between atoms: C_10  and  N_11
REMARK    9  A    between atoms: N_11  and  C_12
REMARK                            x       y       z     vdW  Elec       q    Type
REMARK                         _______ _______ _______ _____ _____    ______ ____
ROOT
ATOM      1  C   UNL     1      47.840   5.563  14.707  0.00  0.00    +0.000 C 
ENDROOT
BRANCH   1   2
ATOM      2  C   UNL     1      46.867   5.281  13.591  0.00  0.00    +0.000 A 
ATOM      3  C   UNL     1      46.372   4.002  13.329  0.00  0.00    +0.000 A 
ATOM      4  C   UNL     1      45.454   3.813  12.296  0.00  0.00    +0.000 A 
ATOM      5  C   UNL     1      45.037   4.914  11.554  0.00  0.00    +0.000 A 
ATOM      6  N   UNL     1      45.456   6.168  11.829  0.00  0.00    +0.000 NA
ATOM      7  C   UNL     1      46.377   6.318  12.807  0.00  0.00    +0.000 A 
BRANCH   5   8
ATOM      8  C   UNL     1      44.019   4.732  10.452  0.00  0.00    +0.000 C 
BRANCH   8   9
ATOM      9  C   UNL     1      44.355   3.632   9.434  0.00  0.00    +0.000 C 
BRANCH   9  10
ATOM     10  N   UNL     1      45.091   4.133   8.266  0.00  0.00    +0.000 NA
ATOM     11  H   UNL     1      45.395   5.092   8.414  0.00  0.00    +0.000 HD
BRANCH  10  12
ATOM     12  C   UNL     1      46.221   3.276   7.890  0.00  0.00    +0.000 C 
ATOM     13  C   UNL     1      46.578   3.392   6.402  0.00  0.00    +0.000 C 
ATOM     14  C   UNL     1      47.625   2.363   6.014  0.00  0.00    +0.000 C 
ATOM     15  O   UNL     1      47.192   1.045   6.344  0.00  0.00    +0.000 OA
ATOM     16  C   UNL     1      46.985   0.888   7.748  0.00  0.00    +0.000 C 
ATOM     17  C   UNL     1      45.884   1.820   8.237  0.00  0.00    +0.000 C 
ENDBRANCH  10  12
ENDBRANCH   9  10
ENDBRANCH   8   9
ENDBRANCH   5   8
ENDBRANCH   1   2
BRANCH   1  18
ATOM     18  N   UNL     1      47.323   5.159  16.013  0.00  0.00    +0.000 NA
ATOM     19  H   UNL     1      47.484   5.913  16.679  0.00  0.00    +0.000 HD
BRANCH  18  21
ATOM     20  C   UNL     1      46.981   3.046  17.314  0.00  0.00    +0.000 C 
ATOM     21  C   UNL     1      47.958   3.939  16.542  0.00  0.00    +0.000 C 
BRANCH  21  22
ATOM     22  C   UNL     1      49.087   4.414  17.441  0.00  0.00    +0.000 A 
ATOM     23  C   UNL     1      49.077   5.627  18.116  0.00  0.00    +0.000 A 
ATOM     24  S   UNL     1      50.525   5.951  18.955  0.00  0.00    +0.000 S 
ATOM     25  C   UNL     1      51.213   4.477  18.452  0.00  0.00    +0.000 A 
ATOM     26  N   UNL     1      52.492   4.149  18.779  0.00  0.00    +0.000 NA
ATOM     27  C   UNL     1      52.877   3.003  18.328  0.00  0.00    +0.000 A 
ATOM     28  N   UNL     1      52.093   2.140  17.607  0.00  0.00    +0.000 N 
ATOM     29  C   UNL     1      50.779   2.405  17.292  0.00  0.00    +0.000 A 
ATOM     30  O   UNL     1      50.072   1.570  16.735  0.00  0.00    +0.000 OA
ATOM     31  C   UNL     1      50.324   3.719  17.708  0.00  0.00    +0.000 A 
ATOM     32  H   UNL     1      52.444   1.236  17.327  0.00  0.00    +0.000 HD
ENDBRANCH  21  22
ENDBRANCH  18  21
ENDBRANCH   1  18
TORSDOF 8
ENDMDL
MODEL 3
REMARK VINA RESULT:    -7.481      2.631      3.526
REMARK INTER + INTRA:         -11.721
REMARK INTER:                 -10.916
REMARK INTRA:                  -0.805
REMARK UNBOUND:                -0.742
REMARK  Name = 
REMARK  9 active torsions:
REMARK  status: ('A' for Active; 'I' for Inactive)
REMARK    1  A    between atoms: C_1  and  C_2
REMARK    2  A    between atoms: C_2  and  N_3
REMARK    3  A    between atoms: C_2  and  C_20
REMARK    4  A    between atoms: N_3  and  C_4
REMARK    5  A    between atoms: C_4  and  C_5
REMARK    6  A    between atoms: C_8  and  C_9
REMARK    7  A    between atoms: C_9  and  C_10
REMARK    8  A    between atoms: C_10  and  N_11
REMARK    9  A    between atoms: N_11  and  C_12
REMARK                            x       y       z     vdW  Elec       q    Type
REMARK                         _______ _______ _______ _____ _____    ______ ____
ROOT
ATOM      1  C   UNL     1      48.250   6.508  13.855  0.00  0.00    +0.000 C 
ENDROOT
BRANCH   1   2
ATOM      2  C   UNL     1      47.128   6.061  12.954  0.00  0.00    +0.000 A 
ATOM      3  C   UNL     1      46.908   6.618  11.692  0.00  0.00    +0.000 A 
ATOM      4  C   UNL     1      45.865   6.142  10.897  0.00  0.00    +0.000 A 
ATOM      5  C   UNL     1      45.071   5.103  11.376  0.00  0.00    +0.000 A 
ATOM      6  N   UNL     1      45.305   4.509  12.567  0.00  0.00    +0.000 NA
ATOM      7  C   UNL     1      46.294   5.017  13.335  0.00  0.00    +0.000 A 
BRANCH   5   8
ATOM      8  C   UNL     1      43.959   4.553  10.515  0.00  0.00    +0.000 C 
BRANCH   8   9
ATOM      9  C   UNL     1      44.378   3.429   9.554  0.00  0.00    +0.000 C 
BRANCH   9  10
ATOM     10  N   UNL     1      44.921   3.928   8.285  0.00  0.00    +0.000 NA
ATOM     11  H   UNL     1      45.509   4.743   8.438  0.00  0.00    +0.000 HD
BRANCH  10  12
ATOM     12  C   UNL     1      45.637   2.899   7.523  0.00  0.00    +0.000 C 
ATOM     13  C   UNL     1      45.962   1.660   8.368  0.00  0.00    +0.000 C 
ATOM     14  C   UNL     1      46.858   0.702   7.602  0.00  0.00    +0.000 C 
ATOM     15  O   UNL     1      48.044   1.355   7.159  0.00  0.00    +0.000 OA
ATOM     16  C   UNL     1      47.758   2.429   6.263  0.00  0.00    +0.000 C 
ATOM     17  C   UNL     1      46.929   3.502   6.957  0.00  0.00    +0.000 C 
ENDBRANCH  10  12
ENDBRANCH   9  10
ENDBRANCH   8   9
ENDBRANCH   5   8
ENDBRANCH   1   2
BRANCH   1  18
ATOM     18  N   UNL     1      48.124   5.975  15.209  0.00  0.00    +0.000 NA
ATOM     19  H   UNL     1      47.138   5.951  15.464  0.00  0.00    +0.000 HD
BRANCH  18  21
ATOM     20  C   UNL     1      50.291   7.067  15.832  0.00  0.00    +0.000 C 
ATOM     21  C   UNL     1      48.838   6.775  16.221  0.00  0.00    +0.000 C 
BRANCH  21  22
ATOM     22  C   UNL     1      48.770   5.973  17.510  0.00  0.00    +0.000 A 
ATOM     23  C   UNL     1      49.058   4.618  17.590  0.00  0.00    +0.000 A 
ATOM     24  S   UNL     1      48.784   3.955  19.136  0.00  0.00    +0.000 S 
ATOM     25  C   UNL     1      48.279   5.459  19.754  0.00  0.00    +0.000 A 
ATOM     26  N   UNL     1      47.837   5.581  21.035  0.00  0.00    +0.000 NA
ATOM     27  C   UNL     1      47.487   6.779  21.363  0.00  0.00    +0.000 A 
ATOM     28  N   UNL     1      47.566   7.872  20.539  0.00  0.00    +0.000 N 
ATOM     29  C   UNL     1      48.050   7.808  19.252  0.00  0.00    +0.000 A 
ATOM     30  O   UNL     1      48.205   8.820  18.574  0.00  0.00    +0.000 OA
ATOM     31  C   UNL     1      48.381   6.466  18.809  0.00  0.00    +0.000 A 
ATOM     32  H   UNL     1      47.321   8.791  20.877  0.00  0.00    +0.000 HD
ENDBRANCH  21  22
ENDBRANCH  18  21
ENDBRANCH   1  18
TORSDOF 8
ENDMDL
MODEL 4
REMARK VINA RESULT:    -7.447      2.632      3.794
REMARK INTER + INTRA:         -11.672
REMARK INTER:                 -10.527
REMARK INTRA:                  -1.145
REMARK UNBOUND:                -0.742
REMARK  Name = 
REMARK  9 active torsions:
REMARK  status: ('A' for Active; 'I' for Inactive)
REMARK    1  A    between atoms: C_1  and  C_2
REMARK    2  A    between atoms: C_2  and  N_3
REMARK    3  A    between atoms: C_2  and  C_20
REMARK    4  A    between atoms: N_3  and  C_4
REMARK    5  A    between atoms: C_4  and  C_5
REMARK    6  A    between atoms: C_8  and  C_9
REMARK    7  A    between atoms: C_9  and  C_10
REMARK    8  A    between atoms: C_10  and  N_11
REMARK    9  A    between atoms: N_11  and  C_12
REMARK                            x       y       z     vdW  Elec       q    Type
REMARK                         _______ _______ _______ _____ _____    ______ ____
ROOT
ATOM      1  C   UNL     1      47.555   4.080  14.876  0.00  0.00    +0.000 C 
ENDROOT
BRANCH   1   2
ATOM      2  C   UNL     1      46.694   4.378  13.677  0.00  0.00    +0.000 A 
ATOM      3  C   UNL     1      46.655   5.637  13.072  0.00  0.00    +0.000 A 
ATOM      4  C   UNL     1      45.855   5.840  11.947  0.00  0.00    +0.000 A 
ATOM      5  C   UNL     1      45.119   4.773  11.440  0.00  0.00    +0.000 A 
ATOM      6  N   UNL     1      45.189   3.533  11.973  0.00  0.00    +0.000 NA
ATOM      7  C   UNL     1      45.938   3.373  13.086  0.00  0.00    +0.000 A 
BRANCH   5   8
ATOM      8  C   UNL     1      44.272   4.968  10.204  0.00  0.00    +0.000 C 
BRANCH   8   9
ATOM      9  C   UNL     1      44.397   3.855   9.152  0.00  0.00    +0.000 C 
BRANCH   9  10
ATOM     10  N   UNL     1      45.256   4.225   8.020  0.00  0.00    +0.000 NA
ATOM     11  H   UNL     1      45.991   4.862   8.317  0.00  0.00    +0.000 HD
BRANCH  10  12
ATOM     12  C   UNL     1      45.818   3.063   7.323  0.00  0.00    +0.000 C 
ATOM     13  C   UNL     1      46.163   1.913   8.278  0.00  0.00    +0.000 C 
ATOM     14  C   UNL     1      46.907   0.807   7.549  0.00  0.00    +0.000 C 
ATOM     15  O   UNL     1      48.071   1.315   6.904  0.00  0.00    +0.000 OA
ATOM     16  C   UNL     1      47.750   2.293   5.915  0.00  0.00    +0.000 C 
ATOM     17  C   UNL     1      47.070   3.499   6.552  0.00  0.00    +0.000 C 
ENDBRANCH  10  12
ENDBRANCH   9  10
ENDBRANCH   8   9
ENDBRANCH   5   8
ENDBRANCH   1   2
BRANCH   1  18
ATOM     18  N   UNL     1      47.305   4.999  15.985  0.00  0.00    +0.000 NA
ATOM     19  H   UNL     1      47.166   5.937  15.611  0.00  0.00    +0.000 HD
BRANCH  18  21
ATOM     20  C   UNL     1      48.213   4.099  18.139  0.00  0.00    +0.000 C 
ATOM     21  C   UNL     1      48.411   5.056  16.958  0.00  0.00    +0.000 C 
BRANCH  21  22
ATOM     22  C   UNL     1      48.475   6.498  17.431  0.00  0.00    +0.000 A 
ATOM     23  C   UNL     1      48.141   6.904  18.716  0.00  0.00    +0.000 A 
ATOM     24  S   UNL     1      48.193   8.594  18.930  0.00  0.00    +0.000 S 
ATOM     25  C   UNL     1      48.673   8.841  17.315  0.00  0.00    +0.000 A 
ATOM     26  N   UNL     1      48.838  10.095  16.814  0.00  0.00    +0.000 NA
ATOM     27  C   UNL     1      49.202  10.128  15.576  0.00  0.00    +0.000 A 
ATOM     28  N   UNL     1      49.446   9.023  14.802  0.00  0.00    +0.000 N 
ATOM     29  C   UNL     1      49.340   7.735  15.276  0.00  0.00    +0.000 A 
ATOM     30  O   UNL     1      49.664   6.770  14.591  0.00  0.00    +0.000 OA
ATOM     31  C   UNL     1      48.854   7.645  16.641  0.00  0.00    +0.000 A 
ATOM     32  H   UNL     1      49.776   9.122  13.853  0.00  0.00    +0.000 HD
ENDBRANCH  21  22
ENDBRANCH  18  21
ENDBRANCH   1  18
TORSDOF 8
ENDMDL
MODEL 5
REMARK VINA RESULT:    -7.401      2.150      2.804
REMARK INTER + INTRA:         -11.604
REMARK INTER:                 -10.756
REMARK INTRA:                  -0.848
REMARK UNBOUND:                -0.742
REMARK  Name = 
REMARK  9 active torsions:
REMARK  status: ('A' for Active; 'I' for Inactive)
REMARK    1  A    between atoms: C_1  and  C_2
REMARK    2  A    between atoms: C_2  and  N_3
REMARK    3  A    between atoms: C_2  and  C_20
REMARK    4  A    between atoms: N_3  and  C_4
REMARK    5  A    between atoms: C_4  and  C_5
REMARK    6  A    between atoms: C_8  and  C_9
REMARK    7  A    between atoms: C_9  and  C_10
REMARK    8  A    between atoms: C_10  and  N_11
REMARK    9  A    between atoms: N_11  and  C_12
REMARK                            x       y       z     vdW  Elec       q    Type
REMARK                         _______ _______ _______ _____ _____    ______ ____
ROOT
ATOM      1  C   UNL     1      48.151   6.498  13.928  0.00  0.00    +0.000 C 
ENDROOT
BRANCH   1   2
ATOM      2  C   UNL     1      47.053   5.706  13.267  0.00  0.00    +0.000 A 
ATOM      3  C   UNL     1      46.468   6.093  12.059  0.00  0.00    +0.000 A 
ATOM      4  C   UNL     1      45.473   5.302  11.486  0.00  0.00    +0.000 A 
ATOM      5  C   UNL     1      45.092   4.127  12.128  0.00  0.00    +0.000 A 
ATOM      6  N   UNL     1      45.687   3.702  13.265  0.00  0.00    +0.000 NA
ATOM      7  C   UNL     1      46.618   4.508  13.820  0.00  0.00    +0.000 A 
BRANCH   5   8
ATOM      8  C   UNL     1      44.038   3.241  11.506  0.00  0.00    +0.000 C 
BRANCH   8   9
ATOM      9  C   UNL     1      44.100   3.138   9.974  0.00  0.00    +0.000 C 
BRANCH   9  10
ATOM     10  N   UNL     1      44.783   1.926   9.504  0.00  0.00    +0.000 NA
ATOM     11  H   UNL     1      44.145   1.134   9.492  0.00  0.00    +0.000 HD
BRANCH  10  12
ATOM     12  C   UNL     1      45.428   2.101   8.198  0.00  0.00    +0.000 C 
ATOM     13  C   UNL     1      46.582   1.114   7.975  0.00  0.00    +0.000 C 
ATOM     14  C   UNL     1      47.337   1.443   6.699  0.00  0.00    +0.000 C 
ATOM     15  O   UNL     1      47.800   2.791   6.713  0.00  0.00    +0.000 OA
ATOM     16  C   UNL     1      46.722   3.724   6.786  0.00  0.00    +0.000 C 
ATOM     17  C   UNL     1      45.939   3.542   8.079  0.00  0.00    +0.000 C 
ENDBRANCH  10  12
ENDBRANCH   9  10
ENDBRANCH   8   9
ENDBRANCH   5   8
ENDBRANCH   1   2
BRANCH   1  18
ATOM     18  N   UNL     1      48.095   6.420  15.386  0.00  0.00    +0.000 NA
ATOM     19  H   UNL     1      47.153   6.655  15.693  0.00  0.00    +0.000 HD
BRANCH  18  21
ATOM     20  C   UNL     1      50.502   6.953  15.829  0.00  0.00    +0.000 C 
ATOM     21  C   UNL     1      49.036   7.335  16.058  0.00  0.00    +0.000 C 
BRANCH  21  22
ATOM     22  C   UNL     1      48.685   7.282  17.535  0.00  0.00    +0.000 A 
ATOM     23  C   UNL     1      48.302   8.391  18.277  0.00  0.00    +0.000 A 
ATOM     24  S   UNL     1      48.084   8.057  19.934  0.00  0.00    +0.000 S 
ATOM     25  C   UNL     1      48.483   6.417  19.716  0.00  0.00    +0.000 A 
ATOM     26  N   UNL     1      48.549   5.562  20.772  0.00  0.00    +0.000 NA
ATOM     27  C   UNL     1      48.865   4.351  20.455  0.00  0.00    +0.000 A 
ATOM     28  N   UNL     1      49.091   3.909  19.177  0.00  0.00    +0.000 N 
ATOM     29  C   UNL     1      48.991   4.724  18.072  0.00  0.00    +0.000 A 
ATOM     30  O   UNL     1      49.098   4.278  16.934  0.00  0.00    +0.000 OA
ATOM     31  C   UNL     1      48.717   6.115  18.384  0.00  0.00    +0.000 A 
ATOM     32  H   UNL     1      49.287   2.936  18.996  0.00  0.00    +0.000 HD
ENDBRANCH  21  22
ENDBRANCH  18  21
ENDBRANCH   1  18
TORSDOF 8
ENDMDL
MODEL 6
REMARK VINA RESULT:    -7.180      2.618      3.478
REMARK INTER + INTRA:         -11.280
REMARK INTER:                  -9.843
REMARK INTRA:                  -1.438
REMARK UNBOUND:                -0.742
REMARK  Name = 
REMARK  9 active torsions:
REMARK  status: ('A' for Active; 'I' for Inactive)
REMARK    1  A    between atoms: C_1  and  C_2
REMARK    2  A    between atoms: C_2  and  N_3
REMARK    3  A    between atoms: C_2  and  C_20
REMARK    4  A    between atoms: N_3  and  C_4
REMARK    5  A    between atoms: C_4  and  C_5
REMARK    6  A    between atoms: C_8  and  C_9
REMARK    7  A    between atoms: C_9  and  C_10
REMARK    8  A    between atoms: C_10  and  N_11
REMARK    9  A    between atoms: N_11  and  C_12
REMARK                            x       y       z     vdW  Elec       q    Type
REMARK                         _______ _______ _______ _____ _____    ______ ____
ROOT
ATOM      1  C   UNL     1      49.130   7.688  13.634  0.00  0.00    +0.000 C 
ENDROOT
BRANCH   1   2
ATOM      2  C   UNL     1      47.788   7.060  13.363  0.00  0.00    +0.000 A 
ATOM      3  C   UNL     1      47.482   5.749  13.736  0.00  0.00    +0.000 A 
ATOM      4  C   UNL     1      46.211   5.234  13.478  0.00  0.00    +0.000 A 
ATOM      5  C   UNL     1      45.264   6.050  12.865  0.00  0.00    +0.000 A 
ATOM      6  N   UNL     1      45.520   7.339  12.552  0.00  0.00    +0.000 NA
ATOM      7  C   UNL     1      46.771   7.800  12.774  0.00  0.00    +0.000 A 
BRANCH   5   8
ATOM      8  C   UNL     1      43.873   5.520  12.608  0.00  0.00    +0.000 C 
BRANCH   8   9
ATOM      9  C   UNL     1      43.502   5.367  11.124  0.00  0.00    +0.000 C 
BRANCH   9  10
ATOM     10  N   UNL     1      44.670   5.366  10.235  0.00  0.00    +0.000 NA
ATOM     11  H   UNL     1      45.534   5.389  10.772  0.00  0.00    +0.000 HD
BRANCH  10  12
ATOM     12  C   UNL     1      44.670   4.245   9.288  0.00  0.00    +0.000 C 
ATOM     13  C   UNL     1      44.782   2.884   9.988  0.00  0.00    +0.000 C 
ATOM     14  C   UNL     1      44.962   1.768   8.974  0.00  0.00    +0.000 C 
ATOM     15  O   UNL     1      46.088   2.016   8.136  0.00  0.00    +0.000 OA
ATOM     16  C   UNL     1      45.934   3.216   7.378  0.00  0.00    +0.000 C 
ATOM     17  C   UNL     1      45.829   4.424   8.299  0.00  0.00    +0.000 C 
ENDBRANCH  10  12
ENDBRANCH   9  10
ENDBRANCH   8   9
ENDBRANCH   5   8
ENDBRANCH   1   2
BRANCH   1  18
ATOM     18  N   UNL     1      49.963   6.870  14.513  0.00  0.00    +0.000 NA
ATOM     19  H   UNL     1      49.369   6.202  15.002  0.00  0.00    +0.000 HD
BRANCH  18  21
ATOM     20  C   UNL     1      51.880   6.892  16.125  0.00  0.00    +0.000 C 
ATOM     21  C   UNL     1      50.695   7.655  15.523  0.00  0.00    +0.000 C 
BRANCH  21  22
ATOM     22  C   UNL     1      49.676   8.011  16.593  0.00  0.00    +0.000 A 
ATOM     23  C   UNL     1      49.368   9.313  16.961  0.00  0.00    +0.000 A 
ATOM     24  S   UNL     1      48.278   9.409  18.268  0.00  0.00    +0.000 S 
ATOM     25  C   UNL     1      48.174   7.714  18.380  0.00  0.00    +0.000 A 
ATOM     26  N   UNL     1      47.436   7.117  19.355  0.00  0.00    +0.000 NA
ATOM     27  C   UNL     1      47.451   5.827  19.317  0.00  0.00    +0.000 A 
ATOM     28  N   UNL     1      48.111   5.079  18.376  0.00  0.00    +0.000 N 
ATOM     29  C   UNL     1      48.831   5.635  17.344  0.00  0.00    +0.000 A 
ATOM     30  O   UNL     1      49.324   4.943  16.459  0.00  0.00    +0.000 OA
ATOM     31  C   UNL     1      48.911   7.084  17.391  0.00  0.00    +0.000 A 
ATOM     32  H   UNL     1      48.040   4.072  18.377  0.00  0.00    +0.000 HD
ENDBRANCH  21  22
ENDBRANCH  18  21
ENDBRANCH   1  18
TORSDOF 8
ENDMDL
MODEL 7
REMARK VINA RESULT:    -7.166      3.020      3.987
REMARK INTER + INTRA:         -11.259
REMARK INTER:                  -9.494
REMARK INTRA:                  -1.765
REMARK UNBOUND:                -0.742
REMARK  Name = 
REMARK  9 active torsions:
REMARK  status: ('A' for Active; 'I' for Inactive)
REMARK    1  A    between atoms: C_1  and  C_2
REMARK    2  A    between atoms: C_2  and  N_3
REMARK    3  A    between atoms: C_2  and  C_20
REMARK    4  A    between atoms: N_3  and  C_4
REMARK    5  A    between atoms: C_4  and  C_5
REMARK    6  A    between atoms: C_8  and  C_9
REMARK    7  A    between atoms: C_9  and  C_10
REMARK    8  A    between atoms: C_10  and  N_11
REMARK    9  A    between atoms: N_11  and  C_12
REMARK                            x       y       z     vdW  Elec       q    Type
REMARK                         _______ _______ _______ _____ _____    ______ ____
ROOT
ATOM      1  C   UNL     1      49.302   8.114  17.377  0.00  0.00    +0.000 C 
ENDROOT
BRANCH   1   2
ATOM      2  C   UNL     1      48.852   7.948  15.949  0.00  0.00    +0.000 A 
ATOM      3  C   UNL     1      48.111   8.921  15.275  0.00  0.00    +0.000 A 
ATOM      4  C   UNL     1      47.746   8.717  13.944  0.00  0.00    +0.000 A 
ATOM      5  C   UNL     1      48.146   7.545  13.307  0.00  0.00    +0.000 A 
ATOM      6  N   UNL     1      48.914   6.618  13.921  0.00  0.00    +0.000 NA
ATOM      7  C   UNL     1      49.218   6.822  15.222  0.00  0.00    +0.000 A 
BRANCH   5   8
ATOM      8  C   UNL     1      47.787   7.321  11.857  0.00  0.00    +0.000 C 
BRANCH   8   9
ATOM      9  C   UNL     1      46.604   6.370  11.621  0.00  0.00    +0.000 C 
BRANCH   9  10
ATOM     10  N   UNL     1      46.378   5.443  12.737  0.00  0.00    +0.000 NA
ATOM     11  H   UNL     1      46.597   5.887  13.626  0.00  0.00    +0.000 HD
BRANCH  10  12
ATOM     12  C   UNL     1      45.023   4.881  12.751  0.00  0.00    +0.000 C 
ATOM     13  C   UNL     1      44.987   3.420  12.284  0.00  0.00    +0.000 C 
ATOM     14  C   UNL     1      43.555   2.933  12.138  0.00  0.00    +0.000 C 
ATOM     15  O   UNL     1      42.815   3.779  11.261  0.00  0.00    +0.000 OA
ATOM     16  C   UNL     1      42.730   5.115  11.755  0.00  0.00    +0.000 C 
ATOM     17  C   UNL     1      44.115   5.740  11.861  0.00  0.00    +0.000 C 
ENDBRANCH  10  12
ENDBRANCH   9  10
ENDBRANCH   8   9
ENDBRANCH   5   8
ENDBRANCH   1   2
BRANCH   1  18
ATOM     18  N   UNL     1      48.370   7.515  18.329  0.00  0.00    +0.000 NA
ATOM     19  H   UNL     1      47.797   8.251  18.738  0.00  0.00    +0.000 HD
BRANCH  18  21
ATOM     20  C   UNL     1      50.113   7.634  20.124  0.00  0.00    +0.000 C 
ATOM     21  C   UNL     1      49.039   6.793  19.427  0.00  0.00    +0.000 C 
BRANCH  21  22
ATOM     22  C   UNL     1      49.643   5.548  18.799  0.00  0.00    +0.000 A 
ATOM     23  C   UNL     1      50.997   5.246  18.836  0.00  0.00    +0.000 A 
ATOM     24  S   UNL     1      51.406   3.850  17.949  0.00  0.00    +0.000 S 
ATOM     25  C   UNL     1      49.786   3.595  17.493  0.00  0.00    +0.000 A 
ATOM     26  N   UNL     1      49.441   2.577  16.660  0.00  0.00    +0.000 NA
ATOM     27  C   UNL     1      48.179   2.507  16.401  0.00  0.00    +0.000 A 
ATOM     28  N   UNL     1      47.225   3.343  16.922  0.00  0.00    +0.000 N 
ATOM     29  C   UNL     1      47.518   4.358  17.805  0.00  0.00    +0.000 A 
ATOM     30  O   UNL     1      46.632   5.023  18.334  0.00  0.00    +0.000 OA
ATOM     31  C   UNL     1      48.936   4.527  18.064  0.00  0.00    +0.000 A 
ATOM     32  H   UNL     1      46.247   3.201  16.715  0.00  0.00    +0.000 HD
ENDBRANCH  21  22
ENDBRANCH  18  21
ENDBRANCH   1  18
TORSDOF 8
ENDMDL
MODEL 8
REMARK VINA RESULT:    -7.084      1.413      2.066
REMARK INTER + INTRA:         -11.139
REMARK INTER:                 -10.039
REMARK INTRA:                  -1.101
REMARK UNBOUND:                -0.742
REMARK  Name = 
REMARK  9 active torsions:
REMARK  status: ('A' for Active; 'I' for Inactive)
REMARK    1  A    between atoms: C_1  and  C_2
REMARK    2  A    between atoms: C_2  and  N_3
REMARK    3  A    between atoms: C_2  and  C_20
REMARK    4  A    between atoms: N_3  and  C_4
REMARK    5  A    between atoms: C_4  and  C_5
REMARK    6  A    between atoms: C_8  and  C_9
REMARK    7  A    between atoms: C_9  and  C_10
REMARK    8  A    between atoms: C_10  and  N_11
REMARK    9  A    between atoms: N_11  and  C_12
REMARK                            x       y       z     vdW  Elec       q    Type
REMARK                         _______ _______ _______ _____ _____    ______ ____
ROOT
ATOM      1  C   UNL     1      47.574   7.413  13.797  0.00  0.00    +0.000 C 
ENDROOT
BRANCH   1   2
ATOM      2  C   UNL     1      46.512   6.683  13.018  0.00  0.00    +0.000 A 
ATOM      3  C   UNL     1      45.532   7.346  12.276  0.00  0.00    +0.000 A 
ATOM      4  C   UNL     1      44.591   6.610  11.556  0.00  0.00    +0.000 A 
ATOM      5  C   UNL     1      44.658   5.220  11.581  0.00  0.00    +0.000 A 
ATOM      6  N   UNL     1      45.634   4.559  12.243  0.00  0.00    +0.000 NA
ATOM      7  C   UNL     1      46.507   5.294  12.965  0.00  0.00    +0.000 A 
BRANCH   5   8
ATOM      8  C   UNL     1      43.667   4.407  10.781  0.00  0.00    +0.000 C 
BRANCH   8   9
ATOM      9  C   UNL     1      43.963   2.901  10.721  0.00  0.00    +0.000 C 
BRANCH   9  10
ATOM     10  N   UNL     1      44.052   2.385   9.350  0.00  0.00    +0.000 NA
ATOM     11  H   UNL     1      43.360   2.829   8.751  0.00  0.00    +0.000 HD
BRANCH  10  12
ATOM     12  C   UNL     1      45.397   2.507   8.777  0.00  0.00    +0.000 C 
ATOM     13  C   UNL     1      45.475   3.575   7.678  0.00  0.00    +0.000 C 
ATOM     14  C   UNL     1      46.827   3.545   6.988  0.00  0.00    +0.000 C 
ATOM     15  O   UNL     1      47.108   2.246   6.472  0.00  0.00    +0.000 OA
ATOM     16  C   UNL     1      47.170   1.264   7.505  0.00  0.00    +0.000 C 
ATOM     17  C   UNL     1      45.829   1.145   8.217  0.00  0.00    +0.000 C 
ENDBRANCH  10  12
ENDBRANCH   9  10
ENDBRANCH   8   9
ENDBRANCH   5   8
ENDBRANCH   1   2
BRANCH   1  18
ATOM     18  N   UNL     1      48.344   6.521  14.662  0.00  0.00    +0.000 NA
ATOM     19  H   UNL     1      47.865   5.624  14.721  0.00  0.00    +0.000 HD
BRANCH  18  21
ATOM     20  C   UNL     1      48.936   8.512  16.062  0.00  0.00    +0.000 C 
ATOM     21  C   UNL     1      48.516   7.039  16.032  0.00  0.00    +0.000 C 
BRANCH  21  22
ATOM     22  C   UNL     1      49.571   6.159  16.679  0.00  0.00    +0.000 A 
ATOM     23  C   UNL     1      50.802   6.627  17.119  0.00  0.00    +0.000 A 
ATOM     24  S   UNL     1      51.831   5.396  17.695  0.00  0.00    +0.000 S 
ATOM     25  C   UNL     1      50.664   4.196  17.386  0.00  0.00    +0.000 A 
ATOM     26  N   UNL     1      50.932   2.881  17.602  0.00  0.00    +0.000 NA
ATOM     27  C   UNL     1      49.954   2.086  17.323  0.00  0.00    +0.000 A 
ATOM     28  N   UNL     1      48.722   2.489  16.875  0.00  0.00    +0.000 N 
ATOM     29  C   UNL     1      48.386   3.810  16.686  0.00  0.00    +0.000 A 
ATOM     30  O   UNL     1      47.245   4.145  16.383  0.00  0.00    +0.000 OA
ATOM     31  C   UNL     1      49.480   4.737  16.910  0.00  0.00    +0.000 A 
ATOM     32  H   UNL     1      47.985   1.816  16.722  0.00  0.00    +0.000 HD
ENDBRANCH  21  22
ENDBRANCH  18  21
ENDBRANCH   1  18
TORSDOF 8
ENDMDL
MODEL 9
REMARK VINA RESULT:    -6.889      3.197      9.641
REMARK INTER + INTRA:         -10.853
REMARK INTER:                  -9.710
REMARK INTRA:                  -1.143
REMARK UNBOUND:                -0.742
REMARK  Name = 
REMARK  9 active torsions:
REMARK  status: ('A' for Active; 'I' for Inactive)
REMARK    1  A    between atoms: C_1  and  C_2
REMARK    2  A    between atoms: C_2  and  N_3
REMARK    3  A    between atoms: C_2  and  C_20
REMARK    4  A    between atoms: N_3  and  C_4
REMARK    5  A    between atoms: C_4  and  C_5
REMARK    6  A    between atoms: C_8  and  C_9
REMARK    7  A    between atoms: C_9  and  C_10
REMARK    8  A    between atoms: C_10  and  N_11
REMARK    9  A    between atoms: N_11  and  C_12
REMARK                            x       y       z     vdW  Elec       q    Type
REMARK                         _______ _______ _______ _____ _____    ______ ____
ROOT
ATOM      1  C   UNL     1      47.334   4.765  16.550  0.00  0.00    +0.000 C 
ENDROOT
BRANCH   1   2
ATOM      2  C   UNL     1      48.519   3.867  16.791  0.00  0.00    +0.000 A 
ATOM      3  C   UNL     1      49.597   4.242  17.596  0.00  0.00    +0.000 A 
ATOM      4  C   UNL     1      50.653   3.353  17.800  0.00  0.00    +0.000 A 
ATOM      5  C   UNL     1      50.601   2.096  17.203  0.00  0.00    +0.000 A 
ATOM      6  N   UNL     1      49.541   1.690  16.471  0.00  0.00    +0.000 NA
ATOM      7  C   UNL     1      48.551   2.585  16.255  0.00  0.00    +0.000 A 
BRANCH   5   8
ATOM      8  C   UNL     1      51.720   1.109  17.438  0.00  0.00    +0.000 C 
BRANCH   8   9
ATOM      9  C   UNL     1      53.116   1.735  17.589  0.00  0.00    +0.000 C 
BRANCH   9  10
ATOM     10  N   UNL     1      53.598   1.739  18.976  0.00  0.00    +0.000 NA
ATOM     11  H   UNL     1      54.255   0.978  19.133  0.00  0.00    +0.000 HD
BRANCH  10  12
ATOM     12  C   UNL     1      54.180   3.026  19.377  0.00  0.00    +0.000 C 
ATOM     13  C   UNL     1      53.314   3.768  20.404  0.00  0.00    +0.000 C 
ATOM     14  C   UNL     1      53.852   5.166  20.656  0.00  0.00    +0.000 C 
ATOM     15  O   UNL     1      53.958   5.899  19.438  0.00  0.00    +0.000 OA
ATOM     16  C   UNL     1      54.866   5.285  18.524  0.00  0.00    +0.000 C 
ATOM     17  C   UNL     1      54.378   3.897  18.130  0.00  0.00    +0.000 C 
ENDBRANCH  10  12
ENDBRANCH   9  10
ENDBRANCH   8   9
ENDBRANCH   5   8
ENDBRANCH   1   2
BRANCH   1  18
ATOM     18  N   UNL     1      46.768   4.594  15.214  0.00  0.00    +0.000 NA
ATOM     19  H   UNL     1      46.809   3.609  14.961  0.00  0.00    +0.000 HD
BRANCH  18  21
ATOM     20  C   UNL     1      48.197   6.595  14.734  0.00  0.00    +0.000 C 
ATOM     21  C   UNL     1      47.477   5.363  14.175  0.00  0.00    +0.000 C 
BRANCH  21  22
ATOM     22  C   UNL     1      46.421   5.764  13.160  0.00  0.00    +0.000 A 
ATOM     23  C   UNL     1      46.201   7.072  12.751  0.00  0.00    +0.000 A 
ATOM     24  S   UNL     1      44.875   7.240  11.694  0.00  0.00    +0.000 S 
ATOM     25  C   UNL     1      44.553   5.569  11.739  0.00  0.00    +0.000 A 
ATOM     26  N   UNL     1      43.486   5.040  11.083  0.00  0.00    +0.000 NA
ATOM     27  C   UNL     1      43.368   3.761  11.207  0.00  0.00    +0.000 A 
ATOM     28  N   UNL     1      44.235   2.958  11.903  0.00  0.00    +0.000 N 
ATOM     29  C   UNL     1      45.354   3.439  12.543  0.00  0.00    +0.000 A 
ATOM     30  O   UNL     1      46.167   2.684  13.069  0.00  0.00    +0.000 OA
ATOM     31  C   UNL     1      45.486   4.884  12.499  0.00  0.00    +0.000 A 
ATOM     32  H   UNL     1      44.109   1.956  11.918  0.00  0.00    +0.000 HD
ENDBRANCH  21  22
ENDBRANCH  18  21
ENDBRANCH   1  18
TORSDOF 8
ENDMDL
