MODEL 1
REMARK VINA RESULT:    -7.968      0.000      0.000
REMARK INTER + INTRA:         -11.059
REMARK INTER:                 -10.297
REMARK INTRA:                  -0.762
REMARK UNBOUND:                -0.762
REMARK  Name = 
REMARK  6 active torsions:
REMARK  status: ('A' for Active; 'I' for Inactive)
REMARK    1  A    between atoms: C_1  and  O_2
REMARK    2  A    between atoms: O_2  and  C_3
REMARK    3  A    between atoms: C_6  and  N_7
REMARK    4  A    between atoms: N_7  and  C_8
REMARK    5  A    between atoms: C_8  and  C_9
REMARK    6  A    between atoms: C_13  and  C_14
REMARK                            x       y       z     vdW  Elec       q    Type
REMARK                         _______ _______ _______ _____ _____    ______ ____
ROOT
ATOM      1  C   UNL     1      43.429   6.068  11.116  0.00  0.00    +0.000 C 
ENDROOT
BRANCH   1   2
ATOM      2  C   UNL     1      43.710   4.641  10.720  0.00  0.00    +0.000 A 
ATOM      3  C   UNL     1      43.137   3.571  11.394  0.00  0.00    +0.000 A 
ATOM      4  N   UNL     1      43.362   2.278  11.084  0.00  0.00    +0.000 NA
ATOM      5  C   UNL     1      44.209   2.036  10.051  0.00  0.00    +0.000 A 
ATOM      6  C   UNL     1      44.846   3.014   9.284  0.00  0.00    +0.000 A 
ATOM      7  C   UNL     1      44.562   4.339   9.652  0.00  0.00    +0.000 A 
BRANCH   6   8
ATOM      8  C   UNL     1      45.761   2.682   8.175  0.00  0.00    +0.000 A 
ATOM      9  C   UNL     1      46.083   3.591   7.158  0.00  0.00    +0.000 A 
ATOM     10  C   UNL     1      46.952   3.234   6.124  0.00  0.00    +0.000 A 
ATOM     11  C   UNL     1      47.493   1.959   6.133  0.00  0.00    +0.000 A 
ATOM     12  N   UNL     1      47.222   1.046   7.080  0.00  0.00    +0.000 NA
ATOM     13  C   UNL     1      46.370   1.422   8.068  0.00  0.00    +0.000 A 
ENDBRANCH   6   8
ENDBRANCH   1   2
BRANCH   1  14
ATOM     14  N   UNL     1      43.811   6.350  12.494  0.00  0.00    +0.000 N 
ATOM     15  H   UNL     1      43.233   5.875  13.178  0.00  0.00    +0.000 HD
BRANCH  14  19
ATOM     16  C   UNL     1      47.809   6.237  13.741  0.00  0.00    +0.000 A 
ATOM     17  C   UNL     1      47.273   7.257  12.965  0.00  0.00    +0.000 A 
ATOM     18  N   UNL     1      45.994   7.308  12.511  0.00  0.00    +0.000 NA
ATOM     19  C   UNL     1      45.166   6.299  12.829  0.00  0.00    +0.000 A 
ATOM     20  C   UNL     1      45.610   5.242  13.614  0.00  0.00    +0.000 A 
ATOM     21  C   UNL     1      46.931   5.211  14.077  0.00  0.00    +0.000 A 
ATOM     22 CL   UNL     1      47.318   3.899  15.132  0.00  0.00    +0.000 Cl
BRANCH  16  24
ATOM     23  C   UNL     1      49.314   6.919  15.458  0.00  0.00    +0.000 C 
ATOM     24  O   UNL     1      49.099   6.440  14.136  0.00  0.00    +0.000 OA
ENDBRANCH  16  24
ENDBRANCH  14  19
ENDBRANCH   1  14
TORSDOF 5
ENDMDL
MODEL 2
REMARK VINA RESULT:    -7.916      1.464      1.688
REMARK INTER + INTRA:         -10.993
REMARK INTER:                 -10.181
REMARK INTRA:                  -0.811
REMARK UNBOUND:                -0.762
REMARK  Name = 
REMARK  6 active torsions:
REMARK  status: ('A' for Active; 'I' for Inactive)
REMARK    1  A    between atoms: C_1  and  O_2
REMARK    2  A    between atoms: O_2  and  C_3
REMARK    3  A    between atoms: C_6  and  N_7
REMARK    4  A    between atoms: N_7  and  C_8
REMARK    5  A    between atoms: C_8  and  C_9
REMARK    6  A    between atoms: C_13  and  C_14
REMARK                            x       y       z     vdW  Elec       q    Type
REMARK                         _______ _______ _______ _____ _____    ______ ____
ROOT
ATOM      1  C   UNL     1      43.630   6.244  11.082  0.00  0.00    +0.000 C 
ENDROOT
BRANCH   1   2
ATOM      2  C   UNL     1      43.842   4.801  10.706  0.00  0.00    +0.000 A 
ATOM      3  C   UNL     1      43.228   3.768  11.402  0.00  0.00    +0.000 A 
ATOM      4  N   UNL     1      43.390   2.461  11.111  0.00  0.00    +0.000 NA
ATOM      5  C   UNL     1      44.214   2.165  10.074  0.00  0.00    +0.000 A 
ATOM      6  C   UNL     1      44.886   3.101   9.284  0.00  0.00    +0.000 A 
ATOM      7  C   UNL     1      44.666   4.443   9.634  0.00  0.00    +0.000 A 
BRANCH   6   8
ATOM      8  C   UNL     1      45.773   2.710   8.171  0.00  0.00    +0.000 A 
ATOM      9  C   UNL     1      46.106   3.580   7.124  0.00  0.00    +0.000 A 
ATOM     10  C   UNL     1      46.946   3.169   6.088  0.00  0.00    +0.000 A 
ATOM     11  C   UNL     1      47.449   1.879   6.124  0.00  0.00    +0.000 A 
ATOM     12  N   UNL     1      47.166   1.001   7.101  0.00  0.00    +0.000 NA
ATOM     13  C   UNL     1      46.341   1.430   8.091  0.00  0.00    +0.000 A 
ENDBRANCH   6   8
ENDBRANCH   1   2
BRANCH   1  14
ATOM     14  N   UNL     1      43.962   6.512  12.475  0.00  0.00    +0.000 N 
ATOM     15  H   UNL     1      43.438   5.944  13.131  0.00  0.00    +0.000 HD
BRANCH  14  19
ATOM     16  C   UNL     1      48.065   6.767  13.283  0.00  0.00    +0.000 A 
ATOM     17  C   UNL     1      47.262   5.716  13.705  0.00  0.00    +0.000 A 
ATOM     18  N   UNL     1      45.923   5.617  13.495  0.00  0.00    +0.000 NA
ATOM     19  C   UNL     1      45.311   6.609  12.827  0.00  0.00    +0.000 A 
ATOM     20  C   UNL     1      46.037   7.695  12.353  0.00  0.00    +0.000 A 
ATOM     21  C   UNL     1      47.417   7.775  12.575  0.00  0.00    +0.000 A 
ATOM     22 CL   UNL     1      48.212   9.120  11.839  0.00  0.00    +0.000 Cl
BRANCH  16  24
ATOM     23  C   UNL     1      49.974   7.464  14.527  0.00  0.00    +0.000 C 
ATOM     24  O   UNL     1      49.394   6.610  13.549  0.00  0.00    +0.000 OA
ENDBRANCH  16  24
ENDBRANCH  14  19
ENDBRANCH   1  14
TORSDOF 5
ENDMDL
MODEL 3
REMARK VINA RESULT:    -7.549      1.913      2.226
REMARK INTER + INTRA:         -10.518
REMARK INTER:                  -9.739
REMARK INTRA:                  -0.778
REMARK UNBOUND:                -0.762
REMARK  Name = 
REMARK  6 active torsions:
REMARK  status: ('A' for Active; 'I' for Inactive)
REMARK    1  A    between atoms: C_1  and  O_2
REMARK    2  A    between atoms: O_2  and  C_3
REMARK    3  A    between atoms: C_6  and  N_7
REMARK    4  A    between atoms: N_7  and  C_8
REMARK    5  A    between atoms: C_8  and  C_9
REMARK    6  A    between atoms: C_13  and  C_14
REMARK                            x       y       z     vdW  Elec       q    Type
REMARK                         _______ _______ _______ _____ _____    ______ ____
ROOT
ATOM      1  C   UNL     1      43.939   6.495  11.405  0.00  0.00    +0.000 C 
ENDROOT
BRANCH   1   2
ATOM      2  C   UNL     1      43.978   5.049  10.985  0.00  0.00    +0.000 A 
ATOM      3  C   UNL     1      43.243   4.076  11.649  0.00  0.00    +0.000 A 
ATOM      4  N   UNL     1      43.249   2.769  11.319  0.00  0.00    +0.000 NA
ATOM      5  C   UNL     1      44.035   2.408  10.273  0.00  0.00    +0.000 A 
ATOM      6  C   UNL     1      44.817   3.280   9.513  0.00  0.00    +0.000 A 
ATOM      7  C   UNL     1      44.758   4.628   9.903  0.00  0.00    +0.000 A 
BRANCH   6   8
ATOM      8  C   UNL     1      45.655   2.820   8.387  0.00  0.00    +0.000 A 
ATOM      9  C   UNL     1      46.006   3.649   7.314  0.00  0.00    +0.000 A 
ATOM     10  C   UNL     1      46.798   3.172   6.267  0.00  0.00    +0.000 A 
ATOM     11  C   UNL     1      47.236   1.859   6.322  0.00  0.00    +0.000 A 
ATOM     12  N   UNL     1      46.932   1.019   7.325  0.00  0.00    +0.000 NA
ATOM     13  C   UNL     1      46.155   1.511   8.324  0.00  0.00    +0.000 A 
ENDBRANCH   6   8
ENDBRANCH   1   2
BRANCH   1  14
ATOM     14  N   UNL     1      44.535   6.711  12.717  0.00  0.00    +0.000 N 
ATOM     15  H   UNL     1      44.269   6.012  13.401  0.00  0.00    +0.000 HD
BRANCH  14  19
ATOM     16  C   UNL     1      48.614   7.663  12.663  0.00  0.00    +0.000 A 
ATOM     17  C   UNL     1      48.124   6.396  12.948  0.00  0.00    +0.000 A 
ATOM     18  N   UNL     1      46.810   6.059  13.012  0.00  0.00    +0.000 NA
ATOM     19  C   UNL     1      45.896   7.018  12.784  0.00  0.00    +0.000 A 
ATOM     20  C   UNL     1      46.294   8.313  12.476  0.00  0.00    +0.000 A 
ATOM     21  C   UNL     1      47.654   8.639  12.409  0.00  0.00    +0.000 A 
ATOM     22 CL   UNL     1      48.008  10.253  11.909  0.00  0.00    +0.000 Cl
BRANCH  16  24
ATOM     23  C   UNL     1      50.562   7.701  11.290  0.00  0.00    +0.000 C 
ATOM     24  O   UNL     1      49.974   7.743  12.584  0.00  0.00    +0.000 OA
ENDBRANCH  16  24
ENDBRANCH  14  19
ENDBRANCH   1  14
TORSDOF 5
ENDMDL
MODEL 4
REMARK VINA RESULT:    -7.243      3.107      6.830
REMARK INTER + INTRA:         -10.123
REMARK INTER:                  -9.457
REMARK INTRA:                  -0.666
REMARK UNBOUND:                -0.762
REMARK  Name = 
REMARK  6 active torsions:
REMARK  status: ('A' for Active; 'I' for Inactive)
REMARK    1  A    between atoms: C_1  and  O_2
REMARK    2  A    between atoms: O_2  and  C_3
REMARK    3  A    between atoms: C_6  and  N_7
REMARK    4  A    between atoms: N_7  and  C_8
REMARK    5  A    between atoms: C_8  and  C_9
REMARK    6  A    between atoms: C_13  and  C_14
REMARK                            x       y       z     vdW  Elec       q    Type
REMARK                         _______ _______ _______ _____ _____    ______ ____
ROOT
ATOM      1  C   UNL     1      43.796   4.777  10.612  0.00  0.00    +0.000 C 
ENDROOT
BRANCH   1   2
ATOM      2  C   UNL     1      44.856   5.012  11.658  0.00  0.00    +0.000 A 
ATOM      3  C   UNL     1      45.031   4.143  12.726  0.00  0.00    +0.000 A 
ATOM      4  N   UNL     1      45.958   4.312  13.691  0.00  0.00    +0.000 NA
ATOM      5  C   UNL     1      46.750   5.410  13.591  0.00  0.00    +0.000 A 
ATOM      6  C   UNL     1      46.688   6.358  12.568  0.00  0.00    +0.000 A 
ATOM      7  C   UNL     1      45.709   6.118  11.590  0.00  0.00    +0.000 A 
BRANCH   6   8
ATOM      8  C   UNL     1      47.579   7.535  12.521  0.00  0.00    +0.000 A 
ATOM      9  C   UNL     1      48.737   7.579  11.733  0.00  0.00    +0.000 A 
ATOM     10  C   UNL     1      49.554   8.712  11.720  0.00  0.00    +0.000 A 
ATOM     11  C   UNL     1      49.186   9.794  12.502  0.00  0.00    +0.000 A 
ATOM     12  N   UNL     1      48.089   9.810  13.276  0.00  0.00    +0.000 NA
ATOM     13  C   UNL     1      47.319   8.691  13.271  0.00  0.00    +0.000 A 
ENDBRANCH   6   8
ENDBRANCH   1   2
BRANCH   1  14
ATOM     14  N   UNL     1      43.881   3.447  10.021  0.00  0.00    +0.000 N 
ATOM     15  H   UNL     1      42.980   3.062   9.765  0.00  0.00    +0.000 HD
BRANCH  14  19
ATOM     16  C   UNL     1      46.937   2.694   7.257  0.00  0.00    +0.000 A 
ATOM     17  C   UNL     1      46.471   3.966   7.561  0.00  0.00    +0.000 A 
ATOM     18  N   UNL     1      45.458   4.246   8.421  0.00  0.00    +0.000 NA
ATOM     19  C   UNL     1      44.847   3.221   9.038  0.00  0.00    +0.000 A 
ATOM     20  C   UNL     1      45.255   1.913   8.807  0.00  0.00    +0.000 A 
ATOM     21  C   UNL     1      46.305   1.646   7.919  0.00  0.00    +0.000 A 
ATOM     22 CL   UNL     1      46.783  -0.010   7.810  0.00  0.00    +0.000 Cl
BRANCH  16  24
ATOM     23  C   UNL     1      47.766   2.397   5.042  0.00  0.00    +0.000 C 
ATOM     24  O   UNL     1      48.012   2.667   6.417  0.00  0.00    +0.000 OA
ENDBRANCH  16  24
ENDBRANCH  14  19
ENDBRANCH   1  14
TORSDOF 5
ENDMDL
MODEL 5
REMARK VINA RESULT:    -7.081      2.022      2.577
REMARK INTER + INTRA:          -9.913
REMARK INTER:                  -9.319
REMARK INTRA:                  -0.594
REMARK UNBOUND:                -0.762
REMARK  Name = 
REMARK  6 active torsions:
REMARK  status: ('A' for Active; 'I' for Inactive)
REMARK    1  A    between atoms: C_1  and  O_2
REMARK    2  A    between atoms: O_2  and  C_3
REMARK    3  A    between atoms: C_6  and  N_7
REMARK    4  A    between atoms: N_7  and  C_8
REMARK    5  A    between atoms: C_8  and  C_9
REMARK    6  A    between atoms: C_13  and  C_14
REMARK                            x       y       z     vdW  Elec       q    Type
REMARK                         _______ _______ _______ _____ _____    ______ ____
ROOT
ATOM      1  C   UNL     1      45.258   5.384  13.259  0.00  0.00    +0.000 C 
ENDROOT
BRANCH   1   2
ATOM      2  C   UNL     1      44.749   4.352  12.287  0.00  0.00    +0.000 A 
ATOM      3  C   UNL     1      43.638   3.568  12.570  0.00  0.00    +0.000 A 
ATOM      4  N   UNL     1      43.148   2.627  11.738  0.00  0.00    +0.000 NA
ATOM      5  C   UNL     1      43.803   2.450  10.562  0.00  0.00    +0.000 A 
ATOM      6  C   UNL     1      44.924   3.172  10.147  0.00  0.00    +0.000 A 
ATOM      7  C   UNL     1      45.377   4.143  11.054  0.00  0.00    +0.000 A 
BRANCH   6   8
ATOM      8  C   UNL     1      45.593   2.927   8.854  0.00  0.00    +0.000 A 
ATOM      9  C   UNL     1      46.028   1.657   8.454  0.00  0.00    +0.000 A 
ATOM     10  C   UNL     1      46.660   1.469   7.223  0.00  0.00    +0.000 A 
ATOM     11  C   UNL     1      46.839   2.571   6.403  0.00  0.00    +0.000 A 
ATOM     12  N   UNL     1      46.442   3.811   6.732  0.00  0.00    +0.000 NA
ATOM     13  C   UNL     1      45.837   3.961   7.938  0.00  0.00    +0.000 A 
ENDBRANCH   6   8
ENDBRANCH   1   2
BRANCH   1  14
ATOM     14  N   UNL     1      46.709   5.520  13.220  0.00  0.00    +0.000 N 
ATOM     15  H   UNL     1      47.024   6.316  12.677  0.00  0.00    +0.000 HD
BRANCH  14  19
ATOM     16  C   UNL     1      48.620   5.173  16.931  0.00  0.00    +0.000 A 
ATOM     17  C   UNL     1      48.863   6.205  16.034  0.00  0.00    +0.000 A 
ATOM     18  N   UNL     1      48.292   6.330  14.808  0.00  0.00    +0.000 NA
ATOM     19  C   UNL     1      47.418   5.387  14.415  0.00  0.00    +0.000 A 
ATOM     20  C   UNL     1      47.102   4.325  15.253  0.00  0.00    +0.000 A 
ATOM     21  C   UNL     1      47.698   4.217  16.515  0.00  0.00    +0.000 A 
ATOM     22 CL   UNL     1      47.133   2.911  17.495  0.00  0.00    +0.000 Cl
BRANCH  16  24
ATOM     23  C   UNL     1      48.489   5.742  19.241  0.00  0.00    +0.000 C 
ATOM     24  O   UNL     1      49.258   5.299  18.130  0.00  0.00    +0.000 OA
ENDBRANCH  16  24
ENDBRANCH  14  19
ENDBRANCH   1  14
TORSDOF 5
ENDMDL
MODEL 6
REMARK VINA RESULT:    -6.578      3.962      4.651
REMARK INTER + INTRA:          -9.263
REMARK INTER:                  -8.600
REMARK INTRA:                  -0.664
REMARK UNBOUND:                -0.762
REMARK  Name = 
REMARK  6 active torsions:
REMARK  status: ('A' for Active; 'I' for Inactive)
REMARK    1  A    between atoms: C_1  and  O_2
REMARK    2  A    between atoms: O_2  and  C_3
REMARK    3  A    between atoms: C_6  and  N_7
REMARK    4  A    between atoms: N_7  and  C_8
REMARK    5  A    between atoms: C_8  and  C_9
REMARK    6  A    between atoms: C_13  and  C_14
REMARK                            x       y       z     vdW  Elec       q    Type
REMARK                         _______ _______ _______ _____ _____    ______ ____
ROOT
ATOM      1  C   UNL     1      45.804   7.135  12.311  0.00  0.00    +0.000 C 
ENDROOT
BRANCH   1   2
ATOM      2  C   UNL     1      45.031   6.163  11.457  0.00  0.00    +0.000 A 
ATOM      3  C   UNL     1      43.647   6.074  11.524  0.00  0.00    +0.000 A 
ATOM      4  N   UNL     1      42.910   5.218  10.788  0.00  0.00    +0.000 NA
ATOM      5  C   UNL     1      43.588   4.399   9.943  0.00  0.00    +0.000 A 
ATOM      6  C   UNL     1      44.973   4.388   9.770  0.00  0.00    +0.000 A 
ATOM      7  C   UNL     1      45.680   5.311  10.558  0.00  0.00    +0.000 A 
BRANCH   6   8
ATOM      8  C   UNL     1      45.649   3.467   8.835  0.00  0.00    +0.000 A 
ATOM      9  C   UNL     1      46.369   3.913   7.718  0.00  0.00    +0.000 A 
ATOM     10  C   UNL     1      46.991   3.007   6.857  0.00  0.00    +0.000 A 
ATOM     11  C   UNL     1      46.884   1.655   7.138  0.00  0.00    +0.000 A 
ATOM     12  N   UNL     1      46.209   1.169   8.193  0.00  0.00    +0.000 NA
ATOM     13  C   UNL     1      45.610   2.076   9.008  0.00  0.00    +0.000 A 
ENDBRANCH   6   8
ENDBRANCH   1   2
BRANCH   1  14
ATOM     14  N   UNL     1      45.003   8.285  12.711  0.00  0.00    +0.000 N 
ATOM     15  H   UNL     1      45.030   8.468  13.707  0.00  0.00    +0.000 HD
BRANCH  14  19
ATOM     16  C   UNL     1      45.333  11.656  10.246  0.00  0.00    +0.000 A 
ATOM     17  C   UNL     1      46.318  11.257  11.140  0.00  0.00    +0.000 A 
ATOM     18  N   UNL     1      46.231  10.194  11.981  0.00  0.00    +0.000 NA
ATOM     19  C   UNL     1      45.107   9.458  11.959  0.00  0.00    +0.000 A 
ATOM     20  C   UNL     1      44.073   9.773  11.086  0.00  0.00    +0.000 A 
ATOM     21  C   UNL     1      44.185  10.870  10.223  0.00  0.00    +0.000 A 
ATOM     22 CL   UNL     1      42.876  11.082   9.117  0.00  0.00    +0.000 Cl
BRANCH  16  24
ATOM     23  C   UNL     1      46.179  12.426   8.156  0.00  0.00    +0.000 C 
ATOM     24  O   UNL     1      45.676  12.713   9.455  0.00  0.00    +0.000 OA
ENDBRANCH  16  24
ENDBRANCH  14  19
ENDBRANCH   1  14
TORSDOF 5
ENDMDL
MODEL 7
REMARK VINA RESULT:    -6.555      3.072      3.805
REMARK INTER + INTRA:          -9.234
REMARK INTER:                  -8.768
REMARK INTRA:                  -0.466
REMARK UNBOUND:                -0.762
REMARK  Name = 
REMARK  6 active torsions:
REMARK  status: ('A' for Active; 'I' for Inactive)
REMARK    1  A    between atoms: C_1  and  O_2
REMARK    2  A    between atoms: O_2  and  C_3
REMARK    3  A    between atoms: C_6  and  N_7
REMARK    4  A    between atoms: N_7  and  C_8
REMARK    5  A    between atoms: C_8  and  C_9
REMARK    6  A    between atoms: C_13  and  C_14
REMARK                            x       y       z     vdW  Elec       q    Type
REMARK                         _______ _______ _______ _____ _____    ______ ____
ROOT
ATOM      1  C   UNL     1      46.063   5.163  14.026  0.00  0.00    +0.000 C 
ENDROOT
BRANCH   1   2
ATOM      2  C   UNL     1      45.159   4.822  12.870  0.00  0.00    +0.000 A 
ATOM      3  C   UNL     1      43.778   4.928  12.969  0.00  0.00    +0.000 A 
ATOM      4  N   UNL     1      42.925   4.627  11.968  0.00  0.00    +0.000 NA
ATOM      5  C   UNL     1      43.477   4.192  10.806  0.00  0.00    +0.000 A 
ATOM      6  C   UNL     1      44.845   4.048  10.568  0.00  0.00    +0.000 A 
ATOM      7  C   UNL     1      45.678   4.387  11.646  0.00  0.00    +0.000 A 
BRANCH   6   8
ATOM      8  C   UNL     1      45.380   3.565   9.279  0.00  0.00    +0.000 A 
ATOM      9  C   UNL     1      45.531   2.204   8.983  0.00  0.00    +0.000 A 
ATOM     10  C   UNL     1      46.044   1.789   7.752  0.00  0.00    +0.000 A 
ATOM     11  C   UNL     1      46.394   2.759   6.827  0.00  0.00    +0.000 A 
ATOM     12  N   UNL     1      46.271   4.077   7.055  0.00  0.00    +0.000 NA
ATOM     13  C   UNL     1      45.775   4.448   8.263  0.00  0.00    +0.000 A 
ENDBRANCH   6   8
ENDBRANCH   1   2
BRANCH   1  14
ATOM     14  N   UNL     1      46.609   3.978  14.676  0.00  0.00    +0.000 N 
ATOM     15  H   UNL     1      47.138   3.383  14.050  0.00  0.00    +0.000 HD
BRANCH  14  19
ATOM     16  C   UNL     1      48.731   4.399  18.264  0.00  0.00    +0.000 A 
ATOM     17  C   UNL     1      47.872   3.340  17.997  0.00  0.00    +0.000 A 
ATOM     18  N   UNL     1      47.139   3.190  16.864  0.00  0.00    +0.000 NA
ATOM     19  C   UNL     1      47.242   4.133  15.912  0.00  0.00    +0.000 A 
ATOM     20  C   UNL     1      48.088   5.222  16.084  0.00  0.00    +0.000 A 
ATOM     21  C   UNL     1      48.839   5.355  17.259  0.00  0.00    +0.000 A 
ATOM     22 CL   UNL     1      49.930   6.694  17.295  0.00  0.00    +0.000 Cl
BRANCH  16  24
ATOM     23  C   UNL     1      48.739   4.694  20.628  0.00  0.00    +0.000 C 
ATOM     24  O   UNL     1      49.413   4.296  19.441  0.00  0.00    +0.000 OA
ENDBRANCH  16  24
ENDBRANCH  14  19
ENDBRANCH   1  14
TORSDOF 5
ENDMDL
MODEL 8
REMARK VINA RESULT:    -6.381      2.412      2.889
REMARK INTER + INTRA:          -9.008
REMARK INTER:                  -8.355
REMARK INTRA:                  -0.653
REMARK UNBOUND:                -0.762
REMARK  Name = 
REMARK  6 active torsions:
REMARK  status: ('A' for Active; 'I' for Inactive)
REMARK    1  A    between atoms: C_1  and  O_2
REMARK    2  A    between atoms: O_2  and  C_3
REMARK    3  A    between atoms: C_6  and  N_7
REMARK    4  A    between atoms: N_7  and  C_8
REMARK    5  A    between atoms: C_8  and  C_9
REMARK    6  A    between atoms: C_13  and  C_14
REMARK                            x       y       z     vdW  Elec       q    Type
REMARK                         _______ _______ _______ _____ _____    ______ ____
ROOT
ATOM      1  C   UNL     1      45.195   7.396  12.156  0.00  0.00    +0.000 C 
ENDROOT
BRANCH   1   2
ATOM      2  C   UNL     1      44.629   6.126  11.577  0.00  0.00    +0.000 A 
ATOM      3  C   UNL     1      43.430   5.590  12.027  0.00  0.00    +0.000 A 
ATOM      4  N   UNL     1      42.885   4.453  11.548  0.00  0.00    +0.000 NA
ATOM      5  C   UNL     1      43.576   3.809  10.571  0.00  0.00    +0.000 A 
ATOM      6  C   UNL     1      44.785   4.240  10.022  0.00  0.00    +0.000 A 
ATOM      7  C   UNL     1      45.292   5.435  10.557  0.00  0.00    +0.000 A 
BRANCH   6   8
ATOM      8  C   UNL     1      45.488   3.489   8.962  0.00  0.00    +0.000 A 
ATOM      9  C   UNL     1      46.102   4.114   7.869  0.00  0.00    +0.000 A 
ATOM     10  C   UNL     1      46.754   3.365   6.887  0.00  0.00    +0.000 A 
ATOM     11  C   UNL     1      46.784   1.987   7.025  0.00  0.00    +0.000 A 
ATOM     12  N   UNL     1      46.214   1.333   8.050  0.00  0.00    +0.000 NA
ATOM     13  C   UNL     1      45.583   2.089   8.985  0.00  0.00    +0.000 A 
ENDBRANCH   6   8
ENDBRANCH   1   2
BRANCH   1  14
ATOM     14  N   UNL     1      46.158   7.144  13.221  0.00  0.00    +0.000 N 
ATOM     15  H   UNL     1      46.311   6.158  13.401  0.00  0.00    +0.000 HD
BRANCH  14  19
ATOM     16  C   UNL     1      49.865   9.095  13.271  0.00  0.00    +0.000 A 
ATOM     17  C   UNL     1      48.861   9.327  14.202  0.00  0.00    +0.000 A 
ATOM     18  N   UNL     1      47.634   8.743  14.195  0.00  0.00    +0.000 NA
ATOM     19  C   UNL     1      47.354   7.867  13.216  0.00  0.00    +0.000 A 
ATOM     20  C   UNL     1      48.303   7.560  12.249  0.00  0.00    +0.000 A 
ATOM     21  C   UNL     1      49.563   8.170  12.276  0.00  0.00    +0.000 A 
ATOM     22 CL   UNL     1      50.682   7.617  11.082  0.00  0.00    +0.000 Cl
BRANCH  16  24
ATOM     23  C   UNL     1      50.973  11.145  13.767  0.00  0.00    +0.000 C 
ATOM     24  O   UNL     1      51.037   9.746  13.524  0.00  0.00    +0.000 OA
ENDBRANCH  16  24
ENDBRANCH  14  19
ENDBRANCH   1  14
TORSDOF 5
ENDMDL
MODEL 9
REMARK VINA RESULT:    -6.273      2.665      4.646
REMARK INTER + INTRA:          -8.869
REMARK INTER:                  -8.321
REMARK INTRA:                  -0.548
REMARK UNBOUND:                -0.762
REMARK  Name = 
REMARK  6 active torsions:
REMARK  status: ('A' for Active; 'I' for Inactive)
REMARK    1  A    between atoms: C_1  and  O_2
REMARK    2  A    between atoms: O_2  and  C_3
REMARK    3  A    between atoms: C_6  and  N_7
REMARK    4  A    between atoms: N_7  and  C_8
REMARK    5  A    between atoms: C_8  and  C_9
REMARK    6  A    between atoms: C_13  and  C_14
REMARK                            x       y       z     vdW  Elec       q    Type
REMARK                         _______ _______ _______ _____ _____    ______ ____
ROOT
ATOM      1  C   UNL     1      48.348   7.251  13.693  0.00  0.00    +0.000 C 
ENDROOT
BRANCH   1   2
ATOM      2  C   UNL     1      47.090   7.250  12.864  0.00  0.00    +0.000 A 
ATOM      3  C   UNL     1      46.220   8.332  12.858  0.00  0.00    +0.000 A 
ATOM      4  N   UNL     1      45.079   8.378  12.140  0.00  0.00    +0.000 NA
ATOM      5  C   UNL     1      44.784   7.283  11.392  0.00  0.00    +0.000 A 
ATOM      6  C   UNL     1      45.571   6.134  11.299  0.00  0.00    +0.000 A 
ATOM      7  C   UNL     1      46.750   6.155  12.063  0.00  0.00    +0.000 A 
BRANCH   6   8
ATOM      8  C   UNL     1      45.190   4.975  10.469  0.00  0.00    +0.000 A 
ATOM      9  C   UNL     1      45.559   4.851   9.123  0.00  0.00    +0.000 A 
ATOM     10  C   UNL     1      45.173   3.739   8.372  0.00  0.00    +0.000 A 
ATOM     11  C   UNL     1      44.422   2.756   8.994  0.00  0.00    +0.000 A 
ATOM     12  N   UNL     1      44.039   2.819  10.280  0.00  0.00    +0.000 NA
ATOM     13  C   UNL     1      44.425   3.916  10.981  0.00  0.00    +0.000 A 
ENDBRANCH   6   8
ENDBRANCH   1   2
BRANCH   1  14
ATOM     14  N   UNL     1      48.075   7.150  15.122  0.00  0.00    +0.000 N 
ATOM     15  H   UNL     1      47.087   7.188  15.346  0.00  0.00    +0.000 HD
BRANCH  14  19
ATOM     16  C   UNL     1      49.932   4.263  17.522  0.00  0.00    +0.000 A 
ATOM     17  C   UNL     1      50.571   5.404  17.058  0.00  0.00    +0.000 A 
ATOM     18  N   UNL     1      50.015   6.342  16.248  0.00  0.00    +0.000 NA
ATOM     19  C   UNL     1      48.742   6.166  15.855  0.00  0.00    +0.000 A 
ATOM     20  C   UNL     1      48.017   5.060  16.282  0.00  0.00    +0.000 A 
ATOM     21  C   UNL     1      48.608   4.108  17.121  0.00  0.00    +0.000 A 
ATOM     22 CL   UNL     1      47.563   2.844  17.664  0.00  0.00    +0.000 Cl
BRANCH  16  24
ATOM     23  C   UNL     1      52.058   3.353  18.098  0.00  0.00    +0.000 C 
ATOM     24  O   UNL     1      50.672   3.505  18.381  0.00  0.00    +0.000 OA
ENDBRANCH  16  24
ENDBRANCH  14  19
ENDBRANCH   1  14
TORSDOF 5
ENDMDL
