MODEL 1
REMARK VINA RESULT:    -8.227      0.000      0.000
REMARK INTER + INTRA:         -11.877
REMARK INTER:                 -11.112
REMARK INTRA:                  -0.764
REMARK UNBOUND:                -0.764
REMARK  Name = 
REMARK  7 active torsions:
REMARK  status: ('A' for Active; 'I' for Inactive)
REMARK    1  A    between atoms: C_1  and  O_2
REMARK    2  A    between atoms: O_2  and  C_3
REMARK    3  A    between atoms: C_6  and  C_7
REMARK    4  A    between atoms: C_11  and  C_12
REMARK    5  A    between atoms: C_12  and  C_13
REMARK    6  A    between atoms: C_13  and  N_14
REMARK    7  A    between atoms: C_18  and  C_19
REMARK                            x       y       z     vdW  Elec       q    Type
REMARK                         _______ _______ _______ _____ _____    ______ ____
ROOT
ATOM      1  C   UNL     1      43.654   5.584  11.948  0.00  0.00    +0.000 C 
ENDROOT
BRANCH   1   6
ATOM      2  C   UNL     1      47.022   5.629  13.850  0.00  0.00    +0.000 A 
ATOM      3  C   UNL     1      47.819   6.290  12.906  0.00  0.00    +0.000 A 
ATOM      4  C   UNL     1      47.279   6.746  11.700  0.00  0.00    +0.000 A 
ATOM      5  C   UNL     1      45.932   6.530  11.402  0.00  0.00    +0.000 A 
ATOM      6  C   UNL     1      45.102   5.867  12.314  0.00  0.00    +0.000 A 
ATOM      7  C   UNL     1      45.665   5.449  13.533  0.00  0.00    +0.000 A 
BRANCH   2  11
ATOM      8  C   UNL     1      48.516   4.088  17.437  0.00  0.00    +0.000 A 
ATOM      9  C   UNL     1      47.569   3.407  16.689  0.00  0.00    +0.000 A 
ATOM     10  N   UNL     1      47.074   3.893  15.523  0.00  0.00    +0.000 NA
ATOM     11  C   UNL     1      47.554   5.102  15.119  0.00  0.00    +0.000 A 
ATOM     12  C   UNL     1      48.494   5.776  15.895  0.00  0.00    +0.000 A 
ATOM     13  N   UNL     1      48.999   5.288  17.053  0.00  0.00    +0.000 NA
BRANCH   8  15
ATOM     14  C   UNL     1      48.733   4.359  19.736  0.00  0.00    +0.000 C 
ATOM     15  O   UNL     1      48.954   3.514  18.609  0.00  0.00    +0.000 OA
ENDBRANCH   8  15
ENDBRANCH   2  11
ENDBRANCH   1   6
BRANCH   1  16
ATOM     16  C   UNL     1      43.474   5.005  10.538  0.00  0.00    +0.000 C 
BRANCH  16  17
ATOM     17  N   UNL     1      43.751   3.566  10.458  0.00  0.00    +0.000 N 
ATOM     18  C   UNL     1      44.699   3.295   9.440  0.00  0.00    +0.000 A 
ATOM     19  C   UNL     1      45.096   1.979   9.175  0.00  0.00    +0.000 A 
ATOM     20  N   UNL     1      46.008   1.629   8.226  0.00  0.00    +0.000 NA
ATOM     21  C   UNL     1      46.532   2.682   7.535  0.00  0.00    +0.000 A 
ATOM     22  C   UNL     1      46.161   3.989   7.786  0.00  0.00    +0.000 A 
ATOM     23  N   UNL     1      45.250   4.312   8.737  0.00  0.00    +0.000 NA
ATOM     24  H   UNL     1      42.908   3.031  10.263  0.00  0.00    +0.000 HD
BRANCH  21  25
ATOM     25  C   UNL     1      47.541   2.400   6.482  0.00  0.00    +0.000 C 
ATOM     26  N   UNL     1      47.392   3.093   5.311  0.00  0.00    +0.000 N 
ATOM     27  O   UNL     1      48.448   1.597   6.637  0.00  0.00    +0.000 OA
ATOM     28  H   UNL     1      46.619   3.740   5.201  0.00  0.00    +0.000 HD
ATOM     29  H   UNL     1      48.037   2.930   4.553  0.00  0.00    +0.000 HD
ENDBRANCH  21  25
ENDBRANCH  16  17
ENDBRANCH   1  16
TORSDOF 6
ENDMDL
MODEL 2
REMARK VINA RESULT:    -7.588      1.627      8.215
REMARK INTER + INTRA:         -11.013
REMARK INTER:                 -10.517
REMARK INTRA:                  -0.496
REMARK UNBOUND:                -0.764
REMARK  Name = 
REMARK  7 active torsions:
REMARK  status: ('A' for Active; 'I' for Inactive)
REMARK    1  A    between atoms: C_1  and  O_2
REMARK    2  A    between atoms: O_2  and  C_3
REMARK    3  A    between atoms: C_6  and  C_7
REMARK    4  A    between atoms: C_11  and  C_12
REMARK    5  A    between atoms: C_12  and  C_13
REMARK    6  A    between atoms: C_13  and  N_14
REMARK    7  A    between atoms: C_18  and  C_19
REMARK                            x       y       z     vdW  Elec       q    Type
REMARK                         _______ _______ _______ _____ _____    ______ ____
ROOT
ATOM      1  C   UNL     1      46.079   7.722  12.207  0.00  0.00    +0.000 C 
ENDROOT
BRANCH   1   6
ATOM      2  C   UNL     1      44.888   4.771  10.009  0.00  0.00    +0.000 A 
ATOM      3  C   UNL     1      43.555   4.681  10.434  0.00  0.00    +0.000 A 
ATOM      4  C   UNL     1      43.039   5.573  11.379  0.00  0.00    +0.000 A 
ATOM      5  C   UNL     1      43.852   6.561  11.935  0.00  0.00    +0.000 A 
ATOM      6  C   UNL     1      45.190   6.681  11.545  0.00  0.00    +0.000 A 
ATOM      7  C   UNL     1      45.674   5.792  10.569  0.00  0.00    +0.000 A 
BRANCH   2  11
ATOM      8  C   UNL     1      46.609   2.150   7.246  0.00  0.00    +0.000 A 
ATOM      9  C   UNL     1      46.670   3.524   7.082  0.00  0.00    +0.000 A 
ATOM     10  N   UNL     1      46.116   4.388   7.970  0.00  0.00    +0.000 NA
ATOM     11  C   UNL     1      45.484   3.833   9.041  0.00  0.00    +0.000 A 
ATOM     12  C   UNL     1      45.423   2.449   9.177  0.00  0.00    +0.000 A 
ATOM     13  N   UNL     1      45.984   1.583   8.299  0.00  0.00    +0.000 NA
BRANCH   8  15
ATOM     14  C   UNL     1      47.943   2.118   5.341  0.00  0.00    +0.000 C 
ATOM     15  O   UNL     1      47.198   1.355   6.288  0.00  0.00    +0.000 OA
ENDBRANCH   8  15
ENDBRANCH   2  11
ENDBRANCH   1   6
BRANCH   1  16
ATOM     16  C   UNL     1      47.569   7.354  12.207  0.00  0.00    +0.000 C 
BRANCH  16  17
ATOM     17  N   UNL     1      48.230   7.595  13.494  0.00  0.00    +0.000 N 
ATOM     18  C   UNL     1      48.054   6.488  14.362  0.00  0.00    +0.000 A 
ATOM     19  C   UNL     1      48.586   6.511  15.656  0.00  0.00    +0.000 A 
ATOM     20  N   UNL     1      48.474   5.490  16.550  0.00  0.00    +0.000 NA
ATOM     21  C   UNL     1      47.795   4.405  16.081  0.00  0.00    +0.000 A 
ATOM     22  C   UNL     1      47.269   4.356  14.804  0.00  0.00    +0.000 A 
ATOM     23  N   UNL     1      47.393   5.387  13.932  0.00  0.00    +0.000 NA
ATOM     24  H   UNL     1      47.865   8.425  13.954  0.00  0.00    +0.000 HD
BRANCH  21  25
ATOM     25  C   UNL     1      47.627   3.236  16.983  0.00  0.00    +0.000 C 
ATOM     26  N   UNL     1      48.756   2.504  17.229  0.00  0.00    +0.000 N 
ATOM     27  O   UNL     1      46.550   2.934  17.475  0.00  0.00    +0.000 OA
ATOM     28  H   UNL     1      49.634   2.765  16.794  0.00  0.00    +0.000 HD
ATOM     29  H   UNL     1      48.699   1.689  17.820  0.00  0.00    +0.000 HD
ENDBRANCH  21  25
ENDBRANCH  16  17
ENDBRANCH   1  16
TORSDOF 6
ENDMDL
MODEL 3
REMARK VINA RESULT:    -7.352      3.291      4.554
REMARK INTER + INTRA:         -10.695
REMARK INTER:                  -9.903
REMARK INTRA:                  -0.793
REMARK UNBOUND:                -0.764
REMARK  Name = 
REMARK  7 active torsions:
REMARK  status: ('A' for Active; 'I' for Inactive)
REMARK    1  A    between atoms: C_1  and  O_2
REMARK    2  A    between atoms: O_2  and  C_3
REMARK    3  A    between atoms: C_6  and  C_7
REMARK    4  A    between atoms: C_11  and  C_12
REMARK    5  A    between atoms: C_12  and  C_13
REMARK    6  A    between atoms: C_13  and  N_14
REMARK    7  A    between atoms: C_18  and  C_19
REMARK                            x       y       z     vdW  Elec       q    Type
REMARK                         _______ _______ _______ _____ _____    ______ ____
ROOT
ATOM      1  C   UNL     1      43.505   5.454  12.275  0.00  0.00    +0.000 C 
ENDROOT
BRANCH   1   6
ATOM      2  C   UNL     1      47.104   6.827  12.637  0.00  0.00    +0.000 A 
ATOM      3  C   UNL     1      47.639   5.864  13.504  0.00  0.00    +0.000 A 
ATOM      4  C   UNL     1      46.873   4.777  13.933  0.00  0.00    +0.000 A 
ATOM      5  C   UNL     1      45.546   4.640  13.522  0.00  0.00    +0.000 A 
ATOM      6  C   UNL     1      44.970   5.582  12.663  0.00  0.00    +0.000 A 
ATOM      7  C   UNL     1      45.774   6.648  12.220  0.00  0.00    +0.000 A 
BRANCH   2  11
ATOM      8  C   UNL     1      49.219  10.203  11.374  0.00  0.00    +0.000 A 
ATOM      9  C   UNL     1      47.886  10.274  11.742  0.00  0.00    +0.000 A 
ATOM     10  N   UNL     1      47.185   9.188  12.154  0.00  0.00    +0.000 NA
ATOM     11  C   UNL     1      47.862   8.006  12.184  0.00  0.00    +0.000 A 
ATOM     12  C   UNL     1      49.198   7.956  11.794  0.00  0.00    +0.000 A 
ATOM     13  N   UNL     1      49.903   9.040  11.393  0.00  0.00    +0.000 NA
BRANCH   8  15
ATOM     14  C   UNL     1      50.727  11.873  11.961  0.00  0.00    +0.000 C 
ATOM     15  O   UNL     1      49.843  11.360  10.966  0.00  0.00    +0.000 OA
ENDBRANCH   8  15
ENDBRANCH   2  11
ENDBRANCH   1   6
BRANCH   1  16
ATOM     16  C   UNL     1      43.286   4.908  10.857  0.00  0.00    +0.000 C 
BRANCH  16  17
ATOM     17  N   UNL     1      43.561   3.472  10.736  0.00  0.00    +0.000 N 
ATOM     18  C   UNL     1      44.486   3.226   9.691  0.00  0.00    +0.000 A 
ATOM     19  C   UNL     1      44.876   1.918   9.384  0.00  0.00    +0.000 A 
ATOM     20  N   UNL     1      45.766   1.592   8.406  0.00  0.00    +0.000 NA
ATOM     21  C   UNL     1      46.274   2.662   7.730  0.00  0.00    +0.000 A 
ATOM     22  C   UNL     1      45.909   3.962   8.021  0.00  0.00    +0.000 A 
ATOM     23  N   UNL     1      45.020   4.261   9.000  0.00  0.00    +0.000 NA
ATOM     24  H   UNL     1      42.713   2.942  10.547  0.00  0.00    +0.000 HD
BRANCH  21  25
ATOM     25  C   UNL     1      47.258   2.406   6.646  0.00  0.00    +0.000 C 
ATOM     26  N   UNL     1      47.191   3.245   5.568  0.00  0.00    +0.000 N 
ATOM     27  O   UNL     1      48.078   1.501   6.702  0.00  0.00    +0.000 OA
ATOM     28  H   UNL     1      46.489   3.977   5.538  0.00  0.00    +0.000 HD
ATOM     29  H   UNL     1      47.823   3.109   4.793  0.00  0.00    +0.000 HD
ENDBRANCH  21  25
ENDBRANCH  16  17
ENDBRANCH   1  16
TORSDOF 6
ENDMDL
MODEL 4
REMARK VINA RESULT:    -6.934      2.255      2.866
REMARK INTER + INTRA:         -10.131
REMARK INTER:                  -9.525
REMARK INTRA:                  -0.606
REMARK UNBOUND:                -0.764
REMARK  Name = 
REMARK  7 active torsions:
REMARK  status: ('A' for Active; 'I' for Inactive)
REMARK    1  A    between atoms: C_1  and  O_2
REMARK    2  A    between atoms: O_2  and  C_3
REMARK    3  A    between atoms: C_6  and  C_7
REMARK    4  A    between atoms: C_11  and  C_12
REMARK    5  A    between atoms: C_12  and  C_13
REMARK    6  A    between atoms: C_13  and  N_14
REMARK    7  A    between atoms: C_18  and  C_19
REMARK                            x       y       z     vdW  Elec       q    Type
REMARK                         _______ _______ _______ _____ _____    ______ ____
ROOT
ATOM      1  C   UNL     1      43.885   5.162  12.231  0.00  0.00    +0.000 C 
ENDROOT
BRANCH   1   6
ATOM      2  C   UNL     1      46.784   7.618  12.959  0.00  0.00    +0.000 A 
ATOM      3  C   UNL     1      46.341   8.730  12.230  0.00  0.00    +0.000 A 
ATOM      4  C   UNL     1      45.121   8.706  11.550  0.00  0.00    +0.000 A 
ATOM      5  C   UNL     1      44.325   7.559  11.566  0.00  0.00    +0.000 A 
ATOM      6  C   UNL     1      44.733   6.423  12.276  0.00  0.00    +0.000 A 
ATOM      7  C   UNL     1      45.949   6.488  12.978  0.00  0.00    +0.000 A 
BRANCH   2  11
ATOM      8  C   UNL     1      50.461   7.575  14.947  0.00  0.00    +0.000 A 
ATOM      9  C   UNL     1      50.153   8.542  14.005  0.00  0.00    +0.000 A 
ATOM     10  N   UNL     1      48.964   8.570  13.351  0.00  0.00    +0.000 NA
ATOM     11  C   UNL     1      48.078   7.585  13.664  0.00  0.00    +0.000 A 
ATOM     12  C   UNL     1      48.415   6.614  14.604  0.00  0.00    +0.000 A 
ATOM     13  N   UNL     1      49.596   6.589  15.266  0.00  0.00    +0.000 NA
BRANCH   8  15
ATOM     14  C   UNL     1      51.908   8.866  16.229  0.00  0.00    +0.000 C 
ATOM     15  O   UNL     1      51.695   7.628  15.554  0.00  0.00    +0.000 OA
ENDBRANCH   8  15
ENDBRANCH   2  11
ENDBRANCH   1   6
BRANCH   1  16
ATOM     16  C   UNL     1      43.517   4.714  10.810  0.00  0.00    +0.000 C 
BRANCH  16  17
ATOM     17  N   UNL     1      43.741   3.283  10.573  0.00  0.00    +0.000 N 
ATOM     18  C   UNL     1      44.685   3.089   9.534  0.00  0.00    +0.000 A 
ATOM     19  C   UNL     1      45.034   1.797   9.127  0.00  0.00    +0.000 A 
ATOM     20  N   UNL     1      45.939   1.519   8.147  0.00  0.00    +0.000 NA
ATOM     21  C   UNL     1      46.507   2.621   7.579  0.00  0.00    +0.000 A 
ATOM     22  C   UNL     1      46.184   3.905   7.971  0.00  0.00    +0.000 A 
ATOM     23  N   UNL     1      45.279   4.156   8.949  0.00  0.00    +0.000 NA
ATOM     24  H   UNL     1      42.879   2.806  10.317  0.00  0.00    +0.000 HD
BRANCH  21  25
ATOM     25  C   UNL     1      47.512   2.418   6.504  0.00  0.00    +0.000 C 
ATOM     26  N   UNL     1      47.330   3.159   5.368  0.00  0.00    +0.000 N 
ATOM     27  O   UNL     1      48.444   1.636   6.613  0.00  0.00    +0.000 OA
ATOM     28  H   UNL     1      46.538   3.788   5.295  0.00  0.00    +0.000 HD
ATOM     29  H   UNL     1      47.971   3.050   4.597  0.00  0.00    +0.000 HD
ENDBRANCH  21  25
ENDBRANCH  16  17
ENDBRANCH   1  16
TORSDOF 6
ENDMDL
MODEL 5
REMARK VINA RESULT:    -6.358      3.779      5.548
REMARK INTER + INTRA:          -9.352
REMARK INTER:                  -8.501
REMARK INTRA:                  -0.852
REMARK UNBOUND:                -0.764
REMARK  Name = 
REMARK  7 active torsions:
REMARK  status: ('A' for Active; 'I' for Inactive)
REMARK    1  A    between atoms: C_1  and  O_2
REMARK    2  A    between atoms: O_2  and  C_3
REMARK    3  A    between atoms: C_6  and  C_7
REMARK    4  A    between atoms: C_11  and  C_12
REMARK    5  A    between atoms: C_12  and  C_13
REMARK    6  A    between atoms: C_13  and  N_14
REMARK    7  A    between atoms: C_18  and  C_19
REMARK                            x       y       z     vdW  Elec       q    Type
REMARK                         _______ _______ _______ _____ _____    ______ ____
ROOT
ATOM      1  C   UNL     1      48.759   9.553  14.535  0.00  0.00    +0.000 C 
ENDROOT
BRANCH   1   6
ATOM      2  C   UNL     1      48.824   6.635  17.076  0.00  0.00    +0.000 A 
ATOM      3  C   UNL     1      48.373   7.308  18.220  0.00  0.00    +0.000 A 
ATOM      4  C   UNL     1      48.021   8.659  18.170  0.00  0.00    +0.000 A 
ATOM      5  C   UNL     1      48.131   9.374  16.976  0.00  0.00    +0.000 A 
ATOM      6  C   UNL     1      48.584   8.744  15.811  0.00  0.00    +0.000 A 
ATOM      7  C   UNL     1      48.900   7.376  15.884  0.00  0.00    +0.000 A 
BRANCH   2  11
ATOM      8  C   UNL     1      50.036   2.636  17.143  0.00  0.00    +0.000 A 
ATOM      9  C   UNL     1      50.881   3.660  17.538  0.00  0.00    +0.000 A 
ATOM     10  N   UNL     1      50.503   4.963  17.522  0.00  0.00    +0.000 NA
ATOM     11  C   UNL     1      49.238   5.221  17.088  0.00  0.00    +0.000 A 
ATOM     12  C   UNL     1      48.411   4.177  16.682  0.00  0.00    +0.000 A 
ATOM     13  N   UNL     1      48.781   2.874  16.707  0.00  0.00    +0.000 NA
BRANCH   8  15
ATOM     14  C   UNL     1      51.898   1.297  17.529  0.00  0.00    +0.000 C 
ATOM     15  O   UNL     1      50.513   1.346  17.192  0.00  0.00    +0.000 OA
ENDBRANCH   8  15
ENDBRANCH   2  11
ENDBRANCH   1   6
BRANCH   1  16
ATOM     16  C   UNL     1      48.458   8.761  13.255  0.00  0.00    +0.000 C 
BRANCH  16  17
ATOM     17  N   UNL     1      47.054   8.845  12.835  0.00  0.00    +0.000 N 
ATOM     18  C   UNL     1      46.452   7.562  12.845  0.00  0.00    +0.000 A 
ATOM     19  C   UNL     1      45.117   7.404  12.457  0.00  0.00    +0.000 A 
ATOM     20  N   UNL     1      44.456   6.213  12.447  0.00  0.00    +0.000 NA
ATOM     21  C   UNL     1      45.205   5.152  12.863  0.00  0.00    +0.000 A 
ATOM     22  C   UNL     1      46.522   5.286  13.258  0.00  0.00    +0.000 A 
ATOM     23  N   UNL     1      47.158   6.484  13.259  0.00  0.00    +0.000 NA
ATOM     24  H   UNL     1      46.965   9.235  11.900  0.00  0.00    +0.000 HD
BRANCH  21  25
ATOM     25  C   UNL     1      44.568   3.810  12.892  0.00  0.00    +0.000 C 
ATOM     26  N   UNL     1      45.356   2.766  12.491  0.00  0.00    +0.000 N 
ATOM     27  O   UNL     1      43.411   3.638  13.245  0.00  0.00    +0.000 OA
ATOM     28  H   UNL     1      46.308   2.938  12.185  0.00  0.00    +0.000 HD
ATOM     29  H   UNL     1      44.972   1.834  12.473  0.00  0.00    +0.000 HD
ENDBRANCH  21  25
ENDBRANCH  16  17
ENDBRANCH   1  16
TORSDOF 6
ENDMDL
MODEL 6
REMARK VINA RESULT:    -6.319      4.088      6.300
REMARK INTER + INTRA:          -9.300
REMARK INTER:                  -8.818
REMARK INTRA:                  -0.482
REMARK UNBOUND:                -0.764
REMARK  Name = 
REMARK  7 active torsions:
REMARK  status: ('A' for Active; 'I' for Inactive)
REMARK    1  A    between atoms: C_1  and  O_2
REMARK    2  A    between atoms: O_2  and  C_3
REMARK    3  A    between atoms: C_6  and  C_7
REMARK    4  A    between atoms: C_11  and  C_12
REMARK    5  A    between atoms: C_12  and  C_13
REMARK    6  A    between atoms: C_13  and  N_14
REMARK    7  A    between atoms: C_18  and  C_19
REMARK                            x       y       z     vdW  Elec       q    Type
REMARK                         _______ _______ _______ _____ _____    ______ ____
ROOT
ATOM      1  C   UNL     1      47.803   4.179  17.274  0.00  0.00    +0.000 C 
ENDROOT
BRANCH   1   6
ATOM      2  C   UNL     1      51.608   3.652  17.731  0.00  0.00    +0.000 A 
ATOM      3  C   UNL     1      52.064   4.944  17.437  0.00  0.00    +0.000 A 
ATOM      4  C   UNL     1      51.166   5.973  17.136  0.00  0.00    +0.000 A 
ATOM      5  C   UNL     1      49.793   5.726  17.101  0.00  0.00    +0.000 A 
ATOM      6  C   UNL     1      49.296   4.447  17.380  0.00  0.00    +0.000 A 
ATOM      7  C   UNL     1      50.219   3.440  17.712  0.00  0.00    +0.000 A 
BRANCH   2  11
ATOM      8  C   UNL     1      54.213   0.497  18.586  0.00  0.00    +0.000 A 
ATOM      9  C   UNL     1      54.561   1.815  18.828  0.00  0.00    +0.000 A 
ATOM     10  N   UNL     1      53.727   2.851  18.556  0.00  0.00    +0.000 NA
ATOM     11  C   UNL     1      52.517   2.529  18.021  0.00  0.00    +0.000 A 
ATOM     12  C   UNL     1      52.194   1.197  17.773  0.00  0.00    +0.000 A 
ATOM     13  N   UNL     1      53.019   0.160  18.053  0.00  0.00    +0.000 NA
BRANCH   8  15
ATOM     14  C   UNL     1      54.565  -1.791  18.808  0.00  0.00    +0.000 C 
ATOM     15  O   UNL     1      55.129  -0.484  18.893  0.00  0.00    +0.000 OA
ENDBRANCH   8  15
ENDBRANCH   2  11
ENDBRANCH   1   6
BRANCH   1  16
ATOM     16  C   UNL     1      47.321   3.918  15.840  0.00  0.00    +0.000 C 
BRANCH  16  17
ATOM     17  N   UNL     1      46.988   5.143  15.105  0.00  0.00    +0.000 N 
ATOM     18  C   UNL     1      46.362   4.832  13.872  0.00  0.00    +0.000 A 
ATOM     19  C   UNL     1      45.977   5.854  12.996  0.00  0.00    +0.000 A 
ATOM     20  N   UNL     1      45.361   5.647  11.799  0.00  0.00    +0.000 NA
ATOM     21  C   UNL     1      45.129   4.335  11.507  0.00  0.00    +0.000 A 
ATOM     22  C   UNL     1      45.493   3.312  12.360  0.00  0.00    +0.000 A 
ATOM     23  N   UNL     1      46.106   3.543  13.547  0.00  0.00    +0.000 NA
ATOM     24  H   UNL     1      47.816   5.703  14.913  0.00  0.00    +0.000 HD
BRANCH  21  25
ATOM     25  C   UNL     1      44.455   4.009  10.223  0.00  0.00    +0.000 C 
ATOM     26  N   UNL     1      44.723   4.849   9.178  0.00  0.00    +0.000 N 
ATOM     27  O   UNL     1      43.701   3.056  10.100  0.00  0.00    +0.000 OA
ATOM     28  H   UNL     1      45.338   5.645   9.312  0.00  0.00    +0.000 HD
ATOM     29  H   UNL     1      44.280   4.689   8.286  0.00  0.00    +0.000 HD
ENDBRANCH  21  25
ENDBRANCH  16  17
ENDBRANCH   1  16
TORSDOF 6
ENDMDL
MODEL 7
REMARK VINA RESULT:    -6.298      5.059      7.925
REMARK INTER + INTRA:          -9.272
REMARK INTER:                  -8.450
REMARK INTRA:                  -0.822
REMARK UNBOUND:                -0.764
REMARK  Name = 
REMARK  7 active torsions:
REMARK  status: ('A' for Active; 'I' for Inactive)
REMARK    1  A    between atoms: C_1  and  O_2
REMARK    2  A    between atoms: O_2  and  C_3
REMARK    3  A    between atoms: C_6  and  C_7
REMARK    4  A    between atoms: C_11  and  C_12
REMARK    5  A    between atoms: C_12  and  C_13
REMARK    6  A    between atoms: C_13  and  N_14
REMARK    7  A    between atoms: C_18  and  C_19
REMARK                            x       y       z     vdW  Elec       q    Type
REMARK                         _______ _______ _______ _____ _____    ______ ____
ROOT
ATOM      1  C   UNL     1      48.403   9.111  13.123  0.00  0.00    +0.000 C 
ENDROOT
BRANCH   1   6
ATOM      2  C   UNL     1      45.793  10.986  10.970  0.00  0.00    +0.000 A 
ATOM      3  C   UNL     1      46.615  11.971  10.406  0.00  0.00    +0.000 A 
ATOM      4  C   UNL     1      47.984  12.011  10.681  0.00  0.00    +0.000 A 
ATOM      5  C   UNL     1      48.559  11.077  11.544  0.00  0.00    +0.000 A 
ATOM      6  C   UNL     1      47.774  10.080  12.136  0.00  0.00    +0.000 A 
ATOM      7  C   UNL     1      46.405  10.044  11.815  0.00  0.00    +0.000 A 
BRANCH   2  11
ATOM      8  C   UNL     1      41.662  10.834  10.350  0.00  0.00    +0.000 A 
ATOM      9  C   UNL     1      42.204  11.003  11.614  0.00  0.00    +0.000 A 
ATOM     10  N   UNL     1      43.542  11.054  11.832  0.00  0.00    +0.000 NA
ATOM     11  C   UNL     1      44.340  10.924  10.735  0.00  0.00    +0.000 A 
ATOM     12  C   UNL     1      43.773  10.740   9.476  0.00  0.00    +0.000 A 
ATOM     13  N   UNL     1      42.438  10.699   9.254  0.00  0.00    +0.000 NA
BRANCH   8  15
ATOM     14  C   UNL     1      39.660  10.391  11.445  0.00  0.00    +0.000 C 
ATOM     15  O   UNL     1      40.292  10.790  10.231  0.00  0.00    +0.000 OA
ENDBRANCH   8  15
ENDBRANCH   2  11
ENDBRANCH   1   6
BRANCH   1  16
ATOM     16  C   UNL     1      48.604   7.697  12.560  0.00  0.00    +0.000 C 
BRANCH  16  17
ATOM     17  N   UNL     1      48.317   6.636  13.532  0.00  0.00    +0.000 N 
ATOM     18  C   UNL     1      47.164   5.906  13.149  0.00  0.00    +0.000 A 
ATOM     19  C   UNL     1      46.693   4.856  13.947  0.00  0.00    +0.000 A 
ATOM     20  N   UNL     1      45.602   4.097  13.650  0.00  0.00    +0.000 NA
ATOM     21  C   UNL     1      44.985   4.433  12.482  0.00  0.00    +0.000 A 
ATOM     22  C   UNL     1      45.437   5.459  11.675  0.00  0.00    +0.000 A 
ATOM     23  N   UNL     1      46.526   6.202  11.992  0.00  0.00    +0.000 NA
ATOM     24  H   UNL     1      48.165   7.012  14.465  0.00  0.00    +0.000 HD
BRANCH  21  25
ATOM     25  C   UNL     1      43.787   3.656  12.070  0.00  0.00    +0.000 C 
ATOM     26  N   UNL     1      43.734   2.363  12.513  0.00  0.00    +0.000 N 
ATOM     27  O   UNL     1      42.902   4.130  11.374  0.00  0.00    +0.000 OA
ATOM     28  H   UNL     1      44.490   1.987  13.074  0.00  0.00    +0.000 HD
ATOM     29  H   UNL     1      42.953   1.780  12.250  0.00  0.00    +0.000 HD
ENDBRANCH  21  25
ENDBRANCH  16  17
ENDBRANCH   1  16
TORSDOF 6
ENDMDL
MODEL 8
REMARK VINA RESULT:    -6.155      3.431      8.105
REMARK INTER + INTRA:          -9.078
REMARK INTER:                  -8.224
REMARK INTRA:                  -0.853
REMARK UNBOUND:                -0.764
REMARK  Name = 
REMARK  7 active torsions:
REMARK  status: ('A' for Active; 'I' for Inactive)
REMARK    1  A    between atoms: C_1  and  O_2
REMARK    2  A    between atoms: O_2  and  C_3
REMARK    3  A    between atoms: C_6  and  C_7
REMARK    4  A    between atoms: C_11  and  C_12
REMARK    5  A    between atoms: C_12  and  C_13
REMARK    6  A    between atoms: C_13  and  N_14
REMARK    7  A    between atoms: C_18  and  C_19
REMARK                            x       y       z     vdW  Elec       q    Type
REMARK                         _______ _______ _______ _____ _____    ______ ____
ROOT
ATOM      1  C   UNL     1      51.230   8.221  13.473  0.00  0.00    +0.000 C 
ENDROOT
BRANCH   1   6
ATOM      2  C   UNL     1      47.588   7.385  12.472  0.00  0.00    +0.000 A 
ATOM      3  C   UNL     1      47.209   8.613  11.911  0.00  0.00    +0.000 A 
ATOM      4  C   UNL     1      48.114   9.674  11.822  0.00  0.00    +0.000 A 
ATOM      5  C   UNL     1      49.413   9.538  12.312  0.00  0.00    +0.000 A 
ATOM      6  C   UNL     1      49.832   8.333  12.887  0.00  0.00    +0.000 A 
ATOM      7  C   UNL     1      48.911   7.271  12.933  0.00  0.00    +0.000 A 
BRANCH   2  11
ATOM      8  C   UNL     1      44.945   4.168  12.836  0.00  0.00    +0.000 A 
ATOM      9  C   UNL     1      44.884   5.044  11.764  0.00  0.00    +0.000 A 
ATOM     10  N   UNL     1      45.734   6.093  11.632  0.00  0.00    +0.000 NA
ATOM     11  C   UNL     1      46.660   6.250  12.618  0.00  0.00    +0.000 A 
ATOM     12  C   UNL     1      46.693   5.366  13.694  0.00  0.00    +0.000 A 
ATOM     13  N   UNL     1      45.853   4.312  13.824  0.00  0.00    +0.000 NA
BRANCH   8  15
ATOM     14  C   UNL     1      43.402   2.920  11.624  0.00  0.00    +0.000 C 
ATOM     15  O   UNL     1      44.036   3.136  12.884  0.00  0.00    +0.000 OA
ENDBRANCH   8  15
ENDBRANCH   2  11
ENDBRANCH   1   6
BRANCH   1  16
ATOM     16  C   UNL     1      51.281   8.420  14.994  0.00  0.00    +0.000 C 
BRANCH  16  17
ATOM     17  N   UNL     1      51.886   7.291  15.710  0.00  0.00    +0.000 N 
ATOM     18  C   UNL     1      50.887   6.499  16.330  0.00  0.00    +0.000 A 
ATOM     19  C   UNL     1      51.243   5.377  17.088  0.00  0.00    +0.000 A 
ATOM     20  N   UNL     1      50.351   4.555  17.707  0.00  0.00    +0.000 NA
ATOM     21  C   UNL     1      49.045   4.906  17.526  0.00  0.00    +0.000 A 
ATOM     22  C   UNL     1      48.671   6.003  16.775  0.00  0.00    +0.000 A 
ATOM     23  N   UNL     1      49.579   6.807  16.168  0.00  0.00    +0.000 NA
ATOM     24  H   UNL     1      52.537   7.606  16.425  0.00  0.00    +0.000 HD
BRANCH  21  25
ATOM     25  C   UNL     1      47.997   4.064  18.159  0.00  0.00    +0.000 C 
ATOM     26  N   UNL     1      48.411   3.273  19.195  0.00  0.00    +0.000 N 
ATOM     27  O   UNL     1      46.835   4.066  17.782  0.00  0.00    +0.000 OA
ATOM     28  H   UNL     1      49.386   3.276  19.477  0.00  0.00    +0.000 HD
ATOM     29  H   UNL     1      47.748   2.666  19.652  0.00  0.00    +0.000 HD
ENDBRANCH  21  25
ENDBRANCH  16  17
ENDBRANCH   1  16
TORSDOF 6
ENDMDL
MODEL 9
REMARK VINA RESULT:    -6.070      2.088      8.446
REMARK INTER + INTRA:          -8.963
REMARK INTER:                  -8.680
REMARK INTRA:                  -0.284
REMARK UNBOUND:                -0.764
REMARK  Name = 
REMARK  7 active torsions:
REMARK  status: ('A' for Active; 'I' for Inactive)
REMARK    1  A    between atoms: C_1  and  O_2
REMARK    2  A    between atoms: O_2  and  C_3
REMARK    3  A    between atoms: C_6  and  C_7
REMARK    4  A    between atoms: C_11  and  C_12
REMARK    5  A    between atoms: C_12  and  C_13
REMARK    6  A    between atoms: C_13  and  N_14
REMARK    7  A    between atoms: C_18  and  C_19
REMARK                            x       y       z     vdW  Elec       q    Type
REMARK                         _______ _______ _______ _____ _____    ______ ____
ROOT
ATOM      1  C   UNL     1      45.121   7.530  12.750  0.00  0.00    +0.000 C 
ENDROOT
BRANCH   1   6
ATOM      2  C   UNL     1      44.560   4.367  10.593  0.00  0.00    +0.000 A 
ATOM      3  C   UNL     1      43.472   3.805  11.275  0.00  0.00    +0.000 A 
ATOM      4  C   UNL     1      42.906   4.446  12.381  0.00  0.00    +0.000 A 
ATOM      5  C   UNL     1      43.431   5.654  12.843  0.00  0.00    +0.000 A 
ATOM      6  C   UNL     1      44.521   6.247  12.196  0.00  0.00    +0.000 A 
ATOM      7  C   UNL     1      45.049   5.597  11.066  0.00  0.00    +0.000 A 
BRANCH   2  11
ATOM      8  C   UNL     1      46.379   2.467   7.346  0.00  0.00    +0.000 A 
ATOM      9  C   UNL     1      45.867   1.752   8.415  0.00  0.00    +0.000 A 
ATOM     10  N   UNL     1      45.273   2.353   9.476  0.00  0.00    +0.000 NA
ATOM     11  C   UNL     1      45.209   3.713   9.444  0.00  0.00    +0.000 A 
ATOM     12  C   UNL     1      45.745   4.413   8.366  0.00  0.00    +0.000 A 
ATOM     13  N   UNL     1      46.329   3.815   7.299  0.00  0.00    +0.000 NA
BRANCH   8  15
ATOM     14  C   UNL     1      47.432   2.627   5.278  0.00  0.00    +0.000 C 
ATOM     15  O   UNL     1      46.967   1.767   6.317  0.00  0.00    +0.000 OA
ENDBRANCH   8  15
ENDBRANCH   2  11
ENDBRANCH   1   6
BRANCH   1  16
ATOM     16  C   UNL     1      46.427   7.950  12.061  0.00  0.00    +0.000 C 
BRANCH  16  17
ATOM     17  N   UNL     1      47.245   8.862  12.869  0.00  0.00    +0.000 N 
ATOM     18  C   UNL     1      47.918   8.153  13.895  0.00  0.00    +0.000 A 
ATOM     19  C   UNL     1      48.741   8.832  14.802  0.00  0.00    +0.000 A 
ATOM     20  N   UNL     1      49.432   8.231  15.809  0.00  0.00    +0.000 NA
ATOM     21  C   UNL     1      49.272   6.879  15.871  0.00  0.00    +0.000 A 
ATOM     22  C   UNL     1      48.472   6.187  14.982  0.00  0.00    +0.000 A 
ATOM     23  N   UNL     1      47.792   6.808  13.987  0.00  0.00    +0.000 NA
ATOM     24  H   UNL     1      46.680   9.591  13.298  0.00  0.00    +0.000 HD
BRANCH  21  25
ATOM     25  C   UNL     1      49.993   6.133  16.935  0.00  0.00    +0.000 C 
ATOM     26  N   UNL     1      50.287   6.842  18.067  0.00  0.00    +0.000 N 
ATOM     27  O   UNL     1      50.315   4.960  16.814  0.00  0.00    +0.000 OA
ATOM     28  H   UNL     1      50.026   7.820  18.135  0.00  0.00    +0.000 HD
ATOM     29  H   UNL     1      50.792   6.393  18.816  0.00  0.00    +0.000 HD
ENDBRANCH  21  25
ENDBRANCH  16  17
ENDBRANCH   1  16
TORSDOF 6
ENDMDL
