MODEL 1
REMARK VINA RESULT:    -7.209      0.000      0.000
REMARK INTER + INTRA:         -10.874
REMARK INTER:                  -9.738
REMARK INTRA:                  -1.136
REMARK UNBOUND:                -1.136
REMARK  Name = 
REMARK  6 active torsions:
REMARK  status: ('A' for Active; 'I' for Inactive)
REMARK    1  A    between atoms: C_2  and  C_19
REMARK    2  A    between atoms: N_3  and  C_4
REMARK    3  A    between atoms: C_4  and  C_5
REMARK    4  A    between atoms: C_8  and  O_9
REMARK    5  A    between atoms: O_9  and  C_10
REMARK    6  A    between atoms: C_10  and  C_11
REMARK                            x       y       z     vdW  Elec       q    Type
REMARK                         _______ _______ _______ _____ _____    ______ ____
ROOT
ATOM      1  C   UNL     1      48.517   6.736  14.628  0.00  0.00    +0.000 C 
ENDROOT
BRANCH   1   2
ATOM      2  C   UNL     1      47.475   6.066  13.785  0.00  0.00    +0.000 A 
ATOM      3  C   UNL     1      47.077   6.594  12.553  0.00  0.00    +0.000 A 
ATOM      4  C   UNL     1      46.092   5.948  11.810  0.00  0.00    +0.000 A 
ATOM      5  C   UNL     1      45.559   4.772  12.310  0.00  0.00    +0.000 A 
ATOM      6  N   UNL     1      45.930   4.227  13.488  0.00  0.00    +0.000 NA
ATOM      7  C   UNL     1      46.874   4.880  14.195  0.00  0.00    +0.000 A 
BRANCH   5   8
ATOM      8  O   UNL     1      44.566   4.166  11.562  0.00  0.00    +0.000 OA
BRANCH   8   9
ATOM      9  C   UNL     1      45.040   2.987  10.899  0.00  0.00    +0.000 C 
BRANCH   9  10
ATOM     10  C   UNL     1      44.333   2.831   9.541  0.00  0.00    +0.000 C 
ATOM     11  C   UNL     1      45.026   1.804   8.631  0.00  0.00    +0.000 C 
ATOM     12  C   UNL     1      46.367   2.323   8.115  0.00  0.00    +0.000 C 
ATOM     13  C   UNL     1      46.232   3.715   7.499  0.00  0.00    +0.000 C 
ATOM     14  N   UNL     1      45.579   4.662   8.404  0.00  0.00    +0.000 NA
ATOM     15  C   UNL     1      44.258   4.185   8.818  0.00  0.00    +0.000 C 
ATOM     16  H   UNL     1      45.485   5.563   7.938  0.00  0.00    +0.000 HD
ENDBRANCH   9  10
ENDBRANCH   8   9
ENDBRANCH   5   8
ENDBRANCH   1   2
BRANCH   1  19
ATOM     17  O   UNL     1      50.356   5.702  16.494  0.00  0.00    +0.000 OA
ATOM     18  C   UNL     1      49.254   6.073  16.886  0.00  0.00    +0.000 C 
ATOM     19  N   UNL     1      48.286   6.541  16.036  0.00  0.00    +0.000 N 
ATOM     20  H   UNL     1      47.440   6.946  16.419  0.00  0.00    +0.000 HD
BRANCH  18  21
ATOM     21  C   UNL     1      48.883   6.004  18.303  0.00  0.00    +0.000 A 
ATOM     22  C   UNL     1      49.126   4.847  19.029  0.00  0.00    +0.000 A 
ATOM     23  S   UNL     1      48.617   4.942  20.654  0.00  0.00    +0.000 S 
ATOM     24  C   UNL     1      48.095   6.550  20.455  0.00  0.00    +0.000 A 
ATOM     25  N   UNL     1      47.566   7.250  21.495  0.00  0.00    +0.000 NA
ATOM     26  C   UNL     1      47.255   8.471  21.214  0.00  0.00    +0.000 A 
ATOM     27  N   UNL     1      47.419   9.055  19.984  0.00  0.00    +0.000 N 
ATOM     28  C   UNL     1      47.892   8.370  18.891  0.00  0.00    +0.000 A 
ATOM     29  O   UNL     1      47.930   8.893  17.781  0.00  0.00    +0.000 OA
ATOM     30  C   UNL     1      48.288   7.001  19.162  0.00  0.00    +0.000 A 
ATOM     31  H   UNL     1      47.135  10.010  19.825  0.00  0.00    +0.000 HD
ENDBRANCH  18  21
ENDBRANCH   1  19
TORSDOF 6
ENDMDL
MODEL 2
REMARK VINA RESULT:    -7.179      4.540      9.359
REMARK INTER + INTRA:         -10.833
REMARK INTER:                  -9.837
REMARK INTRA:                  -0.996
REMARK UNBOUND:                -1.136
REMARK  Name = 
REMARK  6 active torsions:
REMARK  status: ('A' for Active; 'I' for Inactive)
REMARK    1  A    between atoms: C_2  and  C_19
REMARK    2  A    between atoms: N_3  and  C_4
REMARK    3  A    between atoms: C_4  and  C_5
REMARK    4  A    between atoms: C_8  and  O_9
REMARK    5  A    between atoms: O_9  and  C_10
REMARK    6  A    between atoms: C_10  and  C_11
REMARK                            x       y       z     vdW  Elec       q    Type
REMARK                         _______ _______ _______ _____ _____    ______ ____
ROOT
ATOM      1  C   UNL     1      47.319   3.493  16.823  0.00  0.00    +0.000 C 
ENDROOT
BRANCH   1   2
ATOM      2  C   UNL     1      48.789   3.529  17.107  0.00  0.00    +0.000 A 
ATOM      3  C   UNL     1      49.566   2.367  17.102  0.00  0.00    +0.000 A 
ATOM      4  C   UNL     1      50.927   2.442  17.389  0.00  0.00    +0.000 A 
ATOM      5  C   UNL     1      51.475   3.689  17.639  0.00  0.00    +0.000 A 
ATOM      6  N   UNL     1      50.758   4.832  17.638  0.00  0.00    +0.000 NA
ATOM      7  C   UNL     1      49.440   4.729  17.373  0.00  0.00    +0.000 A 
BRANCH   5   8
ATOM      8  O   UNL     1      52.823   3.731  17.944  0.00  0.00    +0.000 OA
BRANCH   8   9
ATOM      9  C   UNL     1      53.215   2.646  18.793  0.00  0.00    +0.000 C 
BRANCH   9  10
ATOM     10  C   UNL     1      54.633   2.178  18.424  0.00  0.00    +0.000 C 
ATOM     11  C   UNL     1      54.700   1.552  17.020  0.00  0.00    +0.000 C 
ATOM     12  C   UNL     1      54.007   0.191  16.977  0.00  0.00    +0.000 C 
ATOM     13  C   UNL     1      54.501  -0.727  18.096  0.00  0.00    +0.000 C 
ATOM     14  N   UNL     1      54.407  -0.096  19.413  0.00  0.00    +0.000 NA
ATOM     15  C   UNL     1      55.149   1.166  19.458  0.00  0.00    +0.000 C 
ATOM     16  H   UNL     1      54.774  -0.732  20.119  0.00  0.00    +0.000 HD
ENDBRANCH   9  10
ENDBRANCH   8   9
ENDBRANCH   5   8
ENDBRANCH   1   2
BRANCH   1  19
ATOM     17  O   UNL     1      47.297   3.104  14.034  0.00  0.00    +0.000 OA
ATOM     18  C   UNL     1      46.908   4.174  14.489  0.00  0.00    +0.000 C 
ATOM     19  N   UNL     1      46.933   4.461  15.829  0.00  0.00    +0.000 N 
ATOM     20  H   UNL     1      46.491   5.309  16.165  0.00  0.00    +0.000 HD
BRANCH  18  21
ATOM     21  C   UNL     1      46.418   5.245  13.614  0.00  0.00    +0.000 A 
ATOM     22  C   UNL     1      47.212   6.356  13.367  0.00  0.00    +0.000 A 
ATOM     23  S   UNL     1      46.476   7.504  12.341  0.00  0.00    +0.000 S 
ATOM     24  C   UNL     1      45.091   6.534  12.156  0.00  0.00    +0.000 A 
ATOM     25  N   UNL     1      44.057   6.928  11.364  0.00  0.00    +0.000 NA
ATOM     26  C   UNL     1      43.092   6.075  11.280  0.00  0.00    +0.000 A 
ATOM     27  N   UNL     1      43.062   4.865  11.922  0.00  0.00    +0.000 N 
ATOM     28  C   UNL     1      44.053   4.451  12.778  0.00  0.00    +0.000 A 
ATOM     29  O   UNL     1      43.947   3.408  13.417  0.00  0.00    +0.000 OA
ATOM     30  C   UNL     1      45.179   5.360  12.883  0.00  0.00    +0.000 A 
ATOM     31  H   UNL     1      42.265   4.252  11.831  0.00  0.00    +0.000 HD
ENDBRANCH  18  21
ENDBRANCH   1  19
TORSDOF 6
ENDMDL
MODEL 3
REMARK VINA RESULT:    -7.165      3.323      4.742
REMARK INTER + INTRA:         -10.815
REMARK INTER:                  -9.911
REMARK INTRA:                  -0.904
REMARK UNBOUND:                -1.136
REMARK  Name = 
REMARK  6 active torsions:
REMARK  status: ('A' for Active; 'I' for Inactive)
REMARK    1  A    between atoms: C_2  and  C_19
REMARK    2  A    between atoms: N_3  and  C_4
REMARK    3  A    between atoms: C_4  and  C_5
REMARK    4  A    between atoms: C_8  and  O_9
REMARK    5  A    between atoms: O_9  and  C_10
REMARK    6  A    between atoms: C_10  and  C_11
REMARK                            x       y       z     vdW  Elec       q    Type
REMARK                         _______ _______ _______ _____ _____    ______ ____
ROOT
ATOM      1  C   UNL     1      49.643   6.758  16.385  0.00  0.00    +0.000 C 
ENDROOT
BRANCH   1   2
ATOM      2  C   UNL     1      48.562   6.040  15.637  0.00  0.00    +0.000 A 
ATOM      3  C   UNL     1      48.183   6.423  14.347  0.00  0.00    +0.000 A 
ATOM      4  C   UNL     1      47.161   5.739  13.695  0.00  0.00    +0.000 A 
ATOM      5  C   UNL     1      46.571   4.668  14.343  0.00  0.00    +0.000 A 
ATOM      6  N   UNL     1      46.921   4.262  15.582  0.00  0.00    +0.000 NA
ATOM      7  C   UNL     1      47.903   4.951  16.198  0.00  0.00    +0.000 A 
BRANCH   5   8
ATOM      8  O   UNL     1      45.543   4.022  13.681  0.00  0.00    +0.000 OA
BRANCH   8   9
ATOM      9  C   UNL     1      44.602   4.947  13.122  0.00  0.00    +0.000 C 
BRANCH   9  10
ATOM     10  C   UNL     1      43.438   4.180  12.472  0.00  0.00    +0.000 C 
ATOM     11  C   UNL     1      43.905   2.910  11.740  0.00  0.00    +0.000 C 
ATOM     12  C   UNL     1      44.678   3.247  10.465  0.00  0.00    +0.000 C 
ATOM     13  C   UNL     1      43.907   4.230   9.584  0.00  0.00    +0.000 C 
ATOM     14  N   UNL     1      43.494   5.427  10.318  0.00  0.00    +0.000 NA
ATOM     15  C   UNL     1      42.682   5.086  11.488  0.00  0.00    +0.000 C 
ATOM     16  H   UNL     1      42.959   6.034   9.698  0.00  0.00    +0.000 HD
ENDBRANCH   9  10
ENDBRANCH   8   9
ENDBRANCH   5   8
ENDBRANCH   1   2
BRANCH   1  19
ATOM     17  O   UNL     1      50.052   5.932  19.047  0.00  0.00    +0.000 OA
ATOM     18  C   UNL     1      50.769   5.474  18.164  0.00  0.00    +0.000 C 
ATOM     19  N   UNL     1      50.668   5.862  16.853  0.00  0.00    +0.000 N 
ATOM     20  H   UNL     1      51.200   5.368  16.145  0.00  0.00    +0.000 HD
BRANCH  18  21
ATOM     21  C   UNL     1      51.821   4.496  18.463  0.00  0.00    +0.000 A 
ATOM     22  C   UNL     1      52.906   4.862  19.247  0.00  0.00    +0.000 A 
ATOM     23  S   UNL     1      54.035   3.604  19.479  0.00  0.00    +0.000 S 
ATOM     24  C   UNL     1      53.089   2.514  18.575  0.00  0.00    +0.000 A 
ATOM     25  N   UNL     1      53.480   1.223  18.401  0.00  0.00    +0.000 NA
ATOM     26  C   UNL     1      52.647   0.497  17.734  0.00  0.00    +0.000 A 
ATOM     27  N   UNL     1      51.459   0.947  17.218  0.00  0.00    +0.000 N 
ATOM     28  C   UNL     1      51.052   2.255  17.317  0.00  0.00    +0.000 A 
ATOM     29  O   UNL     1      50.033   2.649  16.755  0.00  0.00    +0.000 OA
ATOM     30  C   UNL     1      51.939   3.107  18.087  0.00  0.00    +0.000 A 
ATOM     31  H   UNL     1      50.861   0.332  16.686  0.00  0.00    +0.000 HD
ENDBRANCH  18  21
ENDBRANCH   1  19
TORSDOF 6
ENDMDL
MODEL 4
REMARK VINA RESULT:    -7.157      1.593      2.250
REMARK INTER + INTRA:         -10.804
REMARK INTER:                  -9.813
REMARK INTRA:                  -0.991
REMARK UNBOUND:                -1.136
REMARK  Name = 
REMARK  6 active torsions:
REMARK  status: ('A' for Active; 'I' for Inactive)
REMARK    1  A    between atoms: C_2  and  C_19
REMARK    2  A    between atoms: N_3  and  C_4
REMARK    3  A    between atoms: C_4  and  C_5
REMARK    4  A    between atoms: C_8  and  O_9
REMARK    5  A    between atoms: O_9  and  C_10
REMARK    6  A    between atoms: C_10  and  C_11
REMARK                            x       y       z     vdW  Elec       q    Type
REMARK                         _______ _______ _______ _____ _____    ______ ____
ROOT
ATOM      1  C   UNL     1      48.192   7.495  13.749  0.00  0.00    +0.000 C 
ENDROOT
BRANCH   1   2
ATOM      2  C   UNL     1      47.211   6.616  13.035  0.00  0.00    +0.000 A 
ATOM      3  C   UNL     1      46.666   6.978  11.799  0.00  0.00    +0.000 A 
ATOM      4  C   UNL     1      45.745   6.140  11.177  0.00  0.00    +0.000 A 
ATOM      5  C   UNL     1      45.422   4.945  11.799  0.00  0.00    +0.000 A 
ATOM      6  N   UNL     1      45.940   4.558  12.984  0.00  0.00    +0.000 NA
ATOM      7  C   UNL     1      46.818   5.395  13.572  0.00  0.00    +0.000 A 
BRANCH   5   8
ATOM      8  O   UNL     1      44.487   4.144  11.169  0.00  0.00    +0.000 OA
BRANCH   8   9
ATOM      9  C   UNL     1      45.078   2.960  10.620  0.00  0.00    +0.000 C 
BRANCH   9  10
ATOM     10  C   UNL     1      44.466   2.662   9.240  0.00  0.00    +0.000 C 
ATOM     11  C   UNL     1      45.244   1.580   8.472  0.00  0.00    +0.000 C 
ATOM     12  C   UNL     1      46.602   2.093   7.997  0.00  0.00    +0.000 C 
ATOM     13  C   UNL     1      46.472   3.420   7.250  0.00  0.00    +0.000 C 
ATOM     14  N   UNL     1      45.737   4.422   8.022  0.00  0.00    +0.000 NA
ATOM     15  C   UNL     1      44.404   3.943   8.394  0.00  0.00    +0.000 C 
ATOM     16  H   UNL     1      45.650   5.276   7.471  0.00  0.00    +0.000 HD
ENDBRANCH   9  10
ENDBRANCH   8   9
ENDBRANCH   5   8
ENDBRANCH   1   2
BRANCH   1  19
ATOM     17  O   UNL     1      50.267   6.619  15.440  0.00  0.00    +0.000 OA
ATOM     18  C   UNL     1      49.195   6.949  15.935  0.00  0.00    +0.000 C 
ATOM     19  N   UNL     1      48.120   7.339  15.179  0.00  0.00    +0.000 N 
ATOM     20  H   UNL     1      47.299   7.716  15.639  0.00  0.00    +0.000 HD
BRANCH  18  21
ATOM     21  C   UNL     1      48.979   6.913  17.385  0.00  0.00    +0.000 A 
ATOM     22  C   UNL     1      48.836   8.097  18.095  0.00  0.00    +0.000 A 
ATOM     23  S   UNL     1      48.607   7.865  19.770  0.00  0.00    +0.000 S 
ATOM     24  C   UNL     1      48.646   6.172  19.596  0.00  0.00    +0.000 A 
ATOM     25  N   UNL     1      48.480   5.353  20.670  0.00  0.00    +0.000 NA
ATOM     26  C   UNL     1      48.488   4.093  20.387  0.00  0.00    +0.000 A 
ATOM     27  N   UNL     1      48.652   3.577  19.127  0.00  0.00    +0.000 N 
ATOM     28  C   UNL     1      48.882   4.363  18.024  0.00  0.00    +0.000 A 
ATOM     29  O   UNL     1      49.128   3.865  16.929  0.00  0.00    +0.000 OA
ATOM     30  C   UNL     1      48.851   5.790  18.283  0.00  0.00    +0.000 A 
ATOM     31  H   UNL     1      48.669   2.579  18.977  0.00  0.00    +0.000 HD
ENDBRANCH  18  21
ENDBRANCH   1  19
TORSDOF 6
ENDMDL
MODEL 5
REMARK VINA RESULT:    -6.962      3.285      8.561
REMARK INTER + INTRA:         -10.541
REMARK INTER:                  -9.111
REMARK INTRA:                  -1.430
REMARK UNBOUND:                -1.136
REMARK  Name = 
REMARK  6 active torsions:
REMARK  status: ('A' for Active; 'I' for Inactive)
REMARK    1  A    between atoms: C_2  and  C_19
REMARK    2  A    between atoms: N_3  and  C_4
REMARK    3  A    between atoms: C_4  and  C_5
REMARK    4  A    between atoms: C_8  and  O_9
REMARK    5  A    between atoms: O_9  and  C_10
REMARK    6  A    between atoms: C_10  and  C_11
REMARK                            x       y       z     vdW  Elec       q    Type
REMARK                         _______ _______ _______ _____ _____    ______ ____
ROOT
ATOM      1  C   UNL     1      48.183   8.003  12.163  0.00  0.00    +0.000 C 
ENDROOT
BRANCH   1   2
ATOM      2  C   UNL     1      48.434   7.827  13.629  0.00  0.00    +0.000 A 
ATOM      3  C   UNL     1      48.534   8.921  14.493  0.00  0.00    +0.000 A 
ATOM      4  C   UNL     1      48.785   8.713  15.847  0.00  0.00    +0.000 A 
ATOM      5  C   UNL     1      48.895   7.409  16.300  0.00  0.00    +0.000 A 
ATOM      6  N   UNL     1      48.790   6.330  15.497  0.00  0.00    +0.000 NA
ATOM      7  C   UNL     1      48.562   6.560  14.188  0.00  0.00    +0.000 A 
BRANCH   5   8
ATOM      8  O   UNL     1      49.168   7.234  17.645  0.00  0.00    +0.000 OA
BRANCH   8   9
ATOM      9  C   UNL     1      49.960   6.064  17.882  0.00  0.00    +0.000 C 
BRANCH   9  10
ATOM     10  C   UNL     1      49.262   5.160  18.912  0.00  0.00    +0.000 C 
ATOM     11  C   UNL     1      49.462   3.664  18.614  0.00  0.00    +0.000 C 
ATOM     12  C   UNL     1      48.678   3.226  17.378  0.00  0.00    +0.000 C 
ATOM     13  C   UNL     1      47.214   3.658  17.459  0.00  0.00    +0.000 C 
ATOM     14  N   UNL     1      47.072   5.089  17.731  0.00  0.00    +0.000 NA
ATOM     15  C   UNL     1      47.758   5.472  18.966  0.00  0.00    +0.000 C 
ATOM     16  H   UNL     1      46.082   5.321  17.805  0.00  0.00    +0.000 HD
ENDBRANCH   9  10
ENDBRANCH   8   9
ENDBRANCH   5   8
ENDBRANCH   1   2
BRANCH   1  19
ATOM     17  O   UNL     1      45.392   7.786  11.849  0.00  0.00    +0.000 OA
ATOM     18  C   UNL     1      46.111   6.881  11.437  0.00  0.00    +0.000 C 
ATOM     19  N   UNL     1      47.472   6.887  11.595  0.00  0.00    +0.000 N 
ATOM     20  H   UNL     1      48.030   6.178  11.133  0.00  0.00    +0.000 HD
BRANCH  18  21
ATOM     21  C   UNL     1      45.549   5.701  10.771  0.00  0.00    +0.000 A 
ATOM     22  C   UNL     1      45.774   5.495   9.417  0.00  0.00    +0.000 A 
ATOM     23  S   UNL     1      45.034   4.082   8.810  0.00  0.00    +0.000 S 
ATOM     24  C   UNL     1      44.424   3.675  10.346  0.00  0.00    +0.000 A 
ATOM     25  N   UNL     1      43.701   2.539  10.536  0.00  0.00    +0.000 NA
ATOM     26  C   UNL     1      43.340   2.332  11.758  0.00  0.00    +0.000 A 
ATOM     27  N   UNL     1      43.632   3.162  12.809  0.00  0.00    +0.000 N 
ATOM     28  C   UNL     1      44.306   4.349  12.656  0.00  0.00    +0.000 A 
ATOM     29  O   UNL     1      44.461   5.119  13.599  0.00  0.00    +0.000 OA
ATOM     30  C   UNL     1      44.764   4.613  11.305  0.00  0.00    +0.000 A 
ATOM     31  H   UNL     1      43.301   2.953  13.739  0.00  0.00    +0.000 HD
ENDBRANCH  18  21
ENDBRANCH   1  19
TORSDOF 6
ENDMDL
MODEL 6
REMARK VINA RESULT:    -6.875      4.060      9.197
REMARK INTER + INTRA:         -10.422
REMARK INTER:                  -9.116
REMARK INTRA:                  -1.306
REMARK UNBOUND:                -1.136
REMARK  Name = 
REMARK  6 active torsions:
REMARK  status: ('A' for Active; 'I' for Inactive)
REMARK    1  A    between atoms: C_2  and  C_19
REMARK    2  A    between atoms: N_3  and  C_4
REMARK    3  A    between atoms: C_4  and  C_5
REMARK    4  A    between atoms: C_8  and  O_9
REMARK    5  A    between atoms: O_9  and  C_10
REMARK    6  A    between atoms: C_10  and  C_11
REMARK                            x       y       z     vdW  Elec       q    Type
REMARK                         _______ _______ _______ _____ _____    ______ ____
ROOT
ATOM      1  C   UNL     1      47.119   3.455  16.941  0.00  0.00    +0.000 C 
ENDROOT
BRANCH   1   2
ATOM      2  C   UNL     1      48.595   3.307  17.150  0.00  0.00    +0.000 A 
ATOM      3  C   UNL     1      49.258   2.106  16.879  0.00  0.00    +0.000 A 
ATOM      4  C   UNL     1      50.628   2.006  17.104  0.00  0.00    +0.000 A 
ATOM      5  C   UNL     1      51.300   3.125  17.563  0.00  0.00    +0.000 A 
ATOM      6  N   UNL     1      50.695   4.304  17.822  0.00  0.00    +0.000 NA
ATOM      7  C   UNL     1      49.365   4.369  17.610  0.00  0.00    +0.000 A 
BRANCH   5   8
ATOM      8  O   UNL     1      52.656   2.989  17.800  0.00  0.00    +0.000 OA
BRANCH   8   9
ATOM      9  C   UNL     1      53.048   3.602  19.035  0.00  0.00    +0.000 C 
BRANCH   9  10
ATOM     10  C   UNL     1      54.323   4.436  18.822  0.00  0.00    +0.000 C 
ATOM     11  C   UNL     1      54.355   5.698  19.702  0.00  0.00    +0.000 C 
ATOM     12  C   UNL     1      53.338   6.737  19.232  0.00  0.00    +0.000 C 
ATOM     13  C   UNL     1      53.469   7.014  17.734  0.00  0.00    +0.000 C 
ATOM     14  N   UNL     1      53.421   5.788  16.937  0.00  0.00    +0.000 NA
ATOM     15  C   UNL     1      54.459   4.840  17.346  0.00  0.00    +0.000 C 
ATOM     16  H   UNL     1      53.542   6.021  15.952  0.00  0.00    +0.000 HD
ENDBRANCH   9  10
ENDBRANCH   8   9
ENDBRANCH   5   8
ENDBRANCH   1   2
BRANCH   1  19
ATOM     17  O   UNL     1      47.250   3.068  14.154  0.00  0.00    +0.000 OA
ATOM     18  C   UNL     1      46.855   4.145  14.588  0.00  0.00    +0.000 C 
ATOM     19  N   UNL     1      46.809   4.430  15.928  0.00  0.00    +0.000 N 
ATOM     20  H   UNL     1      46.364   5.286  16.240  0.00  0.00    +0.000 HD
BRANCH  18  21
ATOM     21  C   UNL     1      46.436   5.225  13.689  0.00  0.00    +0.000 A 
ATOM     22  C   UNL     1      47.294   6.285  13.429  0.00  0.00    +0.000 A 
ATOM     23  S   UNL     1      46.635   7.453  12.375  0.00  0.00    +0.000 S 
ATOM     24  C   UNL     1      45.198   6.559  12.193  0.00  0.00    +0.000 A 
ATOM     25  N   UNL     1      44.197   6.997  11.382  0.00  0.00    +0.000 NA
ATOM     26  C   UNL     1      43.185   6.199  11.304  0.00  0.00    +0.000 A 
ATOM     27  N   UNL     1      43.080   5.005  11.967  0.00  0.00    +0.000 N 
ATOM     28  C   UNL     1      44.037   4.551  12.842  0.00  0.00    +0.000 A 
ATOM     29  O   UNL     1      43.865   3.528  13.499  0.00  0.00    +0.000 OA
ATOM     30  C   UNL     1      45.212   5.396  12.942  0.00  0.00    +0.000 A 
ATOM     31  H   UNL     1      42.250   4.436  11.879  0.00  0.00    +0.000 HD
ENDBRANCH  18  21
ENDBRANCH   1  19
TORSDOF 6
ENDMDL
MODEL 7
REMARK VINA RESULT:    -6.658      3.856      9.380
REMARK INTER + INTRA:         -10.129
REMARK INTER:                  -8.811
REMARK INTRA:                  -1.318
REMARK UNBOUND:                -1.136
REMARK  Name = 
REMARK  6 active torsions:
REMARK  status: ('A' for Active; 'I' for Inactive)
REMARK    1  A    between atoms: C_2  and  C_19
REMARK    2  A    between atoms: N_3  and  C_4
REMARK    3  A    between atoms: C_4  and  C_5
REMARK    4  A    between atoms: C_8  and  O_9
REMARK    5  A    between atoms: O_9  and  C_10
REMARK    6  A    between atoms: C_10  and  C_11
REMARK                            x       y       z     vdW  Elec       q    Type
REMARK                         _______ _______ _______ _____ _____    ______ ____
ROOT
ATOM      1  C   UNL     1      47.055   3.490  16.827  0.00  0.00    +0.000 C 
ENDROOT
BRANCH   1   2
ATOM      2  C   UNL     1      48.237   3.939  17.630  0.00  0.00    +0.000 A 
ATOM      3  C   UNL     1      48.124   4.923  18.616  0.00  0.00    +0.000 A 
ATOM      4  C   UNL     1      49.252   5.324  19.327  0.00  0.00    +0.000 A 
ATOM      5  C   UNL     1      50.457   4.699  19.051  0.00  0.00    +0.000 A 
ATOM      6  N   UNL     1      50.599   3.736  18.116  0.00  0.00    +0.000 NA
ATOM      7  C   UNL     1      49.495   3.378  17.431  0.00  0.00    +0.000 A 
BRANCH   5   8
ATOM      8  O   UNL     1      51.565   5.134  19.756  0.00  0.00    +0.000 OA
BRANCH   8   9
ATOM      9  C   UNL     1      52.626   5.544  18.885  0.00  0.00    +0.000 C 
BRANCH   9  10
ATOM     10  C   UNL     1      53.968   5.000  19.406  0.00  0.00    +0.000 C 
ATOM     11  C   UNL     1      54.944   4.653  18.269  0.00  0.00    +0.000 C 
ATOM     12  C   UNL     1      54.493   3.411  17.500  0.00  0.00    +0.000 C 
ATOM     13  C   UNL     1      54.189   2.246  18.441  0.00  0.00    +0.000 C 
ATOM     14  N   UNL     1      53.248   2.618  19.498  0.00  0.00    +0.000 NA
ATOM     15  C   UNL     1      53.739   3.756  20.279  0.00  0.00    +0.000 C 
ATOM     16  H   UNL     1      53.101   1.820  20.115  0.00  0.00    +0.000 HD
ENDBRANCH   9  10
ENDBRANCH   8   9
ENDBRANCH   5   8
ENDBRANCH   1   2
BRANCH   1  19
ATOM     17  O   UNL     1      47.309   3.183  14.039  0.00  0.00    +0.000 OA
ATOM     18  C   UNL     1      46.796   4.206  14.481  0.00  0.00    +0.000 C 
ATOM     19  N   UNL     1      46.681   4.453  15.824  0.00  0.00    +0.000 N 
ATOM     20  H   UNL     1      46.143   5.254  16.139  0.00  0.00    +0.000 HD
BRANCH  18  21
ATOM     21  C   UNL     1      46.299   5.260  13.591  0.00  0.00    +0.000 A 
ATOM     22  C   UNL     1      47.103   6.350  13.290  0.00  0.00    +0.000 A 
ATOM     23  S   UNL     1      46.358   7.481  12.253  0.00  0.00    +0.000 S 
ATOM     24  C   UNL     1      44.952   6.530  12.134  0.00  0.00    +0.000 A 
ATOM     25  N   UNL     1      43.904   6.920  11.360  0.00  0.00    +0.000 NA
ATOM     26  C   UNL     1      42.922   6.082  11.327  0.00  0.00    +0.000 A 
ATOM     27  N   UNL     1      42.891   4.890  12.003  0.00  0.00    +0.000 N 
ATOM     28  C   UNL     1      43.899   4.483  12.843  0.00  0.00    +0.000 A 
ATOM     29  O   UNL     1      43.794   3.460  13.514  0.00  0.00    +0.000 OA
ATOM     30  C   UNL     1      45.042   5.375  12.891  0.00  0.00    +0.000 A 
ATOM     31  H   UNL     1      42.082   4.288  11.952  0.00  0.00    +0.000 HD
ENDBRANCH  18  21
ENDBRANCH   1  19
TORSDOF 6
ENDMDL
MODEL 8
REMARK VINA RESULT:    -6.390      3.050      9.145
REMARK INTER + INTRA:          -9.767
REMARK INTER:                  -8.619
REMARK INTRA:                  -1.148
REMARK UNBOUND:                -1.136
REMARK  Name = 
REMARK  6 active torsions:
REMARK  status: ('A' for Active; 'I' for Inactive)
REMARK    1  A    between atoms: C_2  and  C_19
REMARK    2  A    between atoms: N_3  and  C_4
REMARK    3  A    between atoms: C_4  and  C_5
REMARK    4  A    between atoms: C_8  and  O_9
REMARK    5  A    between atoms: O_9  and  C_10
REMARK    6  A    between atoms: C_10  and  C_11
REMARK                            x       y       z     vdW  Elec       q    Type
REMARK                         _______ _______ _______ _____ _____    ______ ____
ROOT
ATOM      1  C   UNL     1      47.031   8.001  13.412  0.00  0.00    +0.000 C 
ENDROOT
BRANCH   1   2
ATOM      2  C   UNL     1      48.081   7.776  14.456  0.00  0.00    +0.000 A 
ATOM      3  C   UNL     1      48.667   8.840  15.149  0.00  0.00    +0.000 A 
ATOM      4  C   UNL     1      49.652   8.587  16.100  0.00  0.00    +0.000 A 
ATOM      5  C   UNL     1      49.996   7.270  16.353  0.00  0.00    +0.000 A 
ATOM      6  N   UNL     1      49.441   6.219  15.714  0.00  0.00    +0.000 NA
ATOM      7  C   UNL     1      48.501   6.492  14.787  0.00  0.00    +0.000 A 
BRANCH   5   8
ATOM      8  O   UNL     1      50.994   7.051  17.286  0.00  0.00    +0.000 OA
BRANCH   8   9
ATOM      9  C   UNL     1      51.701   5.831  17.037  0.00  0.00    +0.000 C 
BRANCH   9  10
ATOM     10  C   UNL     1      51.701   4.959  18.304  0.00  0.00    +0.000 C 
ATOM     11  C   UNL     1      51.663   3.455  17.985  0.00  0.00    +0.000 C 
ATOM     12  C   UNL     1      50.302   3.031  17.433  0.00  0.00    +0.000 C 
ATOM     13  C   UNL     1      49.158   3.511  18.328  0.00  0.00    +0.000 C 
ATOM     14  N   UNL     1      49.228   4.948  18.594  0.00  0.00    +0.000 NA
ATOM     15  C   UNL     1      50.507   5.319  19.203  0.00  0.00    +0.000 C 
ATOM     16  H   UNL     1      48.466   5.212  19.217  0.00  0.00    +0.000 HD
ENDBRANCH   9  10
ENDBRANCH   8   9
ENDBRANCH   5   8
ENDBRANCH   1   2
BRANCH   1  19
ATOM     17  O   UNL     1      45.086   7.700  11.397  0.00  0.00    +0.000 OA
ATOM     18  C   UNL     1      45.423   6.719  12.052  0.00  0.00    +0.000 C 
ATOM     19  N   UNL     1      46.325   6.791  13.081  0.00  0.00    +0.000 N 
ATOM     20  H   UNL     1      46.659   5.936  13.512  0.00  0.00    +0.000 HD
BRANCH  18  21
ATOM     21  C   UNL     1      44.847   5.394  11.797  0.00  0.00    +0.000 A 
ATOM     22  C   UNL     1      44.094   4.764  12.778  0.00  0.00    +0.000 A 
ATOM     23  S   UNL     1      43.517   3.227  12.313  0.00  0.00    +0.000 S 
ATOM     24  C   UNL     1      44.215   3.371  10.768  0.00  0.00    +0.000 A 
ATOM     25  N   UNL     1      44.073   2.388   9.839  0.00  0.00    +0.000 NA
ATOM     26  C   UNL     1      44.616   2.648   8.697  0.00  0.00    +0.000 A 
ATOM     27  N   UNL     1      45.294   3.802   8.400  0.00  0.00    +0.000 N 
ATOM     28  C   UNL     1      45.515   4.795   9.323  0.00  0.00    +0.000 A 
ATOM     29  O   UNL     1      46.214   5.768   9.056  0.00  0.00    +0.000 OA
ATOM     30  C   UNL     1      44.896   4.566  10.616  0.00  0.00    +0.000 A 
ATOM     31  H   UNL     1      45.714   3.935   7.491  0.00  0.00    +0.000 HD
ENDBRANCH  18  21
ENDBRANCH   1  19
TORSDOF 6
ENDMDL
MODEL 9
REMARK VINA RESULT:    -6.376      3.308      4.085
REMARK INTER + INTRA:          -9.749
REMARK INTER:                  -8.302
REMARK INTRA:                  -1.447
REMARK UNBOUND:                -1.136
REMARK  Name = 
REMARK  6 active torsions:
REMARK  status: ('A' for Active; 'I' for Inactive)
REMARK    1  A    between atoms: C_2  and  C_19
REMARK    2  A    between atoms: N_3  and  C_4
REMARK    3  A    between atoms: C_4  and  C_5
REMARK    4  A    between atoms: C_8  and  O_9
REMARK    5  A    between atoms: O_9  and  C_10
REMARK    6  A    between atoms: C_10  and  C_11
REMARK                            x       y       z     vdW  Elec       q    Type
REMARK                         _______ _______ _______ _____ _____    ______ ____
ROOT
ATOM      1  C   UNL     1      49.905   8.375  13.294  0.00  0.00    +0.000 C 
ENDROOT
BRANCH   1   2
ATOM      2  C   UNL     1      48.510   7.848  13.145  0.00  0.00    +0.000 A 
ATOM      3  C   UNL     1      48.261   6.510  12.826  0.00  0.00    +0.000 A 
ATOM      4  C   UNL     1      46.949   6.067  12.680  0.00  0.00    +0.000 A 
ATOM      5  C   UNL     1      45.924   6.972  12.893  0.00  0.00    +0.000 A 
ATOM      6  N   UNL     1      46.128   8.267  13.216  0.00  0.00    +0.000 NA
ATOM      7  C   UNL     1      47.408   8.674  13.335  0.00  0.00    +0.000 A 
BRANCH   5   8
ATOM      8  O   UNL     1      44.632   6.509  12.718  0.00  0.00    +0.000 OA
BRANCH   8   9
ATOM      9  C   UNL     1      44.467   5.180  13.226  0.00  0.00    +0.000 C 
BRANCH   9  10
ATOM     10  C   UNL     1      43.268   4.503  12.538  0.00  0.00    +0.000 C 
ATOM     11  C   UNL     1      43.613   3.105  11.996  0.00  0.00    +0.000 C 
ATOM     12  C   UNL     1      44.539   3.184  10.784  0.00  0.00    +0.000 C 
ATOM     13  C   UNL     1      44.003   4.150   9.728  0.00  0.00    +0.000 C 
ATOM     14  N   UNL     1      43.701   5.469  10.285  0.00  0.00    +0.000 NA
ATOM     15  C   UNL     1      42.745   5.380  11.390  0.00  0.00    +0.000 C 
ATOM     16  H   UNL     1      43.319   6.066   9.552  0.00  0.00    +0.000 HD
ENDBRANCH   9  10
ENDBRANCH   8   9
ENDBRANCH   5   8
ENDBRANCH   1   2
BRANCH   1  19
ATOM     17  O   UNL     1      51.124   9.142  15.714  0.00  0.00    +0.000 OA
ATOM     18  C   UNL     1      51.234   7.981  15.333  0.00  0.00    +0.000 C 
ATOM     19  N   UNL     1      50.713   7.540  14.145  0.00  0.00    +0.000 N 
ATOM     20  H   UNL     1      50.726   6.549  13.933  0.00  0.00    +0.000 HD
BRANCH  18  21
ATOM     21  C   UNL     1      51.970   6.985  16.119  0.00  0.00    +0.000 A 
ATOM     22  C   UNL     1      53.336   7.130  16.319  0.00  0.00    +0.000 A 
ATOM     23  S   UNL     1      54.027   5.872  17.242  0.00  0.00    +0.000 S 
ATOM     24  C   UNL     1      52.516   5.115  17.444  0.00  0.00    +0.000 A 
ATOM     25  N   UNL     1      52.395   3.973  18.174  0.00  0.00    +0.000 NA
ATOM     26  C   UNL     1      51.186   3.533  18.282  0.00  0.00    +0.000 A 
ATOM     27  N   UNL     1      50.086   4.128  17.720  0.00  0.00    +0.000 N 
ATOM     28  C   UNL     1      50.167   5.246  16.926  0.00  0.00    +0.000 A 
ATOM     29  O   UNL     1      49.177   5.694  16.355  0.00  0.00    +0.000 OA
ATOM     30  C   UNL     1      51.502   5.801  16.800  0.00  0.00    +0.000 A 
ATOM     31  H   UNL     1      49.169   3.720  17.826  0.00  0.00    +0.000 HD
ENDBRANCH  18  21
ENDBRANCH   1  19
TORSDOF 6
ENDMDL
