MODEL 1
REMARK VINA RESULT:    -7.507      0.000      0.000
REMARK INTER + INTRA:         -11.916
REMARK INTER:                 -11.237
REMARK INTRA:                  -0.679
REMARK UNBOUND:                -0.679
REMARK  Name = 
REMARK  10 active torsions:
REMARK  status: ('A' for Active; 'I' for Inactive)
REMARK    1  A    between atoms: C_1  and  C_2
REMARK    2  A    between atoms: C_2  and  O_3
REMARK    3  A    between atoms: O_3  and  C_4
REMARK    4  A    between atoms: C_6  and  C_7
REMARK    5  A    between atoms: C_12  and  N_13
REMARK    6  A    between atoms: N_13  and  C_14
REMARK    7  A    between atoms: C_14  and  C_15
REMARK    8  A    between atoms: C_15  and  C_16
REMARK    9  A    between atoms: C_20  and  C_21
REMARK   10  A    between atoms: C_21  and  N_22
REMARK                            x       y       z     vdW  Elec       q    Type
REMARK                         _______ _______ _______ _____ _____    ______ ____
ROOT
ATOM      1  C   UNL     1      46.763   4.592  13.996  0.00  0.00    +0.000 A 
ATOM      2  N   UNL     1      47.402   5.753  14.291  0.00  0.00    +0.000 NA
ATOM      3  C   UNL     1      47.207   6.750  13.394  0.00  0.00    +0.000 A 
ATOM      4  C   UNL     1      46.428   6.592  12.260  0.00  0.00    +0.000 A 
ATOM      5  N   UNL     1      45.790   5.427  11.969  0.00  0.00    +0.000 NA
ATOM      6  C   UNL     1      45.956   4.403  12.842  0.00  0.00    +0.000 A 
ENDROOT
BRANCH   3   7
ATOM      7  C   UNL     1      47.874   8.050  13.677  0.00  0.00    +0.000 C 
ATOM      8  N   UNL     1      47.259   8.844  14.610  0.00  0.00    +0.000 N 
ATOM      9  O   UNL     1      48.906   8.398  13.117  0.00  0.00    +0.000 OA
ATOM     10  H   UNL     1      46.407   8.529  15.061  0.00  0.00    +0.000 HD
ATOM     11  H   UNL     1      47.665   9.734  14.854  0.00  0.00    +0.000 HD
ENDBRANCH   3   7
BRANCH   6  12
ATOM     12  N   UNL     1      45.220   3.262  12.533  0.00  0.00    +0.000 N 
ATOM     13  H   UNL     1      45.056   2.765  13.405  0.00  0.00    +0.000 HD
BRANCH  12  14
ATOM     14  C   UNL     1      44.073   3.376  11.637  0.00  0.00    +0.000 C 
BRANCH  14  15
ATOM     15  C   UNL     1      44.086   2.297  10.549  0.00  0.00    +0.000 C 
BRANCH  15  16
ATOM     16  C   UNL     1      44.956   2.729   9.387  0.00  0.00    +0.000 A 
ATOM     17  C   UNL     1      45.037   4.079   9.027  0.00  0.00    +0.000 A 
ATOM     18  C   UNL     1      45.890   4.484   7.998  0.00  0.00    +0.000 A 
ATOM     19  C   UNL     1      46.675   3.547   7.323  0.00  0.00    +0.000 A 
ATOM     20  C   UNL     1      46.619   2.192   7.671  0.00  0.00    +0.000 A 
ATOM     21  C   UNL     1      45.752   1.795   8.704  0.00  0.00    +0.000 A 
BRANCH  20  22
ATOM     22  C   UNL     1      47.453   1.173   6.935  0.00  0.00    +0.000 C 
BRANCH  22  23
ATOM     23  N   UNL     1      48.405   1.802   6.025  0.00  0.00    +0.000 NA
ATOM     24  H   UNL     1      48.274   2.812   6.066  0.00  0.00    +0.000 HD
ATOM     25  H   UNL     1      48.187   1.522   5.072  0.00  0.00    +0.000 HD
ENDBRANCH  22  23
ENDBRANCH  20  22
ENDBRANCH  15  16
ENDBRANCH  14  15
ENDBRANCH  12  14
ENDBRANCH   6  12
BRANCH   1  26
ATOM     26  O   UNL     1      46.990   3.519  14.826  0.00  0.00    +0.000 OA
BRANCH  26  28
ATOM     27  C   UNL     1      48.307   2.781  16.645  0.00  0.00    +0.000 C 
ATOM     28  C   UNL     1      47.362   3.863  16.155  0.00  0.00    +0.000 C 
ENDBRANCH  26  28
ENDBRANCH   1  26
TORSDOF 9
ENDMDL
MODEL 2
REMARK VINA RESULT:    -7.411      1.897      3.435
REMARK INTER + INTRA:         -11.773
REMARK INTER:                 -11.105
REMARK INTRA:                  -0.667
REMARK UNBOUND:                -0.679
REMARK  Name = 
REMARK  10 active torsions:
REMARK  status: ('A' for Active; 'I' for Inactive)
REMARK    1  A    between atoms: C_1  and  C_2
REMARK    2  A    between atoms: C_2  and  O_3
REMARK    3  A    between atoms: O_3  and  C_4
REMARK    4  A    between atoms: C_6  and  C_7
REMARK    5  A    between atoms: C_12  and  N_13
REMARK    6  A    between atoms: N_13  and  C_14
REMARK    7  A    between atoms: C_14  and  C_15
REMARK    8  A    between atoms: C_15  and  C_16
REMARK    9  A    between atoms: C_20  and  C_21
REMARK   10  A    between atoms: C_21  and  N_22
REMARK                            x       y       z     vdW  Elec       q    Type
REMARK                         _______ _______ _______ _____ _____    ______ ____
ROOT
ATOM      1  C   UNL     1      45.357   4.704  12.886  0.00  0.00    +0.000 A 
ATOM      2  N   UNL     1      45.821   4.208  14.061  0.00  0.00    +0.000 NA
ATOM      3  C   UNL     1      46.974   4.773  14.498  0.00  0.00    +0.000 A 
ATOM      4  C   UNL     1      47.630   5.768  13.793  0.00  0.00    +0.000 A 
ATOM      5  N   UNL     1      47.160   6.261  12.616  0.00  0.00    +0.000 NA
ATOM      6  C   UNL     1      46.008   5.725  12.145  0.00  0.00    +0.000 A 
ENDROOT
BRANCH   3   7
ATOM      7  C   UNL     1      47.520   4.275  15.790  0.00  0.00    +0.000 C 
ATOM      8  N   UNL     1      47.461   5.155  16.839  0.00  0.00    +0.000 N 
ATOM      9  O   UNL     1      47.995   3.153  15.917  0.00  0.00    +0.000 OA
ATOM     10  H   UNL     1      47.060   6.076  16.706  0.00  0.00    +0.000 HD
ATOM     11  H   UNL     1      47.808   4.876  17.744  0.00  0.00    +0.000 HD
ENDBRANCH   3   7
BRANCH   6  12
ATOM     12  N   UNL     1      45.535   6.321  10.977  0.00  0.00    +0.000 N 
ATOM     13  H   UNL     1      45.703   7.320  11.062  0.00  0.00    +0.000 HD
BRANCH  12  14
ATOM     14  C   UNL     1      45.870   5.723   9.688  0.00  0.00    +0.000 C 
BRANCH  14  15
ATOM     15  C   UNL     1      44.799   4.729   9.223  0.00  0.00    +0.000 C 
BRANCH  15  16
ATOM     16  C   UNL     1      45.445   3.516   8.589  0.00  0.00    +0.000 A 
ATOM     17  C   UNL     1      45.292   2.249   9.164  0.00  0.00    +0.000 A 
ATOM     18  C   UNL     1      45.833   1.122   8.542  0.00  0.00    +0.000 A 
ATOM     19  C   UNL     1      46.527   1.247   7.337  0.00  0.00    +0.000 A 
ATOM     20  C   UNL     1      46.686   2.502   6.736  0.00  0.00    +0.000 A 
ATOM     21  C   UNL     1      46.142   3.630   7.375  0.00  0.00    +0.000 A 
BRANCH  20  22
ATOM     22  C   UNL     1      47.448   2.645   5.442  0.00  0.00    +0.000 C 
BRANCH  22  23
ATOM     23  N   UNL     1      48.638   1.802   5.413  0.00  0.00    +0.000 NA
ATOM     24  H   UNL     1      49.423   2.360   5.081  0.00  0.00    +0.000 HD
ATOM     25  H   UNL     1      48.502   1.059   4.731  0.00  0.00    +0.000 HD
ENDBRANCH  22  23
ENDBRANCH  20  22
ENDBRANCH  15  16
ENDBRANCH  14  15
ENDBRANCH  12  14
ENDBRANCH   6  12
BRANCH   1  26
ATOM     26  O   UNL     1      44.236   4.112  12.352  0.00  0.00    +0.000 OA
BRANCH  26  28
ATOM     27  C   UNL     1      42.353   5.469  11.898  0.00  0.00    +0.000 C 
ATOM     28  C   UNL     1      43.006   4.550  12.916  0.00  0.00    +0.000 C 
ENDBRANCH  26  28
ENDBRANCH   1  26
TORSDOF 9
ENDMDL
MODEL 3
REMARK VINA RESULT:    -7.160      1.648      2.730
REMARK INTER + INTRA:         -11.396
REMARK INTER:                 -10.547
REMARK INTRA:                  -0.849
REMARK UNBOUND:                -0.679
REMARK  Name = 
REMARK  10 active torsions:
REMARK  status: ('A' for Active; 'I' for Inactive)
REMARK    1  A    between atoms: C_1  and  C_2
REMARK    2  A    between atoms: C_2  and  O_3
REMARK    3  A    between atoms: O_3  and  C_4
REMARK    4  A    between atoms: C_6  and  C_7
REMARK    5  A    between atoms: C_12  and  N_13
REMARK    6  A    between atoms: N_13  and  C_14
REMARK    7  A    between atoms: C_14  and  C_15
REMARK    8  A    between atoms: C_15  and  C_16
REMARK    9  A    between atoms: C_20  and  C_21
REMARK   10  A    between atoms: C_21  and  N_22
REMARK                            x       y       z     vdW  Elec       q    Type
REMARK                         _______ _______ _______ _____ _____    ______ ____
ROOT
ATOM      1  C   UNL     1      46.890   5.422  12.889  0.00  0.00    +0.000 A 
ATOM      2  N   UNL     1      47.697   6.228  13.625  0.00  0.00    +0.000 NA
ATOM      3  C   UNL     1      47.952   5.779  14.879  0.00  0.00    +0.000 A 
ATOM      4  C   UNL     1      47.419   4.600  15.371  0.00  0.00    +0.000 A 
ATOM      5  N   UNL     1      46.610   3.797  14.629  0.00  0.00    +0.000 NA
ATOM      6  C   UNL     1      46.333   4.207  13.367  0.00  0.00    +0.000 A 
ENDROOT
BRANCH   3   7
ATOM      7  C   UNL     1      48.843   6.618  15.726  0.00  0.00    +0.000 C 
ATOM      8  N   UNL     1      48.214   7.546  16.514  0.00  0.00    +0.000 N 
ATOM      9  O   UNL     1      50.062   6.496  15.724  0.00  0.00    +0.000 OA
ATOM     10  H   UNL     1      47.203   7.623  16.499  0.00  0.00    +0.000 HD
ATOM     11  H   UNL     1      48.761   8.141  17.118  0.00  0.00    +0.000 HD
ENDBRANCH   3   7
BRANCH   6  12
ATOM     12  N   UNL     1      45.564   3.309  12.630  0.00  0.00    +0.000 N 
ATOM     13  H   UNL     1      45.650   2.401  13.079  0.00  0.00    +0.000 HD
BRANCH  12  14
ATOM     14  C   UNL     1      44.216   3.695  12.222  0.00  0.00    +0.000 C 
BRANCH  14  15
ATOM     15  C   UNL     1      43.700   2.834  11.063  0.00  0.00    +0.000 C 
BRANCH  15  16
ATOM     16  C   UNL     1      44.558   3.038   9.832  0.00  0.00    +0.000 A 
ATOM     17  C   UNL     1      44.741   4.319   9.300  0.00  0.00    +0.000 A 
ATOM     18  C   UNL     1      45.585   4.514   8.205  0.00  0.00    +0.000 A 
ATOM     19  C   UNL     1      46.260   3.434   7.634  0.00  0.00    +0.000 A 
ATOM     20  C   UNL     1      46.101   2.143   8.154  0.00  0.00    +0.000 A 
ATOM     21  C   UNL     1      45.244   1.958   9.252  0.00  0.00    +0.000 A 
BRANCH  20  22
ATOM     22  C   UNL     1      46.816   0.969   7.531  0.00  0.00    +0.000 C 
BRANCH  22  23
ATOM     23  N   UNL     1      47.996   1.385   6.781  0.00  0.00    +0.000 NA
ATOM     24  H   UNL     1      48.108   2.392   6.883  0.00  0.00    +0.000 HD
ATOM     25  H   UNL     1      47.838   1.211   5.791  0.00  0.00    +0.000 HD
ENDBRANCH  22  23
ENDBRANCH  20  22
ENDBRANCH  15  16
ENDBRANCH  14  15
ENDBRANCH  12  14
ENDBRANCH   6  12
BRANCH   1  26
ATOM     26  O   UNL     1      46.530   5.866  11.637  0.00  0.00    +0.000 OA
BRANCH  26  28
ATOM     27  C   UNL     1      44.686   7.346  11.594  0.00  0.00    +0.000 C 
ATOM     28  C   UNL     1      46.201   7.248  11.568  0.00  0.00    +0.000 C 
ENDBRANCH  26  28
ENDBRANCH   1  26
TORSDOF 9
ENDMDL
MODEL 4
REMARK VINA RESULT:    -6.815      1.437      3.364
REMARK INTER + INTRA:         -10.881
REMARK INTER:                 -10.174
REMARK INTRA:                  -0.707
REMARK UNBOUND:                -0.679
REMARK  Name = 
REMARK  10 active torsions:
REMARK  status: ('A' for Active; 'I' for Inactive)
REMARK    1  A    between atoms: C_1  and  C_2
REMARK    2  A    between atoms: C_2  and  O_3
REMARK    3  A    between atoms: O_3  and  C_4
REMARK    4  A    between atoms: C_6  and  C_7
REMARK    5  A    between atoms: C_12  and  N_13
REMARK    6  A    between atoms: N_13  and  C_14
REMARK    7  A    between atoms: C_14  and  C_15
REMARK    8  A    between atoms: C_15  and  C_16
REMARK    9  A    between atoms: C_20  and  C_21
REMARK   10  A    between atoms: C_21  and  N_22
REMARK                            x       y       z     vdW  Elec       q    Type
REMARK                         _______ _______ _______ _____ _____    ______ ____
ROOT
ATOM      1  C   UNL     1      47.112   6.153  12.945  0.00  0.00    +0.000 A 
ATOM      2  N   UNL     1      47.630   5.891  14.171  0.00  0.00    +0.000 NA
ATOM      3  C   UNL     1      47.200   4.734  14.732  0.00  0.00    +0.000 A 
ATOM      4  C   UNL     1      46.293   3.895  14.107  0.00  0.00    +0.000 A 
ATOM      5  N   UNL     1      45.776   4.163  12.878  0.00  0.00    +0.000 NA
ATOM      6  C   UNL     1      46.183   5.309  12.280  0.00  0.00    +0.000 A 
ENDROOT
BRANCH   3   7
ATOM      7  C   UNL     1      47.749   4.391  16.072  0.00  0.00    +0.000 C 
ATOM      8  N   UNL     1      46.972   3.560  16.838  0.00  0.00    +0.000 N 
ATOM      9  O   UNL     1      48.824   4.819  16.475  0.00  0.00    +0.000 OA
ATOM     10  H   UNL     1      46.089   3.218  16.478  0.00  0.00    +0.000 HD
ATOM     11  H   UNL     1      47.291   3.283  17.754  0.00  0.00    +0.000 HD
ENDBRANCH   3   7
BRANCH   6  12
ATOM     12  N   UNL     1      45.680   5.493  10.994  0.00  0.00    +0.000 N 
ATOM     13  H   UNL     1      46.458   5.377  10.348  0.00  0.00    +0.000 HD
BRANCH  12  14
ATOM     14  C   UNL     1      44.433   4.835  10.617  0.00  0.00    +0.000 C 
BRANCH  14  15
ATOM     15  C   UNL     1      44.288   4.711   9.096  0.00  0.00    +0.000 C 
BRANCH  15  16
ATOM     16  C   UNL     1      45.122   3.559   8.578  0.00  0.00    +0.000 A 
ATOM     17  C   UNL     1      45.040   2.298   9.178  0.00  0.00    +0.000 A 
ATOM     18  C   UNL     1      45.760   1.221   8.658  0.00  0.00    +0.000 A 
ATOM     19  C   UNL     1      46.565   1.390   7.529  0.00  0.00    +0.000 A 
ATOM     20  C   UNL     1      46.657   2.640   6.905  0.00  0.00    +0.000 A 
ATOM     21  C   UNL     1      45.933   3.719   7.441  0.00  0.00    +0.000 A 
BRANCH  20  22
ATOM     22  C   UNL     1      47.537   2.833   5.695  0.00  0.00    +0.000 C 
BRANCH  22  23
ATOM     23  N   UNL     1      48.576   1.812   5.608  0.00  0.00    +0.000 NA
ATOM     24  H   UNL     1      48.134   0.913   5.421  0.00  0.00    +0.000 HD
ATOM     25  H   UNL     1      49.033   1.726   6.513  0.00  0.00    +0.000 HD
ENDBRANCH  22  23
ENDBRANCH  20  22
ENDBRANCH  15  16
ENDBRANCH  14  15
ENDBRANCH  12  14
ENDBRANCH   6  12
BRANCH   1  26
ATOM     26  O   UNL     1      47.448   7.353  12.362  0.00  0.00    +0.000 OA
BRANCH  26  28
ATOM     27  C   UNL     1      45.652   8.830  12.793  0.00  0.00    +0.000 C 
ATOM     28  C   UNL     1      47.098   8.503  13.122  0.00  0.00    +0.000 C 
ENDBRANCH  26  28
ENDBRANCH   1  26
TORSDOF 9
ENDMDL
MODEL 5
REMARK VINA RESULT:    -6.707      2.877      7.002
REMARK INTER + INTRA:         -10.719
REMARK INTER:                 -10.071
REMARK INTRA:                  -0.648
REMARK UNBOUND:                -0.679
REMARK  Name = 
REMARK  10 active torsions:
REMARK  status: ('A' for Active; 'I' for Inactive)
REMARK    1  A    between atoms: C_1  and  C_2
REMARK    2  A    between atoms: C_2  and  O_3
REMARK    3  A    between atoms: O_3  and  C_4
REMARK    4  A    between atoms: C_6  and  C_7
REMARK    5  A    between atoms: C_12  and  N_13
REMARK    6  A    between atoms: N_13  and  C_14
REMARK    7  A    between atoms: C_14  and  C_15
REMARK    8  A    between atoms: C_15  and  C_16
REMARK    9  A    between atoms: C_20  and  C_21
REMARK   10  A    between atoms: C_21  and  N_22
REMARK                            x       y       z     vdW  Elec       q    Type
REMARK                         _______ _______ _______ _____ _____    ______ ____
ROOT
ATOM      1  C   UNL     1      44.745   2.939   9.512  0.00  0.00    +0.000 A 
ATOM      2  N   UNL     1      45.377   1.901   8.909  0.00  0.00    +0.000 NA
ATOM      3  C   UNL     1      46.305   2.262   7.988  0.00  0.00    +0.000 A 
ATOM      4  C   UNL     1      46.574   3.585   7.680  0.00  0.00    +0.000 A 
ATOM      5  N   UNL     1      45.936   4.621   8.287  0.00  0.00    +0.000 NA
ATOM      6  C   UNL     1      45.003   4.304   9.218  0.00  0.00    +0.000 A 
ENDROOT
BRANCH   3   7
ATOM      7  C   UNL     1      47.039   1.162   7.305  0.00  0.00    +0.000 C 
ATOM      8  N   UNL     1      46.667  -0.109   7.658  0.00  0.00    +0.000 N 
ATOM      9  O   UNL     1      47.921   1.369   6.481  0.00  0.00    +0.000 OA
ATOM     10  H   UNL     1      45.932  -0.252   8.340  0.00  0.00    +0.000 HD
ATOM     11  H   UNL     1      47.121  -0.900   7.226  0.00  0.00    +0.000 HD
ENDBRANCH   3   7
BRANCH   6  12
ATOM     12  N   UNL     1      44.438   5.404   9.859  0.00  0.00    +0.000 N 
ATOM     13  H   UNL     1      43.592   5.080  10.321  0.00  0.00    +0.000 HD
BRANCH  12  14
ATOM     14  C   UNL     1      45.296   6.287  10.644  0.00  0.00    +0.000 C 
BRANCH  14  15
ATOM     15  C   UNL     1      45.868   5.582  11.879  0.00  0.00    +0.000 C 
BRANCH  15  16
ATOM     16  C   UNL     1      47.093   6.314  12.384  0.00  0.00    +0.000 A 
ATOM     17  C   UNL     1      47.770   7.218  11.558  0.00  0.00    +0.000 A 
ATOM     18  C   UNL     1      48.860   7.941  12.047  0.00  0.00    +0.000 A 
ATOM     19  C   UNL     1      49.281   7.774  13.368  0.00  0.00    +0.000 A 
ATOM     20  C   UNL     1      48.615   6.883  14.217  0.00  0.00    +0.000 A 
ATOM     21  C   UNL     1      47.523   6.155  13.712  0.00  0.00    +0.000 A 
BRANCH  20  22
ATOM     22  C   UNL     1      49.075   6.687  15.641  0.00  0.00    +0.000 C 
BRANCH  22  23
ATOM     23  N   UNL     1      48.686   5.382  16.165  0.00  0.00    +0.000 NA
ATOM     24  H   UNL     1      49.482   4.751  16.087  0.00  0.00    +0.000 HD
ATOM     25  H   UNL     1      47.952   4.993  15.577  0.00  0.00    +0.000 HD
ENDBRANCH  22  23
ENDBRANCH  20  22
ENDBRANCH  15  16
ENDBRANCH  14  15
ENDBRANCH  12  14
ENDBRANCH   6  12
BRANCH   1  26
ATOM     26  O   UNL     1      43.735   2.634  10.395  0.00  0.00    +0.000 OA
BRANCH  26  28
ATOM     27  C   UNL     1      43.344   3.462  12.575  0.00  0.00    +0.000 C 
ATOM     28  C   UNL     1      44.152   2.480  11.746  0.00  0.00    +0.000 C 
ENDBRANCH  26  28
ENDBRANCH   1  26
TORSDOF 9
ENDMDL
MODEL 6
REMARK VINA RESULT:    -6.293      3.048      7.478
REMARK INTER + INTRA:         -10.099
REMARK INTER:                  -9.528
REMARK INTRA:                  -0.571
REMARK UNBOUND:                -0.679
REMARK  Name = 
REMARK  10 active torsions:
REMARK  status: ('A' for Active; 'I' for Inactive)
REMARK    1  A    between atoms: C_1  and  C_2
REMARK    2  A    between atoms: C_2  and  O_3
REMARK    3  A    between atoms: O_3  and  C_4
REMARK    4  A    between atoms: C_6  and  C_7
REMARK    5  A    between atoms: C_12  and  N_13
REMARK    6  A    between atoms: N_13  and  C_14
REMARK    7  A    between atoms: C_14  and  C_15
REMARK    8  A    between atoms: C_15  and  C_16
REMARK    9  A    between atoms: C_20  and  C_21
REMARK   10  A    between atoms: C_21  and  N_22
REMARK                            x       y       z     vdW  Elec       q    Type
REMARK                         _______ _______ _______ _____ _____    ______ ____
ROOT
ATOM      1  C   UNL     1      46.283   5.438  13.121  0.00  0.00    +0.000 A 
ATOM      2  N   UNL     1      45.395   5.757  12.145  0.00  0.00    +0.000 NA
ATOM      3  C   UNL     1      44.709   4.703  11.638  0.00  0.00    +0.000 A 
ATOM      4  C   UNL     1      44.910   3.404  12.074  0.00  0.00    +0.000 A 
ATOM      5  N   UNL     1      45.801   3.090  13.051  0.00  0.00    +0.000 NA
ATOM      6  C   UNL     1      46.506   4.116  13.588  0.00  0.00    +0.000 A 
ENDROOT
BRANCH   3   7
ATOM      7  C   UNL     1      43.711   4.998  10.574  0.00  0.00    +0.000 C 
ATOM      8  N   UNL     1      43.969   4.445   9.347  0.00  0.00    +0.000 N 
ATOM      9  O   UNL     1      42.720   5.691  10.772  0.00  0.00    +0.000 OA
ATOM     10  H   UNL     1      44.794   3.872   9.212  0.00  0.00    +0.000 HD
ATOM     11  H   UNL     1      43.327   4.600   8.584  0.00  0.00    +0.000 HD
ENDBRANCH   3   7
BRANCH   6  12
ATOM     12  N   UNL     1      47.347   3.746  14.635  0.00  0.00    +0.000 N 
ATOM     13  H   UNL     1      48.294   3.999  14.363  0.00  0.00    +0.000 HD
BRANCH  12  14
ATOM     14  C   UNL     1      46.966   4.078  16.004  0.00  0.00    +0.000 C 
BRANCH  14  15
ATOM     15  C   UNL     1      47.628   3.144  17.025  0.00  0.00    +0.000 C 
BRANCH  15  16
ATOM     16  C   UNL     1      49.082   3.518  17.218  0.00  0.00    +0.000 A 
ATOM     17  C   UNL     1      49.468   4.862  17.261  0.00  0.00    +0.000 A 
ATOM     18  C   UNL     1      50.799   5.206  17.505  0.00  0.00    +0.000 A 
ATOM     19  C   UNL     1      51.757   4.212  17.715  0.00  0.00    +0.000 A 
ATOM     20  C   UNL     1      51.394   2.860  17.685  0.00  0.00    +0.000 A 
ATOM     21  C   UNL     1      50.052   2.525  17.432  0.00  0.00    +0.000 A 
BRANCH  20  22
ATOM     22  C   UNL     1      52.427   1.781  17.895  0.00  0.00    +0.000 C 
BRANCH  22  23
ATOM     23  N   UNL     1      51.838   0.446  17.856  0.00  0.00    +0.000 NA
ATOM     24  H   UNL     1      51.336   0.288  18.728  0.00  0.00    +0.000 HD
ATOM     25  H   UNL     1      52.584  -0.244  17.823  0.00  0.00    +0.000 HD
ENDBRANCH  22  23
ENDBRANCH  20  22
ENDBRANCH  15  16
ENDBRANCH  14  15
ENDBRANCH  12  14
ENDBRANCH   6  12
BRANCH   1  26
ATOM     26  O   UNL     1      47.067   6.455  13.615  0.00  0.00    +0.000 OA
BRANCH  26  28
ATOM     27  C   UNL     1      49.062   7.066  12.503  0.00  0.00    +0.000 C 
ATOM     28  C   UNL     1      47.576   7.346  12.631  0.00  0.00    +0.000 C 
ENDBRANCH  26  28
ENDBRANCH   1  26
TORSDOF 9
ENDMDL
MODEL 7
REMARK VINA RESULT:    -5.870      3.382      7.613
REMARK INTER + INTRA:          -9.466
REMARK INTER:                  -8.174
REMARK INTRA:                  -1.292
REMARK UNBOUND:                -0.679
REMARK  Name = 
REMARK  10 active torsions:
REMARK  status: ('A' for Active; 'I' for Inactive)
REMARK    1  A    between atoms: C_1  and  C_2
REMARK    2  A    between atoms: C_2  and  O_3
REMARK    3  A    between atoms: O_3  and  C_4
REMARK    4  A    between atoms: C_6  and  C_7
REMARK    5  A    between atoms: C_12  and  N_13
REMARK    6  A    between atoms: N_13  and  C_14
REMARK    7  A    between atoms: C_14  and  C_15
REMARK    8  A    between atoms: C_15  and  C_16
REMARK    9  A    between atoms: C_20  and  C_21
REMARK   10  A    between atoms: C_21  and  N_22
REMARK                            x       y       z     vdW  Elec       q    Type
REMARK                         _______ _______ _______ _____ _____    ______ ____
ROOT
ATOM      1  C   UNL     1      46.947   4.585  13.643  0.00  0.00    +0.000 A 
ATOM      2  N   UNL     1      45.813   3.882  13.392  0.00  0.00    +0.000 NA
ATOM      3  C   UNL     1      45.027   4.405  12.419  0.00  0.00    +0.000 A 
ATOM      4  C   UNL     1      45.350   5.570  11.746  0.00  0.00    +0.000 A 
ATOM      5  N   UNL     1      46.486   6.272  12.002  0.00  0.00    +0.000 NA
ATOM      6  C   UNL     1      47.303   5.781  12.966  0.00  0.00    +0.000 A 
ENDROOT
BRANCH   3   7
ATOM      7  C   UNL     1      43.777   3.664  12.094  0.00  0.00    +0.000 C 
ATOM      8  N   UNL     1      43.733   2.360  12.512  0.00  0.00    +0.000 N 
ATOM      9  O   UNL     1      42.843   4.179  11.491  0.00  0.00    +0.000 OA
ATOM     10  H   UNL     1      44.519   1.961  13.012  0.00  0.00    +0.000 HD
ATOM     11  H   UNL     1      42.910   1.805  12.330  0.00  0.00    +0.000 HD
ENDBRANCH   3   7
BRANCH   6  12
ATOM     12  N   UNL     1      48.487   6.497  13.131  0.00  0.00    +0.000 N 
ATOM     13  H   UNL     1      48.740   6.873  12.221  0.00  0.00    +0.000 HD
BRANCH  12  14
ATOM     14  C   UNL     1      48.610   7.416  14.258  0.00  0.00    +0.000 C 
BRANCH  14  15
ATOM     15  C   UNL     1      49.970   7.288  14.956  0.00  0.00    +0.000 C 
BRANCH  15  16
ATOM     16  C   UNL     1      49.791   6.790  16.374  0.00  0.00    +0.000 A 
ATOM     17  C   UNL     1      48.731   7.255  17.160  0.00  0.00    +0.000 A 
ATOM     18  C   UNL     1      48.529   6.746  18.444  0.00  0.00    +0.000 A 
ATOM     19  C   UNL     1      49.378   5.762  18.954  0.00  0.00    +0.000 A 
ATOM     20  C   UNL     1      50.441   5.274  18.184  0.00  0.00    +0.000 A 
ATOM     21  C   UNL     1      50.639   5.798  16.895  0.00  0.00    +0.000 A 
BRANCH  20  22
ATOM     22  C   UNL     1      51.371   4.222  18.736  0.00  0.00    +0.000 C 
BRANCH  22  23
ATOM     23  N   UNL     1      51.190   2.933  18.076  0.00  0.00    +0.000 NA
ATOM     24  H   UNL     1      52.067   2.669  17.632  0.00  0.00    +0.000 HD
ATOM     25  H   UNL     1      50.507   3.036  17.329  0.00  0.00    +0.000 HD
ENDBRANCH  22  23
ENDBRANCH  20  22
ENDBRANCH  15  16
ENDBRANCH  14  15
ENDBRANCH  12  14
ENDBRANCH   6  12
BRANCH   1  26
ATOM     26  O   UNL     1      47.743   4.149  14.676  0.00  0.00    +0.000 OA
BRANCH  26  28
ATOM     27  C   UNL     1      47.794   3.100  16.795  0.00  0.00    +0.000 C 
ATOM     28  C   UNL     1      47.124   4.174  15.956  0.00  0.00    +0.000 C 
ENDBRANCH  26  28
ENDBRANCH   1  26
TORSDOF 9
ENDMDL
MODEL 8
REMARK VINA RESULT:    -5.828      2.203      4.244
REMARK INTER + INTRA:          -9.403
REMARK INTER:                  -8.780
REMARK INTRA:                  -0.623
REMARK UNBOUND:                -0.679
REMARK  Name = 
REMARK  10 active torsions:
REMARK  status: ('A' for Active; 'I' for Inactive)
REMARK    1  A    between atoms: C_1  and  C_2
REMARK    2  A    between atoms: C_2  and  O_3
REMARK    3  A    between atoms: O_3  and  C_4
REMARK    4  A    between atoms: C_6  and  C_7
REMARK    5  A    between atoms: C_12  and  N_13
REMARK    6  A    between atoms: N_13  and  C_14
REMARK    7  A    between atoms: C_14  and  C_15
REMARK    8  A    between atoms: C_15  and  C_16
REMARK    9  A    between atoms: C_20  and  C_21
REMARK   10  A    between atoms: C_21  and  N_22
REMARK                            x       y       z     vdW  Elec       q    Type
REMARK                         _______ _______ _______ _____ _____    ______ ____
ROOT
ATOM      1  C   UNL     1      48.465   6.410  15.221  0.00  0.00    +0.000 A 
ATOM      2  N   UNL     1      48.857   5.974  16.446  0.00  0.00    +0.000 NA
ATOM      3  C   UNL     1      48.346   4.771  16.808  0.00  0.00    +0.000 A 
ATOM      4  C   UNL     1      47.484   4.053  15.998  0.00  0.00    +0.000 A 
ATOM      5  N   UNL     1      47.094   4.495  14.772  0.00  0.00    +0.000 NA
ATOM      6  C   UNL     1      47.584   5.693  14.369  0.00  0.00    +0.000 A 
ENDROOT
BRANCH   3   7
ATOM      7  C   UNL     1      48.755   4.240  18.137  0.00  0.00    +0.000 C 
ATOM      8  N   UNL     1      47.982   3.223  18.634  0.00  0.00    +0.000 N 
ATOM      9  O   UNL     1      49.719   4.676  18.755  0.00  0.00    +0.000 OA
ATOM     10  H   UNL     1      47.193   2.878  18.100  0.00  0.00    +0.000 HD
ATOM     11  H   UNL     1      48.211   2.813  19.527  0.00  0.00    +0.000 HD
ENDBRANCH   3   7
BRANCH   6  12
ATOM     12  N   UNL     1      47.212   6.058  13.078  0.00  0.00    +0.000 N 
ATOM     13  H   UNL     1      47.626   5.379  12.443  0.00  0.00    +0.000 HD
BRANCH  12  14
ATOM     14  C   UNL     1      45.822   6.415  12.812  0.00  0.00    +0.000 C 
BRANCH  14  15
ATOM     15  C   UNL     1      45.549   6.581  11.312  0.00  0.00    +0.000 C 
BRANCH  15  16
ATOM     16  C   UNL     1      45.222   5.242  10.685  0.00  0.00    +0.000 A 
ATOM     17  C   UNL     1      44.469   4.295  11.386  0.00  0.00    +0.000 A 
ATOM     18  C   UNL     1      44.112   3.088  10.781  0.00  0.00    +0.000 A 
ATOM     19  C   UNL     1      44.498   2.817   9.467  0.00  0.00    +0.000 A 
ATOM     20  C   UNL     1      45.246   3.752   8.741  0.00  0.00    +0.000 A 
ATOM     21  C   UNL     1      45.604   4.961   9.362  0.00  0.00    +0.000 A 
BRANCH  20  22
ATOM     22  C   UNL     1      45.679   3.459   7.326  0.00  0.00    +0.000 C 
BRANCH  22  23
ATOM     23  N   UNL     1      46.890   4.189   6.964  0.00  0.00    +0.000 NA
ATOM     24  H   UNL     1      46.682   5.186   6.972  0.00  0.00    +0.000 HD
ATOM     25  H   UNL     1      47.144   3.955   6.007  0.00  0.00    +0.000 HD
ENDBRANCH  22  23
ENDBRANCH  20  22
ENDBRANCH  15  16
ENDBRANCH  14  15
ENDBRANCH  12  14
ENDBRANCH   6  12
BRANCH   1  26
ATOM     26  O   UNL     1      48.884   7.662  14.834  0.00  0.00    +0.000 OA
BRANCH  26  28
ATOM     27  C   UNL     1      49.512   9.806  15.608  0.00  0.00    +0.000 C 
ATOM     28  C   UNL     1      48.451   8.722  15.677  0.00  0.00    +0.000 C 
ENDBRANCH  26  28
ENDBRANCH   1  26
TORSDOF 9
ENDMDL
MODEL 9
REMARK VINA RESULT:    -5.761      2.049      2.877
REMARK INTER + INTRA:          -9.302
REMARK INTER:                  -8.744
REMARK INTRA:                  -0.558
REMARK UNBOUND:                -0.679
REMARK  Name = 
REMARK  10 active torsions:
REMARK  status: ('A' for Active; 'I' for Inactive)
REMARK    1  A    between atoms: C_1  and  C_2
REMARK    2  A    between atoms: C_2  and  O_3
REMARK    3  A    between atoms: O_3  and  C_4
REMARK    4  A    between atoms: C_6  and  C_7
REMARK    5  A    between atoms: C_12  and  N_13
REMARK    6  A    between atoms: N_13  and  C_14
REMARK    7  A    between atoms: C_14  and  C_15
REMARK    8  A    between atoms: C_15  and  C_16
REMARK    9  A    between atoms: C_20  and  C_21
REMARK   10  A    between atoms: C_21  and  N_22
REMARK                            x       y       z     vdW  Elec       q    Type
REMARK                         _______ _______ _______ _____ _____    ______ ____
ROOT
ATOM      1  C   UNL     1      48.221   6.574  13.867  0.00  0.00    +0.000 A 
ATOM      2  N   UNL     1      49.520   6.946  13.739  0.00  0.00    +0.000 NA
ATOM      3  C   UNL     1      49.738   7.940  12.843  0.00  0.00    +0.000 A 
ATOM      4  C   UNL     1      48.717   8.519  12.109  0.00  0.00    +0.000 A 
ATOM      5  N   UNL     1      47.417   8.141  12.241  0.00  0.00    +0.000 NA
ATOM      6  C   UNL     1      47.154   7.152  13.130  0.00  0.00    +0.000 A 
ENDROOT
BRANCH   3   7
ATOM      7  C   UNL     1      51.144   8.396  12.673  0.00  0.00    +0.000 C 
ATOM      8  N   UNL     1      52.020   8.001  13.651  0.00  0.00    +0.000 N 
ATOM      9  O   UNL     1      51.506   9.081  11.724  0.00  0.00    +0.000 OA
ATOM     10  H   UNL     1      51.694   7.431  14.423  0.00  0.00    +0.000 HD
ATOM     11  H   UNL     1      52.990   8.270  13.590  0.00  0.00    +0.000 HD
ENDBRANCH   3   7
BRANCH   6  12
ATOM     12  N   UNL     1      45.800   6.861  13.278  0.00  0.00    +0.000 N 
ATOM     13  H   UNL     1      45.294   7.739  13.191  0.00  0.00    +0.000 HD
BRANCH  12  14
ATOM     14  C   UNL     1      45.235   5.722  12.561  0.00  0.00    +0.000 C 
BRANCH  14  15
ATOM     15  C   UNL     1      45.034   6.026  11.071  0.00  0.00    +0.000 C 
BRANCH  15  16
ATOM     16  C   UNL     1      45.018   4.742  10.269  0.00  0.00    +0.000 A 
ATOM     17  C   UNL     1      44.352   3.611  10.754  0.00  0.00    +0.000 A 
ATOM     18  C   UNL     1      44.282   2.449   9.983  0.00  0.00    +0.000 A 
ATOM     19  C   UNL     1      44.869   2.407   8.717  0.00  0.00    +0.000 A 
ATOM     20  C   UNL     1      45.534   3.528   8.206  0.00  0.00    +0.000 A 
ATOM     21  C   UNL     1      45.604   4.690   8.993  0.00  0.00    +0.000 A 
BRANCH  20  22
ATOM     22  C   UNL     1      46.184   3.483   6.845  0.00  0.00    +0.000 C 
BRANCH  22  23
ATOM     23  N   UNL     1      47.625   3.270   6.936  0.00  0.00    +0.000 NA
ATOM     24  H   UNL     1      47.946   2.846   6.067  0.00  0.00    +0.000 HD
ATOM     25  H   UNL     1      47.815   2.595   7.673  0.00  0.00    +0.000 HD
ENDBRANCH  22  23
ENDBRANCH  20  22
ENDBRANCH  15  16
ENDBRANCH  14  15
ENDBRANCH  12  14
ENDBRANCH   6  12
BRANCH   1  26
ATOM     26  O   UNL     1      47.949   5.514  14.701  0.00  0.00    +0.000 OA
BRANCH  26  28
ATOM     27  C   UNL     1      48.065   4.404  16.786  0.00  0.00    +0.000 C 
ATOM     28  C   UNL     1      48.337   5.707  16.056  0.00  0.00    +0.000 C 
ENDBRANCH  26  28
ENDBRANCH   1  26
TORSDOF 9
ENDMDL
