MODEL 1
REMARK VINA RESULT:    -8.236      0.000      0.000
REMARK INTER + INTRA:         -12.758
REMARK INTER:                 -11.847
REMARK INTRA:                  -0.911
REMARK UNBOUND:                -0.911
REMARK  Name = 
REMARK  8 active torsions:
REMARK  status: ('A' for Active; 'I' for Inactive)
REMARK    1  A    between atoms: N_1  and  C_2
REMARK    2  A    between atoms: C_2  and  C_3
REMARK    3  A    between atoms: C_2  and  C_24
REMARK    4  A    between atoms: C_3  and  C_4
REMARK    5  A    between atoms: C_7  and  C_8
REMARK    6  A    between atoms: C_8  and  N_9
REMARK    7  A    between atoms: C_10  and  C_12
REMARK    8  A    between atoms: C_24  and  C_26
REMARK                            x       y       z     vdW  Elec       q    Type
REMARK                         _______ _______ _______ _____ _____    ______ ____
ROOT
ATOM      1  C   UNL     1      45.515   4.904  11.925  0.00  0.00    +0.000 A 
ATOM      2  C   UNL     1      45.968   4.399  13.151  0.00  0.00    +0.000 A 
ATOM      3  C   UNL     1      46.987   5.044  13.860  0.00  0.00    +0.000 A 
ATOM      4  C   UNL     1      47.567   6.219  13.366  0.00  0.00    +0.000 A 
ATOM      5  C   UNL     1      47.126   6.717  12.134  0.00  0.00    +0.000 A 
ATOM      6  C   UNL     1      46.106   6.072  11.424  0.00  0.00    +0.000 A 
ENDROOT
BRANCH   1   7
ATOM      7  C   UNL     1      44.448   4.172  11.138  0.00  0.00    +0.000 C 
BRANCH   7   8
ATOM      8  C   UNL     1      44.649   4.035   9.614  0.00  0.00    +0.000 C 
BRANCH   8   9
ATOM      9  N   UNL     1      43.578   4.678   8.824  0.00  0.00    +0.000 NA
ATOM     10  H   UNL     1      43.427   5.631   9.143  0.00  0.00    +0.000 HD
ATOM     11  H   UNL     1      42.708   4.170   9.019  0.00  0.00    +0.000 HD
ENDBRANCH   8   9
BRANCH   8  12
ATOM     12  C   UNL     1      44.782   2.564   9.170  0.00  0.00    +0.000 C 
ATOM     13  O   UNL     1      44.000   1.698   9.571  0.00  0.00    +0.000 OA
BRANCH  12  14
ATOM     14  C   UNL     1      45.887   2.148   8.248  0.00  0.00    +0.000 A 
ATOM     15  C   UNL     1      46.262   0.821   8.041  0.00  0.00    +0.000 A 
ATOM     16  C   UNL     1      47.322   0.567   7.183  0.00  0.00    +0.000 A 
ATOM     17  N   UNL     1      48.006   1.525   6.527  0.00  0.00    +0.000 NA
ATOM     18  C   UNL     1      47.627   2.801   6.739  0.00  0.00    +0.000 A 
ATOM     19  C   UNL     1      46.588   3.158   7.578  0.00  0.00    +0.000 A 
ENDBRANCH  12  14
ENDBRANCH   8  12
ENDBRANCH   7   8
ENDBRANCH   1   7
BRANCH   4  20
ATOM     20  C   UNL     1      48.677   6.909  14.115  0.00  0.00    +0.000 C 
BRANCH  20  21
ATOM     21  N   UNL     1      48.342   7.075  15.507  0.00  0.00    +0.000 N 
ATOM     22  C   UNL     1      49.163   6.610  16.501  0.00  0.00    +0.000 C 
ATOM     23  O   UNL     1      50.232   6.057  16.258  0.00  0.00    +0.000 OA
ATOM     24  H   UNL     1      47.380   7.319  15.724  0.00  0.00    +0.000 HD
BRANCH  22  25
ATOM     25  C   UNL     1      48.734   6.873  17.880  0.00  0.00    +0.000 A 
ATOM     26  C   UNL     1      48.381   8.162  18.257  0.00  0.00    +0.000 A 
ATOM     27  S   UNL     1      47.838   8.280  19.870  0.00  0.00    +0.000 S 
ATOM     28  C   UNL     1      48.114   6.623  20.141  0.00  0.00    +0.000 A 
ATOM     29  N   UNL     1      47.867   6.066  21.357  0.00  0.00    +0.000 NA
ATOM     30  C   UNL     1      48.150   4.806  21.431  0.00  0.00    +0.000 A 
ATOM     31  N   UNL     1      48.656   4.058  20.404  0.00  0.00    +0.000 N 
ATOM     32  C   UNL     1      48.894   4.573  19.149  0.00  0.00    +0.000 A 
ATOM     33  O   UNL     1      49.311   3.864  18.238  0.00  0.00    +0.000 OA
ATOM     34  C   UNL     1      48.598   5.985  19.012  0.00  0.00    +0.000 A 
ATOM     35  H   UNL     1      48.852   3.075  20.525  0.00  0.00    +0.000 HD
ENDBRANCH  22  25
ENDBRANCH  20  21
ENDBRANCH   4  20
TORSDOF 8
ENDMDL
MODEL 2
REMARK VINA RESULT:    -8.198      1.266      2.236
REMARK INTER + INTRA:         -12.704
REMARK INTER:                 -11.594
REMARK INTRA:                  -1.110
REMARK UNBOUND:                -0.911
REMARK  Name = 
REMARK  8 active torsions:
REMARK  status: ('A' for Active; 'I' for Inactive)
REMARK    1  A    between atoms: N_1  and  C_2
REMARK    2  A    between atoms: C_2  and  C_3
REMARK    3  A    between atoms: C_2  and  C_24
REMARK    4  A    between atoms: C_3  and  C_4
REMARK    5  A    between atoms: C_7  and  C_8
REMARK    6  A    between atoms: C_8  and  N_9
REMARK    7  A    between atoms: C_10  and  C_12
REMARK    8  A    between atoms: C_24  and  C_26
REMARK                            x       y       z     vdW  Elec       q    Type
REMARK                         _______ _______ _______ _____ _____    ______ ____
ROOT
ATOM      1  C   UNL     1      45.623   4.710  12.154  0.00  0.00    +0.000 A 
ATOM      2  C   UNL     1      46.080   5.972  11.751  0.00  0.00    +0.000 A 
ATOM      3  C   UNL     1      46.999   6.684  12.530  0.00  0.00    +0.000 A 
ATOM      4  C   UNL     1      47.494   6.143  13.723  0.00  0.00    +0.000 A 
ATOM      5  C   UNL     1      47.028   4.888  14.134  0.00  0.00    +0.000 A 
ATOM      6  C   UNL     1      46.109   4.175  13.355  0.00  0.00    +0.000 A 
ENDROOT
BRANCH   1   7
ATOM      7  C   UNL     1      44.590   3.968  11.333  0.00  0.00    +0.000 C 
BRANCH   7   8
ATOM      8  C   UNL     1      44.720   4.025   9.796  0.00  0.00    +0.000 C 
BRANCH   8   9
ATOM      9  N   UNL     1      43.612   4.753   9.142  0.00  0.00    +0.000 NA
ATOM     10  H   UNL     1      43.107   5.314   9.823  0.00  0.00    +0.000 HD
ATOM     11  H   UNL     1      42.947   4.051   8.800  0.00  0.00    +0.000 HD
ENDBRANCH   8   9
BRANCH   8  12
ATOM     12  C   UNL     1      44.837   2.623   9.165  0.00  0.00    +0.000 C 
ATOM     13  O   UNL     1      44.031   1.728   9.434  0.00  0.00    +0.000 OA
BRANCH  12  14
ATOM     14  C   UNL     1      45.953   2.309   8.216  0.00  0.00    +0.000 A 
ATOM     15  C   UNL     1      46.641   3.277   7.484  0.00  0.00    +0.000 A 
ATOM     16  C   UNL     1      47.636   2.855   6.615  0.00  0.00    +0.000 A 
ATOM     17  N   UNL     1      47.988   1.566   6.442  0.00  0.00    +0.000 NA
ATOM     18  C   UNL     1      47.313   0.647   7.160  0.00  0.00    +0.000 A 
ATOM     19  C   UNL     1      46.302   0.965   8.048  0.00  0.00    +0.000 A 
ENDBRANCH  12  14
ENDBRANCH   8  12
ENDBRANCH   7   8
ENDBRANCH   1   7
BRANCH   4  20
ATOM     20  C   UNL     1      48.470   6.912  14.575  0.00  0.00    +0.000 C 
BRANCH  20  21
ATOM     21  N   UNL     1      48.244   6.666  15.977  0.00  0.00    +0.000 N 
ATOM     22  C   UNL     1      49.224   6.140  16.778  0.00  0.00    +0.000 C 
ATOM     23  O   UNL     1      50.345   5.877  16.350  0.00  0.00    +0.000 OA
ATOM     24  H   UNL     1      47.280   6.662  16.295  0.00  0.00    +0.000 HD
BRANCH  22  25
ATOM     25  C   UNL     1      48.888   5.971  18.198  0.00  0.00    +0.000 A 
ATOM     26  C   UNL     1      49.132   4.756  18.823  0.00  0.00    +0.000 A 
ATOM     27  S   UNL     1      48.753   4.752  20.486  0.00  0.00    +0.000 S 
ATOM     28  C   UNL     1      48.192   6.357  20.417  0.00  0.00    +0.000 A 
ATOM     29  N   UNL     1      47.697   6.970  21.526  0.00  0.00    +0.000 NA
ATOM     30  C   UNL     1      47.277   8.176  21.323  0.00  0.00    +0.000 A 
ATOM     31  N   UNL     1      47.309   8.821  20.117  0.00  0.00    +0.000 N 
ATOM     32  C   UNL     1      47.827   8.250  18.976  0.00  0.00    +0.000 A 
ATOM     33  O   UNL     1      47.876   8.871  17.919  0.00  0.00    +0.000 OA
ATOM     34  C   UNL     1      48.307   6.893  19.146  0.00  0.00    +0.000 A 
ATOM     35  H   UNL     1      46.969   9.767  20.025  0.00  0.00    +0.000 HD
ENDBRANCH  22  25
ENDBRANCH  20  21
ENDBRANCH   4  20
TORSDOF 8
ENDMDL
MODEL 3
REMARK VINA RESULT:    -7.794      3.159      4.081
REMARK INTER + INTRA:         -12.123
REMARK INTER:                 -10.951
REMARK INTRA:                  -1.172
REMARK UNBOUND:                -0.911
REMARK  Name = 
REMARK  8 active torsions:
REMARK  status: ('A' for Active; 'I' for Inactive)
REMARK    1  A    between atoms: N_1  and  C_2
REMARK    2  A    between atoms: C_2  and  C_3
REMARK    3  A    between atoms: C_2  and  C_24
REMARK    4  A    between atoms: C_3  and  C_4
REMARK    5  A    between atoms: C_7  and  C_8
REMARK    6  A    between atoms: C_8  and  N_9
REMARK    7  A    between atoms: C_10  and  C_12
REMARK    8  A    between atoms: C_24  and  C_26
REMARK                            x       y       z     vdW  Elec       q    Type
REMARK                         _______ _______ _______ _____ _____    ______ ____
ROOT
ATOM      1  C   UNL     1      46.814   5.075  13.588  0.00  0.00    +0.000 A 
ATOM      2  C   UNL     1      47.612   6.200  13.334  0.00  0.00    +0.000 A 
ATOM      3  C   UNL     1      48.462   6.713  14.320  0.00  0.00    +0.000 A 
ATOM      4  C   UNL     1      48.545   6.106  15.579  0.00  0.00    +0.000 A 
ATOM      5  C   UNL     1      47.739   4.991  15.839  0.00  0.00    +0.000 A 
ATOM      6  C   UNL     1      46.889   4.476  14.853  0.00  0.00    +0.000 A 
ENDROOT
BRANCH   1   7
ATOM      7  C   UNL     1      45.859   4.556  12.535  0.00  0.00    +0.000 C 
BRANCH   7   8
ATOM      8  C   UNL     1      44.870   5.560  11.907  0.00  0.00    +0.000 C 
BRANCH   8   9
ATOM      9  N   UNL     1      43.949   6.167  12.892  0.00  0.00    +0.000 NA
ATOM     10  H   UNL     1      43.925   7.177  12.779  0.00  0.00    +0.000 HD
ATOM     11  H   UNL     1      44.343   5.994  13.824  0.00  0.00    +0.000 HD
ENDBRANCH   8   9
BRANCH   8  12
ATOM     12  C   UNL     1      44.040   4.933  10.770  0.00  0.00    +0.000 C 
ATOM     13  O   UNL     1      42.830   5.150  10.661  0.00  0.00    +0.000 OA
BRANCH  12  14
ATOM     14  C   UNL     1      44.687   4.021   9.773  0.00  0.00    +0.000 A 
ATOM     15  C   UNL     1      44.545   2.634   9.787  0.00  0.00    +0.000 A 
ATOM     16  C   UNL     1      45.221   1.897   8.825  0.00  0.00    +0.000 A 
ATOM     17  N   UNL     1      45.999   2.441   7.869  0.00  0.00    +0.000 NA
ATOM     18  C   UNL     1      46.121   3.783   7.871  0.00  0.00    +0.000 A 
ATOM     19  C   UNL     1      45.494   4.605   8.789  0.00  0.00    +0.000 A 
ENDBRANCH  12  14
ENDBRANCH   8  12
ENDBRANCH   7   8
ENDBRANCH   1   7
BRANCH   4  20
ATOM     20  C   UNL     1      49.445   6.665  16.650  0.00  0.00    +0.000 C 
BRANCH  20  21
ATOM     21  N   UNL     1      50.482   5.728  17.001  0.00  0.00    +0.000 N 
ATOM     22  C   UNL     1      50.848   5.521  18.306  0.00  0.00    +0.000 C 
ATOM     23  O   UNL     1      50.295   6.101  19.237  0.00  0.00    +0.000 OA
ATOM     24  H   UNL     1      51.093   5.415  16.253  0.00  0.00    +0.000 HD
BRANCH  22  25
ATOM     25  C   UNL     1      51.889   4.514  18.541  0.00  0.00    +0.000 A 
ATOM     26  C   UNL     1      53.036   4.860  19.243  0.00  0.00    +0.000 A 
ATOM     27  S   UNL     1      54.108   3.557  19.492  0.00  0.00    +0.000 S 
ATOM     28  C   UNL     1      53.105   2.496  18.617  0.00  0.00    +0.000 A 
ATOM     29  N   UNL     1      53.461   1.196  18.432  0.00  0.00    +0.000 NA
ATOM     30  C   UNL     1      52.623   0.512  17.723  0.00  0.00    +0.000 A 
ATOM     31  N   UNL     1      51.467   1.008  17.186  0.00  0.00    +0.000 N 
ATOM     32  C   UNL     1      51.054   2.309  17.372  0.00  0.00    +0.000 A 
ATOM     33  O   UNL     1      49.991   2.712  16.909  0.00  0.00    +0.000 OA
ATOM     34  C   UNL     1      51.961   3.123  18.155  0.00  0.00    +0.000 A 
ATOM     35  H   UNL     1      50.852   0.420  16.645  0.00  0.00    +0.000 HD
ENDBRANCH  22  25
ENDBRANCH  20  21
ENDBRANCH   4  20
TORSDOF 8
ENDMDL
MODEL 4
REMARK VINA RESULT:    -7.611      3.633      8.840
REMARK INTER + INTRA:         -11.859
REMARK INTER:                 -10.359
REMARK INTRA:                  -1.499
REMARK UNBOUND:                -0.911
REMARK  Name = 
REMARK  8 active torsions:
REMARK  status: ('A' for Active; 'I' for Inactive)
REMARK    1  A    between atoms: N_1  and  C_2
REMARK    2  A    between atoms: C_2  and  C_3
REMARK    3  A    between atoms: C_2  and  C_24
REMARK    4  A    between atoms: C_3  and  C_4
REMARK    5  A    between atoms: C_7  and  C_8
REMARK    6  A    between atoms: C_8  and  N_9
REMARK    7  A    between atoms: C_10  and  C_12
REMARK    8  A    between atoms: C_24  and  C_26
REMARK                            x       y       z     vdW  Elec       q    Type
REMARK                         _______ _______ _______ _____ _____    ______ ____
ROOT
ATOM      1  C   UNL     1      50.187   7.010  15.875  0.00  0.00    +0.000 A 
ATOM      2  C   UNL     1      48.872   6.638  15.563  0.00  0.00    +0.000 A 
ATOM      3  C   UNL     1      48.313   6.956  14.320  0.00  0.00    +0.000 A 
ATOM      4  C   UNL     1      49.061   7.642  13.355  0.00  0.00    +0.000 A 
ATOM      5  C   UNL     1      50.370   8.027  13.671  0.00  0.00    +0.000 A 
ATOM      6  C   UNL     1      50.930   7.708  14.913  0.00  0.00    +0.000 A 
ENDROOT
BRANCH   1   7
ATOM      7  C   UNL     1      50.768   6.708  17.240  0.00  0.00    +0.000 C 
BRANCH   7   8
ATOM      8  C   UNL     1      49.781   6.491  18.407  0.00  0.00    +0.000 C 
BRANCH   8   9
ATOM      9  N   UNL     1      50.019   7.400  19.549  0.00  0.00    +0.000 NA
ATOM     10  H   UNL     1      49.482   8.256  19.438  0.00  0.00    +0.000 HD
ATOM     11  H   UNL     1      51.006   7.676  19.518  0.00  0.00    +0.000 HD
ENDBRANCH   8   9
BRANCH   8  12
ATOM     12  C   UNL     1      49.786   5.037  18.917  0.00  0.00    +0.000 C 
ATOM     13  O   UNL     1      49.948   4.774  20.112  0.00  0.00    +0.000 OA
BRANCH  12  14
ATOM     14  C   UNL     1      49.612   3.897  17.960  0.00  0.00    +0.000 A 
ATOM     15  C   UNL     1      48.411   3.610  17.310  0.00  0.00    +0.000 A 
ATOM     16  C   UNL     1      48.370   2.508  16.469  0.00  0.00    +0.000 A 
ATOM     17  N   UNL     1      49.423   1.701  16.232  0.00  0.00    +0.000 NA
ATOM     18  C   UNL     1      50.574   1.997  16.869  0.00  0.00    +0.000 A 
ATOM     19  C   UNL     1      50.716   3.069  17.730  0.00  0.00    +0.000 A 
ENDBRANCH  12  14
ENDBRANCH   8  12
ENDBRANCH   7   8
ENDBRANCH   1   7
BRANCH   4  20
ATOM     20  C   UNL     1      48.459   8.004  12.022  0.00  0.00    +0.000 C 
BRANCH  20  21
ATOM     21  N   UNL     1      47.706   6.903  11.475  0.00  0.00    +0.000 N 
ATOM     22  C   UNL     1      46.336   6.920  11.443  0.00  0.00    +0.000 C 
ATOM     23  O   UNL     1      45.686   7.879  11.853  0.00  0.00    +0.000 OA
ATOM     24  H   UNL     1      48.200   6.026  11.343  0.00  0.00    +0.000 HD
BRANCH  22  25
ATOM     25  C   UNL     1      45.681   5.760  10.826  0.00  0.00    +0.000 A 
ATOM     26  C   UNL     1      45.800   5.549   9.459  0.00  0.00    +0.000 A 
ATOM     27  S   UNL     1      45.043   4.120   8.916  0.00  0.00    +0.000 S 
ATOM     28  C   UNL     1      44.476   3.763  10.481  0.00  0.00    +0.000 A 
ATOM     29  N   UNL     1      43.721   2.655  10.712  0.00  0.00    +0.000 NA
ATOM     30  C   UNL     1      43.333   2.524  11.938  0.00  0.00    +0.000 A 
ATOM     31  N   UNL     1      43.631   3.396  12.949  0.00  0.00    +0.000 N 
ATOM     32  C   UNL     1      44.415   4.514  12.767  0.00  0.00    +0.000 A 
ATOM     33  O   UNL     1      44.695   5.254  13.705  0.00  0.00    +0.000 OA
ATOM     34  C   UNL     1      44.873   4.713  11.407  0.00  0.00    +0.000 A 
ATOM     35  H   UNL     1      43.300   3.234  13.889  0.00  0.00    +0.000 HD
ENDBRANCH  22  25
ENDBRANCH  20  21
ENDBRANCH   4  20
TORSDOF 8
ENDMDL
MODEL 5
REMARK VINA RESULT:    -7.412      3.079      9.204
REMARK INTER + INTRA:         -11.573
REMARK INTER:                  -9.887
REMARK INTRA:                  -1.686
REMARK UNBOUND:                -0.911
REMARK  Name = 
REMARK  8 active torsions:
REMARK  status: ('A' for Active; 'I' for Inactive)
REMARK    1  A    between atoms: N_1  and  C_2
REMARK    2  A    between atoms: C_2  and  C_3
REMARK    3  A    between atoms: C_2  and  C_24
REMARK    4  A    between atoms: C_3  and  C_4
REMARK    5  A    between atoms: C_7  and  C_8
REMARK    6  A    between atoms: C_8  and  N_9
REMARK    7  A    between atoms: C_10  and  C_12
REMARK    8  A    between atoms: C_24  and  C_26
REMARK                            x       y       z     vdW  Elec       q    Type
REMARK                         _______ _______ _______ _____ _____    ______ ____
ROOT
ATOM      1  C   UNL     1      49.167   7.810  16.095  0.00  0.00    +0.000 A 
ATOM      2  C   UNL     1      49.600   6.863  15.157  0.00  0.00    +0.000 A 
ATOM      3  C   UNL     1      49.095   6.863  13.853  0.00  0.00    +0.000 A 
ATOM      4  C   UNL     1      48.155   7.819  13.450  0.00  0.00    +0.000 A 
ATOM      5  C   UNL     1      47.711   8.758  14.390  0.00  0.00    +0.000 A 
ATOM      6  C   UNL     1      48.216   8.759  15.695  0.00  0.00    +0.000 A 
ENDROOT
BRANCH   1   7
ATOM      7  C   UNL     1      49.680   7.773  17.519  0.00  0.00    +0.000 C 
BRANCH   7   8
ATOM      8  C   UNL     1      48.974   6.822  18.509  0.00  0.00    +0.000 C 
BRANCH   8   9
ATOM      9  N   UNL     1      48.694   7.447  19.820  0.00  0.00    +0.000 NA
ATOM     10  H   UNL     1      48.291   6.765  20.458  0.00  0.00    +0.000 HD
ATOM     11  H   UNL     1      47.970   8.158  19.669  0.00  0.00    +0.000 HD
ENDBRANCH   8   9
BRANCH   8  12
ATOM     12  C   UNL     1      49.767   5.520  18.737  0.00  0.00    +0.000 C 
ATOM     13  O   UNL     1      50.630   5.437  19.616  0.00  0.00    +0.000 OA
BRANCH  12  14
ATOM     14  C   UNL     1      49.517   4.320  17.876  0.00  0.00    +0.000 A 
ATOM     15  C   UNL     1      48.299   4.059  17.248  0.00  0.00    +0.000 A 
ATOM     16  C   UNL     1      48.185   2.896  16.500  0.00  0.00    +0.000 A 
ATOM     17  N   UNL     1      49.184   2.007  16.333  0.00  0.00    +0.000 NA
ATOM     18  C   UNL     1      50.353   2.279  16.945  0.00  0.00    +0.000 A 
ATOM     19  C   UNL     1      50.566   3.407  17.717  0.00  0.00    +0.000 A 
ENDBRANCH  12  14
ENDBRANCH   8  12
ENDBRANCH   7   8
ENDBRANCH   1   7
BRANCH   4  20
ATOM     20  C   UNL     1      47.593   7.813  12.052  0.00  0.00    +0.000 C 
BRANCH  20  21
ATOM     21  N   UNL     1      46.921   6.571  11.766  0.00  0.00    +0.000 N 
ATOM     22  C   UNL     1      45.603   6.380  12.091  0.00  0.00    +0.000 C 
ATOM     23  O   UNL     1      44.926   7.261  12.614  0.00  0.00    +0.000 OA
ATOM     24  H   UNL     1      47.505   5.770  11.548  0.00  0.00    +0.000 HD
BRANCH  22  25
ATOM     25  C   UNL     1      45.017   5.087  11.715  0.00  0.00    +0.000 A 
ATOM     26  C   UNL     1      44.345   4.333  12.667  0.00  0.00    +0.000 A 
ATOM     27  S   UNL     1      43.664   2.896  12.048  0.00  0.00    +0.000 S 
ATOM     28  C   UNL     1      44.296   3.201  10.498  0.00  0.00    +0.000 A 
ATOM     29  N   UNL     1      44.091   2.325   9.478  0.00  0.00    +0.000 NA
ATOM     30  C   UNL     1      44.653   2.665   8.364  0.00  0.00    +0.000 A 
ATOM     31  N   UNL     1      45.398   3.797   8.180  0.00  0.00    +0.000 N 
ATOM     32  C   UNL     1      45.608   4.726   9.176  0.00  0.00    +0.000 A 
ATOM     33  O   UNL     1      46.249   5.751   8.966  0.00  0.00    +0.000 OA
ATOM     34  C   UNL     1      45.003   4.390  10.449  0.00  0.00    +0.000 A 
ATOM     35  H   UNL     1      45.808   4.009   7.283  0.00  0.00    +0.000 HD
ENDBRANCH  22  25
ENDBRANCH  20  21
ENDBRANCH   4  20
TORSDOF 8
ENDMDL
MODEL 6
REMARK VINA RESULT:    -7.000      3.913      8.547
REMARK INTER + INTRA:         -10.979
REMARK INTER:                  -8.471
REMARK INTRA:                  -2.508
REMARK UNBOUND:                -0.911
REMARK  Name = 
REMARK  8 active torsions:
REMARK  status: ('A' for Active; 'I' for Inactive)
REMARK    1  A    between atoms: N_1  and  C_2
REMARK    2  A    between atoms: C_2  and  C_3
REMARK    3  A    between atoms: C_2  and  C_24
REMARK    4  A    between atoms: C_3  and  C_4
REMARK    5  A    between atoms: C_7  and  C_8
REMARK    6  A    between atoms: C_8  and  N_9
REMARK    7  A    between atoms: C_10  and  C_12
REMARK    8  A    between atoms: C_24  and  C_26
REMARK                            x       y       z     vdW  Elec       q    Type
REMARK                         _______ _______ _______ _____ _____    ______ ____
ROOT
ATOM      1  C   UNL     1      50.800   7.238  17.921  0.00  0.00    +0.000 A 
ATOM      2  C   UNL     1      51.053   7.269  16.543  0.00  0.00    +0.000 A 
ATOM      3  C   UNL     1      50.216   7.982  15.677  0.00  0.00    +0.000 A 
ATOM      4  C   UNL     1      49.115   8.692  16.172  0.00  0.00    +0.000 A 
ATOM      5  C   UNL     1      48.853   8.650  17.547  0.00  0.00    +0.000 A 
ATOM      6  C   UNL     1      49.691   7.938  18.414  0.00  0.00    +0.000 A 
ENDROOT
BRANCH   1   7
ATOM      7  C   UNL     1      51.680   6.422  18.846  0.00  0.00    +0.000 C 
BRANCH   7   8
ATOM      8  C   UNL     1      51.082   5.135  19.453  0.00  0.00    +0.000 C 
BRANCH   8   9
ATOM      9  N   UNL     1      51.887   4.585  20.564  0.00  0.00    +0.000 NA
ATOM     10  H   UNL     1      51.398   4.705  21.448  0.00  0.00    +0.000 HD
ATOM     11  H   UNL     1      52.740   5.151  20.631  0.00  0.00    +0.000 HD
ENDBRANCH   8   9
BRANCH   8  12
ATOM     12  C   UNL     1      50.871   4.033  18.396  0.00  0.00    +0.000 C 
ATOM     13  O   UNL     1      51.806   3.329  18.005  0.00  0.00    +0.000 OA
BRANCH  12  14
ATOM     14  C   UNL     1      49.515   3.801  17.802  0.00  0.00    +0.000 A 
ATOM     15  C   UNL     1      48.408   4.608  18.066  0.00  0.00    +0.000 A 
ATOM     16  C   UNL     1      47.198   4.271  17.477  0.00  0.00    +0.000 A 
ATOM     17  N   UNL     1      47.029   3.216  16.656  0.00  0.00    +0.000 NA
ATOM     18  C   UNL     1      48.111   2.450  16.413  0.00  0.00    +0.000 A 
ATOM     19  C   UNL     1      49.358   2.699  16.955  0.00  0.00    +0.000 A 
ENDBRANCH  12  14
ENDBRANCH   8  12
ENDBRANCH   7   8
ENDBRANCH   1   7
BRANCH   4  20
ATOM     20  C   UNL     1      48.200   9.446  15.242  0.00  0.00    +0.000 C 
BRANCH  20  21
ATOM     21  N   UNL     1      47.274   8.557  14.587  0.00  0.00    +0.000 N 
ATOM     22  C   UNL     1      47.233   8.448  13.221  0.00  0.00    +0.000 C 
ATOM     23  O   UNL     1      47.995   9.080  12.493  0.00  0.00    +0.000 OA
ATOM     24  H   UNL     1      46.501   8.205  15.142  0.00  0.00    +0.000 HD
BRANCH  22  25
ATOM     25  C   UNL     1      46.276   7.481  12.671  0.00  0.00    +0.000 A 
ATOM     26  C   UNL     1      45.223   7.926  11.883  0.00  0.00    +0.000 A 
ATOM     27  S   UNL     1      44.249   6.669  11.265  0.00  0.00    +0.000 S 
ATOM     28  C   UNL     1      45.165   5.488  12.078  0.00  0.00    +0.000 A 
ATOM     29  N   UNL     1      44.840   4.170  11.986  0.00  0.00    +0.000 NA
ATOM     30  C   UNL     1      45.600   3.386  12.679  0.00  0.00    +0.000 A 
ATOM     31  N   UNL     1      46.650   3.799  13.451  0.00  0.00    +0.000 N 
ATOM     32  C   UNL     1      47.032   5.119  13.552  0.00  0.00    +0.000 A 
ATOM     33  O   UNL     1      48.004   5.452  14.224  0.00  0.00    +0.000 OA
ATOM     34  C   UNL     1      46.208   6.043  12.799  0.00  0.00    +0.000 A 
ATOM     35  H   UNL     1      47.209   3.136  13.966  0.00  0.00    +0.000 HD
ENDBRANCH  22  25
ENDBRANCH  20  21
ENDBRANCH   4  20
TORSDOF 8
ENDMDL
MODEL 7
REMARK VINA RESULT:    -6.999      2.608      3.979
REMARK INTER + INTRA:         -10.978
REMARK INTER:                  -9.855
REMARK INTRA:                  -1.124
REMARK UNBOUND:                -0.911
REMARK  Name = 
REMARK  8 active torsions:
REMARK  status: ('A' for Active; 'I' for Inactive)
REMARK    1  A    between atoms: N_1  and  C_2
REMARK    2  A    between atoms: C_2  and  C_3
REMARK    3  A    between atoms: C_2  and  C_24
REMARK    4  A    between atoms: C_3  and  C_4
REMARK    5  A    between atoms: C_7  and  C_8
REMARK    6  A    between atoms: C_8  and  N_9
REMARK    7  A    between atoms: C_10  and  C_12
REMARK    8  A    between atoms: C_24  and  C_26
REMARK                            x       y       z     vdW  Elec       q    Type
REMARK                         _______ _______ _______ _____ _____    ______ ____
ROOT
ATOM      1  C   UNL     1      46.936   5.185  13.626  0.00  0.00    +0.000 A 
ATOM      2  C   UNL     1      46.763   4.220  14.628  0.00  0.00    +0.000 A 
ATOM      3  C   UNL     1      47.438   4.327  15.849  0.00  0.00    +0.000 A 
ATOM      4  C   UNL     1      48.291   5.409  16.102  0.00  0.00    +0.000 A 
ATOM      5  C   UNL     1      48.475   6.365  15.096  0.00  0.00    +0.000 A 
ATOM      6  C   UNL     1      47.800   6.260  13.875  0.00  0.00    +0.000 A 
ENDROOT
BRANCH   1   7
ATOM      7  C   UNL     1      46.243   5.036  12.287  0.00  0.00    +0.000 C 
BRANCH   7   8
ATOM      8  C   UNL     1      44.997   5.907  12.026  0.00  0.00    +0.000 C 
BRANCH   8   9
ATOM      9  N   UNL     1      44.227   6.209  13.251  0.00  0.00    +0.000 NA
ATOM     10  H   UNL     1      43.530   6.926  13.064  0.00  0.00    +0.000 HD
ATOM     11  H   UNL     1      44.881   6.616  13.929  0.00  0.00    +0.000 HD
ENDBRANCH   8   9
BRANCH   8  12
ATOM     12  C   UNL     1      44.050   5.278  10.984  0.00  0.00    +0.000 C 
ATOM     13  O   UNL     1      42.856   5.583  10.932  0.00  0.00    +0.000 OA
BRANCH  12  14
ATOM     14  C   UNL     1      44.562   4.257  10.013  0.00  0.00    +0.000 A 
ATOM     15  C   UNL     1      44.309   2.890  10.124  0.00  0.00    +0.000 A 
ATOM     16  C   UNL     1      44.865   2.043   9.176  0.00  0.00    +0.000 A 
ATOM     17  N   UNL     1      45.626   2.462   8.146  0.00  0.00    +0.000 NA
ATOM     18  C   UNL     1      45.857   3.787   8.056  0.00  0.00    +0.000 A 
ATOM     19  C   UNL     1      45.353   4.711   8.952  0.00  0.00    +0.000 A 
ENDBRANCH  12  14
ENDBRANCH   8  12
ENDBRANCH   7   8
ENDBRANCH   1   7
BRANCH   4  20
ATOM     20  C   UNL     1      49.034   5.520  17.408  0.00  0.00    +0.000 C 
BRANCH  20  21
ATOM     21  N   UNL     1      48.764   6.778  18.056  0.00  0.00    +0.000 N 
ATOM     22  C   UNL     1      47.709   6.926  18.919  0.00  0.00    +0.000 C 
ATOM     23  O   UNL     1      46.962   5.992  19.202  0.00  0.00    +0.000 OA
ATOM     24  H   UNL     1      49.217   7.601  17.673  0.00  0.00    +0.000 HD
BRANCH  22  25
ATOM     25  C   UNL     1      47.558   8.244  19.548  0.00  0.00    +0.000 A 
ATOM     26  C   UNL     1      47.342   8.333  20.917  0.00  0.00    +0.000 A 
ATOM     27  S   UNL     1      47.263   9.935  21.496  0.00  0.00    +0.000 S 
ATOM     28  C   UNL     1      47.453  10.568  19.928  0.00  0.00    +0.000 A 
ATOM     29  N   UNL     1      47.453  11.912  19.715  0.00  0.00    +0.000 NA
ATOM     30  C   UNL     1      47.575  12.252  18.474  0.00  0.00    +0.000 A 
ATOM     31  N   UNL     1      47.698  11.375  17.432  0.00  0.00    +0.000 N 
ATOM     32  C   UNL     1      47.731  10.008  17.604  0.00  0.00    +0.000 A 
ATOM     33  O   UNL     1      47.881   9.250  16.651  0.00  0.00    +0.000 OA
ATOM     34  C   UNL     1      47.592   9.571  18.978  0.00  0.00    +0.000 A 
ATOM     35  H   UNL     1      47.794  11.705  16.483  0.00  0.00    +0.000 HD
ENDBRANCH  22  25
ENDBRANCH  20  21
ENDBRANCH   4  20
TORSDOF 8
ENDMDL
MODEL 8
REMARK VINA RESULT:    -6.851      5.013      9.752
REMARK INTER + INTRA:         -10.766
REMARK INTER:                  -9.855
REMARK INTRA:                  -0.911
REMARK UNBOUND:                -0.911
REMARK  Name = 
REMARK  8 active torsions:
REMARK  status: ('A' for Active; 'I' for Inactive)
REMARK    1  A    between atoms: N_1  and  C_2
REMARK    2  A    between atoms: C_2  and  C_3
REMARK    3  A    between atoms: C_2  and  C_24
REMARK    4  A    between atoms: C_3  and  C_4
REMARK    5  A    between atoms: C_7  and  C_8
REMARK    6  A    between atoms: C_8  and  N_9
REMARK    7  A    between atoms: C_10  and  C_12
REMARK    8  A    between atoms: C_24  and  C_26
REMARK                            x       y       z     vdW  Elec       q    Type
REMARK                         _______ _______ _______ _____ _____    ______ ____
ROOT
ATOM      1  C   UNL     1      51.473   3.717  18.169  0.00  0.00    +0.000 A 
ATOM      2  C   UNL     1      50.959   2.616  17.470  0.00  0.00    +0.000 A 
ATOM      3  C   UNL     1      49.611   2.570  17.097  0.00  0.00    +0.000 A 
ATOM      4  C   UNL     1      48.748   3.630  17.403  0.00  0.00    +0.000 A 
ATOM      5  C   UNL     1      49.257   4.724  18.114  0.00  0.00    +0.000 A 
ATOM      6  C   UNL     1      50.606   4.771  18.486  0.00  0.00    +0.000 A 
ENDROOT
BRANCH   1   7
ATOM      7  C   UNL     1      52.920   3.738  18.615  0.00  0.00    +0.000 C 
BRANCH   7   8
ATOM      8  C   UNL     1      53.586   2.387  18.950  0.00  0.00    +0.000 C 
BRANCH   8   9
ATOM      9  N   UNL     1      54.390   2.423  20.190  0.00  0.00    +0.000 NA
ATOM     10  H   UNL     1      55.342   2.718  19.986  0.00  0.00    +0.000 HD
ATOM     11  H   UNL     1      54.458   1.460  20.537  0.00  0.00    +0.000 HD
ENDBRANCH   8   9
BRANCH   8  12
ATOM     12  C   UNL     1      54.469   1.867  17.798  0.00  0.00    +0.000 C 
ATOM     13  O   UNL     1      55.030   2.641  17.017  0.00  0.00    +0.000 OA
BRANCH  12  14
ATOM     14  C   UNL     1      54.654   0.395  17.589  0.00  0.00    +0.000 A 
ATOM     15  C   UNL     1      54.504  -0.554  18.600  0.00  0.00    +0.000 A 
ATOM     16  C   UNL     1      54.731  -1.886  18.286  0.00  0.00    +0.000 A 
ATOM     17  N   UNL     1      55.079  -2.322  17.059  0.00  0.00    +0.000 NA
ATOM     18  C   UNL     1      55.217  -1.389  16.096  0.00  0.00    +0.000 A 
ATOM     19  C   UNL     1      55.018  -0.037  16.309  0.00  0.00    +0.000 A 
ENDBRANCH  12  14
ENDBRANCH   8  12
ENDBRANCH   7   8
ENDBRANCH   1   7
BRANCH   4  20
ATOM     20  C   UNL     1      47.292   3.577  17.021  0.00  0.00    +0.000 C 
BRANCH  20  21
ATOM     21  N   UNL     1      46.984   4.556  16.009  0.00  0.00    +0.000 N 
ATOM     22  C   UNL     1      47.033   4.246  14.675  0.00  0.00    +0.000 C 
ATOM     23  O   UNL     1      47.315   3.118  14.278  0.00  0.00    +0.000 OA
ATOM     24  H   UNL     1      46.971   5.529  16.297  0.00  0.00    +0.000 HD
BRANCH  22  25
ATOM     25  C   UNL     1      46.660   5.314  13.740  0.00  0.00    +0.000 A 
ATOM     26  C   UNL     1      47.565   6.328  13.457  0.00  0.00    +0.000 A 
ATOM     27  S   UNL     1      47.002   7.447  12.299  0.00  0.00    +0.000 S 
ATOM     28  C   UNL     1      45.504   6.650  12.179  0.00  0.00    +0.000 A 
ATOM     29  N   UNL     1      44.530   7.119  11.353  0.00  0.00    +0.000 NA
ATOM     30  C   UNL     1      43.432   6.436  11.385  0.00  0.00    +0.000 A 
ATOM     31  N   UNL     1      43.223   5.331  12.163  0.00  0.00    +0.000 N 
ATOM     32  C   UNL     1      44.189   4.804  12.992  0.00  0.00    +0.000 A 
ATOM     33  O   UNL     1      43.981   3.788  13.648  0.00  0.00    +0.000 OA
ATOM     34  C   UNL     1      45.439   5.537  13.000  0.00  0.00    +0.000 A 
ATOM     35  H   UNL     1      42.343   4.837  12.139  0.00  0.00    +0.000 HD
ENDBRANCH  22  25
ENDBRANCH  20  21
ENDBRANCH   4  20
TORSDOF 8
ENDMDL
MODEL 9
REMARK VINA RESULT:    -6.724      4.275      9.594
REMARK INTER + INTRA:         -10.582
REMARK INTER:                  -9.038
REMARK INTRA:                  -1.545
REMARK UNBOUND:                -0.911
REMARK  Name = 
REMARK  8 active torsions:
REMARK  status: ('A' for Active; 'I' for Inactive)
REMARK    1  A    between atoms: N_1  and  C_2
REMARK    2  A    between atoms: C_2  and  C_3
REMARK    3  A    between atoms: C_2  and  C_24
REMARK    4  A    between atoms: C_3  and  C_4
REMARK    5  A    between atoms: C_7  and  C_8
REMARK    6  A    between atoms: C_8  and  N_9
REMARK    7  A    between atoms: C_10  and  C_12
REMARK    8  A    between atoms: C_24  and  C_26
REMARK                            x       y       z     vdW  Elec       q    Type
REMARK                         _______ _______ _______ _____ _____    ______ ____
ROOT
ATOM      1  C   UNL     1      51.415   3.817  18.073  0.00  0.00    +0.000 A 
ATOM      2  C   UNL     1      50.961   2.638  17.466  0.00  0.00    +0.000 A 
ATOM      3  C   UNL     1      49.623   2.500  17.079  0.00  0.00    +0.000 A 
ATOM      4  C   UNL     1      48.711   3.544  17.278  0.00  0.00    +0.000 A 
ATOM      5  C   UNL     1      49.160   4.717  17.897  0.00  0.00    +0.000 A 
ATOM      6  C   UNL     1      50.498   4.856  18.283  0.00  0.00    +0.000 A 
ENDROOT
BRANCH   1   7
ATOM      7  C   UNL     1      52.851   3.939  18.536  0.00  0.00    +0.000 C 
BRANCH   7   8
ATOM      8  C   UNL     1      53.850   4.645  17.595  0.00  0.00    +0.000 C 
BRANCH   8   9
ATOM      9  N   UNL     1      55.199   4.042  17.615  0.00  0.00    +0.000 NA
ATOM     10  H   UNL     1      55.763   4.461  18.350  0.00  0.00    +0.000 HD
ATOM     11  H   UNL     1      55.656   4.288  16.729  0.00  0.00    +0.000 HD
ENDBRANCH   8   9
BRANCH   8  12
ATOM     12  C   UNL     1      53.973   6.153  17.895  0.00  0.00    +0.000 C 
ATOM     13  O   UNL     1      54.768   6.578  18.737  0.00  0.00    +0.000 OA
BRANCH  12  14
ATOM     14  C   UNL     1      53.107   7.142  17.175  0.00  0.00    +0.000 A 
ATOM     15  C   UNL     1      52.496   6.886  15.948  0.00  0.00    +0.000 A 
ATOM     16  C   UNL     1      51.742   7.896  15.369  0.00  0.00    +0.000 A 
ATOM     17  N   UNL     1      51.555   9.109  15.926  0.00  0.00    +0.000 NA
ATOM     18  C   UNL     1      52.153   9.336  17.112  0.00  0.00    +0.000 A 
ATOM     19  C   UNL     1      52.928   8.397  17.768  0.00  0.00    +0.000 A 
ENDBRANCH  12  14
ENDBRANCH   8  12
ENDBRANCH   7   8
ENDBRANCH   1   7
BRANCH   4  20
ATOM     20  C   UNL     1      47.265   3.395  16.880  0.00  0.00    +0.000 C 
BRANCH  20  21
ATOM     21  N   UNL     1      46.881   4.405  15.926  0.00  0.00    +0.000 N 
ATOM     22  C   UNL     1      46.937   4.172  14.576  0.00  0.00    +0.000 C 
ATOM     23  O   UNL     1      47.290   3.089  14.116  0.00  0.00    +0.000 OA
ATOM     24  H   UNL     1      46.806   5.357  16.268  0.00  0.00    +0.000 HD
BRANCH  22  25
ATOM     25  C   UNL     1      46.482   5.263  13.705  0.00  0.00    +0.000 A 
ATOM     26  C   UNL     1      47.284   6.383  13.530  0.00  0.00    +0.000 A 
ATOM     27  S   UNL     1      46.642   7.520  12.432  0.00  0.00    +0.000 S 
ATOM     28  C   UNL     1      45.241   6.584  12.199  0.00  0.00    +0.000 A 
ATOM     29  N   UNL     1      44.249   7.010  11.370  0.00  0.00    +0.000 NA
ATOM     30  C   UNL     1      43.230   6.217  11.311  0.00  0.00    +0.000 A 
ATOM     31  N   UNL     1      43.114   5.041  12.001  0.00  0.00    +0.000 N 
ATOM     32  C   UNL     1      44.104   4.557  12.827  0.00  0.00    +0.000 A 
ATOM     33  O   UNL     1      43.984   3.480  13.401  0.00  0.00    +0.000 OA
ATOM     34  C   UNL     1      45.269   5.413  12.936  0.00  0.00    +0.000 A 
ATOM     35  H   UNL     1      42.292   4.463  11.907  0.00  0.00    +0.000 HD
ENDBRANCH  22  25
ENDBRANCH  20  21
ENDBRANCH   4  20
TORSDOF 8
ENDMDL
