MODEL 1
REMARK VINA RESULT:    -6.490      0.000      0.000
REMARK INTER + INTRA:          -8.974
REMARK INTER:                  -8.387
REMARK INTRA:                  -0.587
REMARK UNBOUND:                -0.587
REMARK  Name = 
REMARK  7 active torsions:
REMARK  status: ('A' for Active; 'I' for Inactive)
REMARK    1  A    between atoms: C_1  and  C_2
REMARK    2  A    between atoms: C_6  and  C_7
REMARK    3  A    between atoms: C_8  and  C_9
REMARK    4  A    between atoms: C_12  and  C_13
REMARK    5  A    between atoms: C_13  and  N_14
REMARK    6  A    between atoms: C_15  and  C_17
REMARK    7  A    between atoms: C_24  and  C_25
REMARK                            x       y       z     vdW  Elec       q    Type
REMARK                         _______ _______ _______ _____ _____    ______ ____
ROOT
ATOM      1  C   UNL     1      45.226   6.993  12.226  0.00  0.00    +0.000 A 
ATOM      2  C   UNL     1      44.422   5.927  12.602  0.00  0.00    +0.000 A 
ATOM      3  N   UNL     1      44.893   4.848  13.277  0.00  0.00    +0.000 NA
ATOM      4  C   UNL     1      46.224   4.867  13.559  0.00  0.00    +0.000 A 
ATOM      5  C   UNL     1      47.033   5.930  13.158  0.00  0.00    +0.000 A 
ATOM      6  N   UNL     1      46.556   7.011  12.483  0.00  0.00    +0.000 NA
ENDROOT
BRANCH   1   8
ATOM      7  C   UNL     1      44.221   9.122  11.060  0.00  0.00    +0.000 C 
ATOM      8  C   UNL     1      44.692   8.166  11.607  0.00  0.00    +0.000 C 
BRANCH   7  14
ATOM      9  C   UNL     1      40.186  11.468   9.871  0.00  0.00    +0.000 C 
ATOM     10  C   UNL     1      41.682  11.367   9.862  0.00  0.00    +0.000 A 
ATOM     11  C   UNL     1      42.454  12.359   9.256  0.00  0.00    +0.000 A 
ATOM     12  N   UNL     1      43.807  12.319   9.225  0.00  0.00    +0.000 NA
ATOM     13  C   UNL     1      44.363  11.240   9.826  0.00  0.00    +0.000 A 
ATOM     14  C   UNL     1      43.604  10.247  10.427  0.00  0.00    +0.000 A 
ATOM     15  N   UNL     1      42.250  10.288  10.461  0.00  0.00    +0.000 NA
ENDBRANCH   7  14
ENDBRANCH   1   8
BRANCH   4  16
ATOM     16  C   UNL     1      46.788   3.721  14.361  0.00  0.00    +0.000 C 
BRANCH  16  17
ATOM     17  N   UNL     1      47.702   4.158  15.404  0.00  0.00    +0.000 N 
ATOM     18  C   UNL     1      47.473   3.867  16.722  0.00  0.00    +0.000 C 
ATOM     19  O   UNL     1      46.514   3.174  17.061  0.00  0.00    +0.000 OA
ATOM     20  H   UNL     1      48.431   4.807  15.147  0.00  0.00    +0.000 HD
BRANCH  18  21
ATOM     21  C   UNL     1      48.327   4.538  17.710  0.00  0.00    +0.000 A 
ATOM     22  C   UNL     1      47.748   5.543  18.478  0.00  0.00    +0.000 A 
ATOM     23  S   UNL     1      48.863   6.421  19.406  0.00  0.00    +0.000 S 
ATOM     24  C   UNL     1      50.157   5.545  18.742  0.00  0.00    +0.000 A 
ATOM     25  N   UNL     1      51.414   5.959  18.989  0.00  0.00    +0.000 NA
ATOM     26  C   UNL     1      52.363   5.184  18.452  0.00  0.00    +0.000 A 
ATOM     27  C   UNL     1      52.125   3.969  17.842  0.00  0.00    +0.000 A 
ATOM     28  C   UNL     1      50.804   3.507  17.679  0.00  0.00    +0.000 A 
ATOM     29  C   UNL     1      50.629   2.059  17.289  0.00  0.00    +0.000 C 
ATOM     30  C   UNL     1      49.756   4.425  18.002  0.00  0.00    +0.000 A 
ENDBRANCH  18  21
ENDBRANCH  16  17
ENDBRANCH   4  16
TORSDOF 5
ENDMDL
MODEL 2
REMARK VINA RESULT:    -6.068      4.108      5.561
REMARK INTER + INTRA:          -8.429
REMARK INTER:                  -7.838
REMARK INTRA:                  -0.590
REMARK UNBOUND:                -0.587
REMARK  Name = 
REMARK  7 active torsions:
REMARK  status: ('A' for Active; 'I' for Inactive)
REMARK    1  A    between atoms: C_1  and  C_2
REMARK    2  A    between atoms: C_6  and  C_7
REMARK    3  A    between atoms: C_8  and  C_9
REMARK    4  A    between atoms: C_12  and  C_13
REMARK    5  A    between atoms: C_13  and  N_14
REMARK    6  A    between atoms: C_15  and  C_17
REMARK    7  A    between atoms: C_24  and  C_25
REMARK                            x       y       z     vdW  Elec       q    Type
REMARK                         _______ _______ _______ _____ _____    ______ ____
ROOT
ATOM      1  C   UNL     1      48.468   6.491  14.502  0.00  0.00    +0.000 A 
ATOM      2  C   UNL     1      49.492   7.303  14.038  0.00  0.00    +0.000 A 
ATOM      3  N   UNL     1      50.639   7.516  14.732  0.00  0.00    +0.000 NA
ATOM      4  C   UNL     1      50.722   6.886  15.936  0.00  0.00    +0.000 A 
ATOM      5  C   UNL     1      49.680   6.090  16.408  0.00  0.00    +0.000 A 
ATOM      6  N   UNL     1      48.533   5.877  15.708  0.00  0.00    +0.000 NA
ENDROOT
BRANCH   1   8
ATOM      7  C   UNL     1      46.350   5.908  13.061  0.00  0.00    +0.000 C 
ATOM      8  C   UNL     1      47.314   6.198  13.711  0.00  0.00    +0.000 C 
BRANCH   7  14
ATOM      9  C   UNL     1      44.380   4.148   9.034  0.00  0.00    +0.000 C 
ATOM     10  C   UNL     1      44.231   4.707  10.417  0.00  0.00    +0.000 A 
ATOM     11  C   UNL     1      42.967   4.862  10.985  0.00  0.00    +0.000 A 
ATOM     12  N   UNL     1      42.778   5.356  12.232  0.00  0.00    +0.000 NA
ATOM     13  C   UNL     1      43.910   5.694  12.893  0.00  0.00    +0.000 A 
ATOM     14  C   UNL     1      45.171   5.549  12.335  0.00  0.00    +0.000 A 
ATOM     15  N   UNL     1      45.361   5.051  11.088  0.00  0.00    +0.000 NA
ENDBRANCH   7  14
ENDBRANCH   1   8
BRANCH   4  16
ATOM     16  C   UNL     1      52.001   7.040  16.721  0.00  0.00    +0.000 C 
BRANCH  16  17
ATOM     17  N   UNL     1      52.444   5.795  17.327  0.00  0.00    +0.000 N 
ATOM     18  C   UNL     1      52.250   5.539  18.658  0.00  0.00    +0.000 C 
ATOM     19  O   UNL     1      51.639   6.334  19.373  0.00  0.00    +0.000 OA
ATOM     20  H   UNL     1      53.031   5.187  16.775  0.00  0.00    +0.000 HD
BRANCH  18  21
ATOM     21  C   UNL     1      52.928   4.364  19.216  0.00  0.00    +0.000 A 
ATOM     22  C   UNL     1      53.767   4.566  20.307  0.00  0.00    +0.000 A 
ATOM     23  S   UNL     1      54.689   3.204  20.721  0.00  0.00    +0.000 S 
ATOM     24  C   UNL     1      54.061   2.336  19.404  0.00  0.00    +0.000 A 
ATOM     25  N   UNL     1      54.610   1.148  19.090  0.00  0.00    +0.000 NA
ATOM     26  C   UNL     1      54.024   0.527  18.061  0.00  0.00    +0.000 A 
ATOM     27  C   UNL     1      52.854   0.946  17.460  0.00  0.00    +0.000 A 
ATOM     28  C   UNL     1      52.240   2.146  17.870  0.00  0.00    +0.000 A 
ATOM     29  C   UNL     1      50.827   2.388  17.397  0.00  0.00    +0.000 C 
ATOM     30  C   UNL     1      52.975   2.967  18.782  0.00  0.00    +0.000 A 
ENDBRANCH  18  21
ENDBRANCH  16  17
ENDBRANCH   4  16
TORSDOF 5
ENDMDL
MODEL 3
REMARK VINA RESULT:    -5.944      4.123      6.133
REMARK INTER + INTRA:          -8.268
REMARK INTER:                  -7.694
REMARK INTRA:                  -0.575
REMARK UNBOUND:                -0.587
REMARK  Name = 
REMARK  7 active torsions:
REMARK  status: ('A' for Active; 'I' for Inactive)
REMARK    1  A    between atoms: C_1  and  C_2
REMARK    2  A    between atoms: C_6  and  C_7
REMARK    3  A    between atoms: C_8  and  C_9
REMARK    4  A    between atoms: C_12  and  C_13
REMARK    5  A    between atoms: C_13  and  N_14
REMARK    6  A    between atoms: C_15  and  C_17
REMARK    7  A    between atoms: C_24  and  C_25
REMARK                            x       y       z     vdW  Elec       q    Type
REMARK                         _______ _______ _______ _____ _____    ______ ____
ROOT
ATOM      1  C   UNL     1      47.441   4.567  15.423  0.00  0.00    +0.000 A 
ATOM      2  C   UNL     1      47.165   3.737  16.499  0.00  0.00    +0.000 A 
ATOM      3  N   UNL     1      47.796   3.844  17.696  0.00  0.00    +0.000 NA
ATOM      4  C   UNL     1      48.740   4.822  17.776  0.00  0.00    +0.000 A 
ATOM      5  C   UNL     1      49.030   5.638  16.684  0.00  0.00    +0.000 A 
ATOM      6  N   UNL     1      48.393   5.529  15.486  0.00  0.00    +0.000 NA
ENDROOT
BRANCH   1   8
ATOM      7  C   UNL     1      46.054   4.412  13.197  0.00  0.00    +0.000 C 
ATOM      8  C   UNL     1      46.694   4.505  14.205  0.00  0.00    +0.000 C 
BRANCH   7  14
ATOM      9  C   UNL     1      45.044   2.084   9.103  0.00  0.00    +0.000 C 
ATOM     10  C   UNL     1      44.756   3.189  10.076  0.00  0.00    +0.000 A 
ATOM     11  C   UNL     1      43.707   4.079   9.845  0.00  0.00    +0.000 A 
ATOM     12  N   UNL     1      43.402   5.089  10.694  0.00  0.00    +0.000 NA
ATOM     13  C   UNL     1      44.193   5.176  11.790  0.00  0.00    +0.000 A 
ATOM     14  C   UNL     1      45.240   4.299  12.026  0.00  0.00    +0.000 A 
ATOM     15  N   UNL     1      45.544   3.286  11.178  0.00  0.00    +0.000 NA
ENDBRANCH   7  14
ENDBRANCH   1   8
BRANCH   4  16
ATOM     16  C   UNL     1      49.429   5.024  19.103  0.00  0.00    +0.000 C 
BRANCH  16  17
ATOM     17  N   UNL     1      50.575   4.149  19.283  0.00  0.00    +0.000 N 
ATOM     18  C   UNL     1      51.828   4.519  18.872  0.00  0.00    +0.000 C 
ATOM     19  O   UNL     1      52.033   5.632  18.390  0.00  0.00    +0.000 OA
ATOM     20  H   UNL     1      50.399   3.202  19.584  0.00  0.00    +0.000 HD
BRANCH  18  21
ATOM     21  C   UNL     1      52.868   3.484  18.894  0.00  0.00    +0.000 A 
ATOM     22  C   UNL     1      52.952   2.638  17.793  0.00  0.00    +0.000 A 
ATOM     23  S   UNL     1      54.009   1.331  18.016  0.00  0.00    +0.000 S 
ATOM     24  C   UNL     1      54.316   1.807  19.617  0.00  0.00    +0.000 A 
ATOM     25  N   UNL     1      55.002   0.973  20.420  0.00  0.00    +0.000 NA
ATOM     26  C   UNL     1      55.222   1.452  21.649  0.00  0.00    +0.000 A 
ATOM     27  C   UNL     1      54.942   2.745  22.044  0.00  0.00    +0.000 A 
ATOM     28  C   UNL     1      54.308   3.634  21.154  0.00  0.00    +0.000 A 
ATOM     29  C   UNL     1      54.307   5.095  21.532  0.00  0.00    +0.000 C 
ATOM     30  C   UNL     1      53.823   3.081  19.928  0.00  0.00    +0.000 A 
ENDBRANCH  18  21
ENDBRANCH  16  17
ENDBRANCH   4  16
TORSDOF 5
ENDMDL
MODEL 4
REMARK VINA RESULT:    -5.928      3.881      6.154
REMARK INTER + INTRA:          -8.247
REMARK INTER:                  -7.500
REMARK INTRA:                  -0.747
REMARK UNBOUND:                -0.587
REMARK  Name = 
REMARK  7 active torsions:
REMARK  status: ('A' for Active; 'I' for Inactive)
REMARK    1  A    between atoms: C_1  and  C_2
REMARK    2  A    between atoms: C_6  and  C_7
REMARK    3  A    between atoms: C_8  and  C_9
REMARK    4  A    between atoms: C_12  and  C_13
REMARK    5  A    between atoms: C_13  and  N_14
REMARK    6  A    between atoms: C_15  and  C_17
REMARK    7  A    between atoms: C_24  and  C_25
REMARK                            x       y       z     vdW  Elec       q    Type
REMARK                         _______ _______ _______ _____ _____    ______ ____
ROOT
ATOM      1  C   UNL     1      47.666   4.517  15.736  0.00  0.00    +0.000 A 
ATOM      2  C   UNL     1      47.727   3.430  16.595  0.00  0.00    +0.000 A 
ATOM      3  N   UNL     1      48.592   3.359  17.639  0.00  0.00    +0.000 NA
ATOM      4  C   UNL     1      49.419   4.430  17.789  0.00  0.00    +0.000 A 
ATOM      5  C   UNL     1      49.370   5.511  16.909  0.00  0.00    +0.000 A 
ATOM      6  N   UNL     1      48.499   5.579  15.865  0.00  0.00    +0.000 NA
ENDROOT
BRANCH   1   8
ATOM      7  C   UNL     1      45.880   4.729  13.822  0.00  0.00    +0.000 C 
ATOM      8  C   UNL     1      46.679   4.618  14.707  0.00  0.00    +0.000 C 
BRANCH   7  14
ATOM      9  C   UNL     1      45.055   4.294   9.096  0.00  0.00    +0.000 C 
ATOM     10  C   UNL     1      44.569   4.625  10.476  0.00  0.00    +0.000 A 
ATOM     11  C   UNL     1      43.247   5.016  10.685  0.00  0.00    +0.000 A 
ATOM     12  N   UNL     1      42.757   5.319  11.911  0.00  0.00    +0.000 NA
ATOM     13  C   UNL     1      43.647   5.218  12.926  0.00  0.00    +0.000 A 
ATOM     14  C   UNL     1      44.964   4.834  12.728  0.00  0.00    +0.000 A 
ATOM     15  N   UNL     1      45.454   4.528  11.502  0.00  0.00    +0.000 NA
ENDBRANCH   7  14
ENDBRANCH   1   8
BRANCH   4  16
ATOM     16  C   UNL     1      50.358   4.431  18.969  0.00  0.00    +0.000 C 
BRANCH  16  17
ATOM     17  N   UNL     1      50.529   5.750  19.555  0.00  0.00    +0.000 N 
ATOM     18  C   UNL     1      49.749   6.176  20.597  0.00  0.00    +0.000 C 
ATOM     19  O   UNL     1      48.916   5.430  21.110  0.00  0.00    +0.000 OA
ATOM     20  H   UNL     1      51.136   6.400  19.078  0.00  0.00    +0.000 HD
BRANCH  18  21
ATOM     21  C   UNL     1      49.847   7.593  20.965  0.00  0.00    +0.000 A 
ATOM     22  C   UNL     1      50.961   7.989  21.698  0.00  0.00    +0.000 A 
ATOM     23  S   UNL     1      50.863   9.577  22.284  0.00  0.00    +0.000 S 
ATOM     24  C   UNL     1      49.296   9.751  21.653  0.00  0.00    +0.000 A 
ATOM     25  N   UNL     1      48.578  10.837  21.993  0.00  0.00    +0.000 NA
ATOM     26  C   UNL     1      47.372  10.899  21.418  0.00  0.00    +0.000 A 
ATOM     27  C   UNL     1      46.934  10.043  20.428  0.00  0.00    +0.000 A 
ATOM     28  C   UNL     1      47.744   8.966  20.017  0.00  0.00    +0.000 A 
ATOM     29  C   UNL     1      47.350   8.262  18.741  0.00  0.00    +0.000 C 
ATOM     30  C   UNL     1      48.921   8.713  20.789  0.00  0.00    +0.000 A 
ENDBRANCH  18  21
ENDBRANCH  16  17
ENDBRANCH   4  16
TORSDOF 5
ENDMDL
MODEL 5
REMARK VINA RESULT:    -5.918      4.863      6.747
REMARK INTER + INTRA:          -8.235
REMARK INTER:                  -7.605
REMARK INTRA:                  -0.630
REMARK UNBOUND:                -0.587
REMARK  Name = 
REMARK  7 active torsions:
REMARK  status: ('A' for Active; 'I' for Inactive)
REMARK    1  A    between atoms: C_1  and  C_2
REMARK    2  A    between atoms: C_6  and  C_7
REMARK    3  A    between atoms: C_8  and  C_9
REMARK    4  A    between atoms: C_12  and  C_13
REMARK    5  A    between atoms: C_13  and  N_14
REMARK    6  A    between atoms: C_15  and  C_17
REMARK    7  A    between atoms: C_24  and  C_25
REMARK                            x       y       z     vdW  Elec       q    Type
REMARK                         _______ _______ _______ _____ _____    ______ ____
ROOT
ATOM      1  C   UNL     1      47.045   7.878  12.458  0.00  0.00    +0.000 A 
ATOM      2  C   UNL     1      47.174   9.201  12.063  0.00  0.00    +0.000 A 
ATOM      3  N   UNL     1      47.817  10.136  12.809  0.00  0.00    +0.000 NA
ATOM      4  C   UNL     1      48.326   9.694  13.992  0.00  0.00    +0.000 A 
ATOM      5  C   UNL     1      48.172   8.368  14.395  0.00  0.00    +0.000 A 
ATOM      6  N   UNL     1      47.530   7.434  13.643  0.00  0.00    +0.000 NA
ENDROOT
BRANCH   1   8
ATOM      7  C   UNL     1      46.003   6.036  10.901  0.00  0.00    +0.000 C 
ATOM      8  C   UNL     1      46.456   6.887  11.612  0.00  0.00    +0.000 C 
BRANCH   7  14
ATOM      9  C   UNL     1      46.111   3.572   6.765  0.00  0.00    +0.000 C 
ATOM     10  C   UNL     1      45.524   3.803   8.125  0.00  0.00    +0.000 A 
ATOM     11  C   UNL     1      44.490   2.994   8.596  0.00  0.00    +0.000 A 
ATOM     12  N   UNL     1      43.930   3.157   9.819  0.00  0.00    +0.000 NA
ATOM     13  C   UNL     1      44.447   4.168  10.557  0.00  0.00    +0.000 A 
ATOM     14  C   UNL     1      45.472   4.980  10.096  0.00  0.00    +0.000 A 
ATOM     15  N   UNL     1      46.034   4.815   8.874  0.00  0.00    +0.000 NA
ENDBRANCH   7  14
ENDBRANCH   1   8
BRANCH   4  16
ATOM     16  C   UNL     1      49.102  10.678  14.831  0.00  0.00    +0.000 C 
BRANCH  16  17
ATOM     17  N   UNL     1      48.355  11.147  15.987  0.00  0.00    +0.000 N 
ATOM     18  C   UNL     1      48.646  10.711  17.252  0.00  0.00    +0.000 C 
ATOM     19  O   UNL     1      49.592   9.950  17.457  0.00  0.00    +0.000 OA
ATOM     20  H   UNL     1      47.521  11.689  15.817  0.00  0.00    +0.000 HD
BRANCH  18  21
ATOM     21  C   UNL     1      47.698  11.067  18.313  0.00  0.00    +0.000 A 
ATOM     22  C   UNL     1      47.158  12.349  18.285  0.00  0.00    +0.000 A 
ATOM     23  S   UNL     1      46.274  12.748  19.677  0.00  0.00    +0.000 S 
ATOM     24  C   UNL     1      46.662  11.258  20.392  0.00  0.00    +0.000 A 
ATOM     25  N   UNL     1      46.361  11.064  21.690  0.00  0.00    +0.000 NA
ATOM     26  C   UNL     1      46.673   9.848  22.151  0.00  0.00    +0.000 A 
ATOM     27  C   UNL     1      47.105   8.802  21.361  0.00  0.00    +0.000 A 
ATOM     28  C   UNL     1      47.323   9.000  19.983  0.00  0.00    +0.000 A 
ATOM     29  C   UNL     1      47.495   7.764  19.133  0.00  0.00    +0.000 C 
ATOM     30  C   UNL     1      47.252  10.346  19.506  0.00  0.00    +0.000 A 
ENDBRANCH  18  21
ENDBRANCH  16  17
ENDBRANCH   4  16
TORSDOF 5
ENDMDL
MODEL 6
REMARK VINA RESULT:    -5.776      2.502      3.897
REMARK INTER + INTRA:          -8.051
REMARK INTER:                  -7.445
REMARK INTRA:                  -0.606
REMARK UNBOUND:                -0.587
REMARK  Name = 
REMARK  7 active torsions:
REMARK  status: ('A' for Active; 'I' for Inactive)
REMARK    1  A    between atoms: C_1  and  C_2
REMARK    2  A    between atoms: C_6  and  C_7
REMARK    3  A    between atoms: C_8  and  C_9
REMARK    4  A    between atoms: C_12  and  C_13
REMARK    5  A    between atoms: C_13  and  N_14
REMARK    6  A    between atoms: C_15  and  C_17
REMARK    7  A    between atoms: C_24  and  C_25
REMARK                            x       y       z     vdW  Elec       q    Type
REMARK                         _______ _______ _______ _____ _____    ______ ____
ROOT
ATOM      1  C   UNL     1      44.683   9.766  11.532  0.00  0.00    +0.000 A 
ATOM      2  C   UNL     1      45.162   8.500  11.833  0.00  0.00    +0.000 A 
ATOM      3  N   UNL     1      46.445   8.266  12.211  0.00  0.00    +0.000 NA
ATOM      4  C   UNL     1      47.250   9.363  12.265  0.00  0.00    +0.000 A 
ATOM      5  C   UNL     1      46.769  10.630  11.937  0.00  0.00    +0.000 A 
ATOM      6  N   UNL     1      45.482  10.861  11.562  0.00  0.00    +0.000 NA
ENDROOT
BRANCH   1   8
ATOM      7  C   UNL     1      42.154  10.248  11.006  0.00  0.00    +0.000 C 
ATOM      8  C   UNL     1      43.304  10.006  11.237  0.00  0.00    +0.000 C 
BRANCH   7  14
ATOM      9  C   UNL     1      37.458   9.440  11.704  0.00  0.00    +0.000 C 
ATOM     10  C   UNL     1      38.560  10.196  11.024  0.00  0.00    +0.000 A 
ATOM     11  C   UNL     1      38.264  11.209  10.111  0.00  0.00    +0.000 A 
ATOM     12  N   UNL     1      39.221  11.925   9.475  0.00  0.00    +0.000 NA
ATOM     13  C   UNL     1      40.495  11.586   9.788  0.00  0.00    +0.000 A 
ATOM     14  C   UNL     1      40.799  10.579  10.690  0.00  0.00    +0.000 A 
ATOM     15  N   UNL     1      39.841   9.864  11.330  0.00  0.00    +0.000 NA
ENDBRANCH   7  14
ENDBRANCH   1   8
BRANCH   4  16
ATOM     16  C   UNL     1      48.669   9.168  12.737  0.00  0.00    +0.000 C 
BRANCH  16  17
ATOM     17  N   UNL     1      48.747   8.661  14.097  0.00  0.00    +0.000 N 
ATOM     18  C   UNL     1      49.001   7.340  14.354  0.00  0.00    +0.000 C 
ATOM     19  O   UNL     1      49.231   6.550  13.438  0.00  0.00    +0.000 OA
ATOM     20  H   UNL     1      48.463   9.277  14.844  0.00  0.00    +0.000 HD
BRANCH  18  21
ATOM     21  C   UNL     1      48.838   6.888  15.740  0.00  0.00    +0.000 A 
ATOM     22  C   UNL     1      49.298   7.731  16.747  0.00  0.00    +0.000 A 
ATOM     23  S   UNL     1      49.292   7.022  18.287  0.00  0.00    +0.000 S 
ATOM     24  C   UNL     1      48.761   5.544  17.642  0.00  0.00    +0.000 A 
ATOM     25  N   UNL     1      48.750   4.457  18.437  0.00  0.00    +0.000 NA
ATOM     26  C   UNL     1      48.282   3.351  17.848  0.00  0.00    +0.000 A 
ATOM     27  C   UNL     1      47.694   3.321  16.600  0.00  0.00    +0.000 A 
ATOM     28  C   UNL     1      47.629   4.494  15.821  0.00  0.00    +0.000 A 
ATOM     29  C   UNL     1      46.716   4.467  14.618  0.00  0.00    +0.000 C 
ATOM     30  C   UNL     1      48.349   5.630  16.306  0.00  0.00    +0.000 A 
ENDBRANCH  18  21
ENDBRANCH  16  17
ENDBRANCH   4  16
TORSDOF 5
ENDMDL
MODEL 7
REMARK VINA RESULT:    -5.726      4.243     12.090
REMARK INTER + INTRA:          -7.987
REMARK INTER:                  -7.630
REMARK INTRA:                  -0.357
REMARK UNBOUND:                -0.587
REMARK  Name = 
REMARK  7 active torsions:
REMARK  status: ('A' for Active; 'I' for Inactive)
REMARK    1  A    between atoms: C_1  and  C_2
REMARK    2  A    between atoms: C_6  and  C_7
REMARK    3  A    between atoms: C_8  and  C_9
REMARK    4  A    between atoms: C_12  and  C_13
REMARK    5  A    between atoms: C_13  and  N_14
REMARK    6  A    between atoms: C_15  and  C_17
REMARK    7  A    between atoms: C_24  and  C_25
REMARK                            x       y       z     vdW  Elec       q    Type
REMARK                         _______ _______ _______ _____ _____    ______ ____
ROOT
ATOM      1  C   UNL     1      50.713   2.167  17.189  0.00  0.00    +0.000 A 
ATOM      2  C   UNL     1      50.826   3.489  17.593  0.00  0.00    +0.000 A 
ATOM      3  N   UNL     1      49.869   4.421  17.351  0.00  0.00    +0.000 NA
ATOM      4  C   UNL     1      48.778   3.977  16.667  0.00  0.00    +0.000 A 
ATOM      5  C   UNL     1      48.680   2.653  16.243  0.00  0.00    +0.000 A 
ATOM      6  N   UNL     1      49.641   1.721  16.490  0.00  0.00    +0.000 NA
ENDROOT
BRANCH   1   8
ATOM      7  C   UNL     1      52.468   0.319  17.827  0.00  0.00    +0.000 C 
ATOM      8  C   UNL     1      51.683   1.179  17.544  0.00  0.00    +0.000 C 
BRANCH   7  14
ATOM      9  C   UNL     1      54.199  -2.924  20.939  0.00  0.00    +0.000 C 
ATOM     10  C   UNL     1      54.232  -2.271  19.590  0.00  0.00    +0.000 A 
ATOM     11  C   UNL     1      55.153  -2.681  18.627  0.00  0.00    +0.000 A 
ATOM     12  N   UNL     1      55.220  -2.129  17.392  0.00  0.00    +0.000 NA
ATOM     13  C   UNL     1      54.324  -1.141  17.156  0.00  0.00    +0.000 A 
ATOM     14  C   UNL     1      53.407  -0.723  18.108  0.00  0.00    +0.000 A 
ATOM     15  N   UNL     1      53.338  -1.278  19.343  0.00  0.00    +0.000 NA
ENDBRANCH   7  14
ENDBRANCH   1   8
BRANCH   4  16
ATOM     16  C   UNL     1      47.657   4.957  16.424  0.00  0.00    +0.000 C 
BRANCH  16  17
ATOM     17  N   UNL     1      46.754   4.531  15.368  0.00  0.00    +0.000 N 
ATOM     18  C   UNL     1      46.920   4.947  14.074  0.00  0.00    +0.000 C 
ATOM     19  O   UNL     1      47.878   5.651  13.754  0.00  0.00    +0.000 OA
ATOM     20  H   UNL     1      45.915   4.040  15.638  0.00  0.00    +0.000 HD
BRANCH  18  21
ATOM     21  C   UNL     1      45.835   4.646  13.133  0.00  0.00    +0.000 A 
ATOM     22  C   UNL     1      44.795   3.843  13.591  0.00  0.00    +0.000 A 
ATOM     23  S   UNL     1      43.725   3.351  12.371  0.00  0.00    +0.000 S 
ATOM     24  C   UNL     1      44.668   4.119  11.186  0.00  0.00    +0.000 A 
ATOM     25  N   UNL     1      44.385   3.898   9.889  0.00  0.00    +0.000 NA
ATOM     26  C   UNL     1      45.159   4.574   9.034  0.00  0.00    +0.000 A 
ATOM     27  C   UNL     1      46.060   5.552   9.405  0.00  0.00    +0.000 A 
ATOM     28  C   UNL     1      46.272   5.838  10.768  0.00  0.00    +0.000 A 
ATOM     29  C   UNL     1      47.027   7.104  11.093  0.00  0.00    +0.000 C 
ATOM     30  C   UNL     1      45.659   4.957  11.714  0.00  0.00    +0.000 A 
ENDBRANCH  18  21
ENDBRANCH  16  17
ENDBRANCH   4  16
TORSDOF 5
ENDMDL
MODEL 8
REMARK VINA RESULT:    -5.355      4.022     11.845
REMARK INTER + INTRA:          -7.507
REMARK INTER:                  -7.077
REMARK INTRA:                  -0.430
REMARK UNBOUND:                -0.587
REMARK  Name = 
REMARK  7 active torsions:
REMARK  status: ('A' for Active; 'I' for Inactive)
REMARK    1  A    between atoms: C_1  and  C_2
REMARK    2  A    between atoms: C_6  and  C_7
REMARK    3  A    between atoms: C_8  and  C_9
REMARK    4  A    between atoms: C_12  and  C_13
REMARK    5  A    between atoms: C_13  and  N_14
REMARK    6  A    between atoms: C_15  and  C_17
REMARK    7  A    between atoms: C_24  and  C_25
REMARK                            x       y       z     vdW  Elec       q    Type
REMARK                         _______ _______ _______ _____ _____    ______ ____
ROOT
ATOM      1  C   UNL     1      51.251   2.600  17.422  0.00  0.00    +0.000 A 
ATOM      2  C   UNL     1      51.536   3.872  17.895  0.00  0.00    +0.000 A 
ATOM      3  N   UNL     1      50.656   4.903  17.818  0.00  0.00    +0.000 NA
ATOM      4  C   UNL     1      49.463   4.615  17.229  0.00  0.00    +0.000 A 
ATOM      5  C   UNL     1      49.192   3.340  16.733  0.00  0.00    +0.000 A 
ATOM      6  N   UNL     1      50.075   2.308  16.815  0.00  0.00    +0.000 NA
ENDROOT
BRANCH   1   8
ATOM      7  C   UNL     1      52.869   0.560  17.778  0.00  0.00    +0.000 C 
ATOM      8  C   UNL     1      52.150   1.503  17.606  0.00  0.00    +0.000 C 
BRANCH   7  14
ATOM      9  C   UNL     1      54.819  -2.702  20.736  0.00  0.00    +0.000 C 
ATOM     10  C   UNL     1      54.621  -2.154  19.354  0.00  0.00    +0.000 A 
ATOM     11  C   UNL     1      55.223  -2.769  18.256  0.00  0.00    +0.000 A 
ATOM     12  N   UNL     1      55.072  -2.317  16.989  0.00  0.00    +0.000 NA
ATOM     13  C   UNL     1      54.292  -1.217  16.860  0.00  0.00    +0.000 A 
ATOM     14  C   UNL     1      53.693  -0.596  17.946  0.00  0.00    +0.000 A 
ATOM     15  N   UNL     1      53.842  -1.050  19.214  0.00  0.00    +0.000 NA
ENDBRANCH   7  14
ENDBRANCH   1   8
BRANCH   4  16
ATOM     16  C   UNL     1      48.427   5.708  17.171  0.00  0.00    +0.000 C 
BRANCH  16  17
ATOM     17  N   UNL     1      47.777   5.804  15.874  0.00  0.00    +0.000 N 
ATOM     18  C   UNL     1      48.137   6.761  14.963  0.00  0.00    +0.000 C 
ATOM     19  O   UNL     1      49.066   7.536  15.193  0.00  0.00    +0.000 OA
ATOM     20  H   UNL     1      46.954   5.241  15.720  0.00  0.00    +0.000 HD
BRANCH  18  21
ATOM     21  C   UNL     1      47.277   6.915  13.785  0.00  0.00    +0.000 A 
ATOM     22  C   UNL     1      47.262   8.158  13.161  0.00  0.00    +0.000 A 
ATOM     23  S   UNL     1      46.063   8.311  11.972  0.00  0.00    +0.000 S 
ATOM     24  C   UNL     1      45.474   6.756  12.317  0.00  0.00    +0.000 A 
ATOM     25  N   UNL     1      44.311   6.366  11.762  0.00  0.00    +0.000 NA
ATOM     26  C   UNL     1      43.950   5.114  12.066  0.00  0.00    +0.000 A 
ATOM     27  C   UNL     1      44.751   4.213  12.739  0.00  0.00    +0.000 A 
ATOM     28  C   UNL     1      46.009   4.615  13.230  0.00  0.00    +0.000 A 
ATOM     29  C   UNL     1      46.949   3.523  13.679  0.00  0.00    +0.000 C 
ATOM     30  C   UNL     1      46.314   6.010  13.154  0.00  0.00    +0.000 A 
ENDBRANCH  18  21
ENDBRANCH  16  17
ENDBRANCH   4  16
TORSDOF 5
ENDMDL
MODEL 9
REMARK VINA RESULT:    -5.219      3.858      6.877
REMARK INTER + INTRA:          -7.331
REMARK INTER:                  -6.729
REMARK INTRA:                  -0.602
REMARK UNBOUND:                -0.587
REMARK  Name = 
REMARK  7 active torsions:
REMARK  status: ('A' for Active; 'I' for Inactive)
REMARK    1  A    between atoms: C_1  and  C_2
REMARK    2  A    between atoms: C_6  and  C_7
REMARK    3  A    between atoms: C_8  and  C_9
REMARK    4  A    between atoms: C_12  and  C_13
REMARK    5  A    between atoms: C_13  and  N_14
REMARK    6  A    between atoms: C_15  and  C_17
REMARK    7  A    between atoms: C_24  and  C_25
REMARK                            x       y       z     vdW  Elec       q    Type
REMARK                         _______ _______ _______ _____ _____    ______ ____
ROOT
ATOM      1  C   UNL     1      41.775  11.284  10.270  0.00  0.00    +0.000 A 
ATOM      2  C   UNL     1      42.688  10.613   9.470  0.00  0.00    +0.000 A 
ATOM      3  N   UNL     1      44.030  10.679   9.665  0.00  0.00    +0.000 NA
ATOM      4  C   UNL     1      44.435  11.464  10.701  0.00  0.00    +0.000 A 
ATOM      5  C   UNL     1      43.514  12.156  11.486  0.00  0.00    +0.000 A 
ATOM      6  N   UNL     1      42.170  12.086  11.289  0.00  0.00    +0.000 NA
ENDROOT
BRANCH   1   8
ATOM      7  C   UNL     1      39.187  10.938   9.987  0.00  0.00    +0.000 C 
ATOM      8  C   UNL     1      40.364  11.120  10.112  0.00  0.00    +0.000 C 
BRANCH   7  14
ATOM      9  C   UNL     1      35.253   8.797  11.759  0.00  0.00    +0.000 C 
ATOM     10  C   UNL     1      35.903   9.684  10.739  0.00  0.00    +0.000 A 
ATOM     11  C   UNL     1      35.144  10.273   9.727  0.00  0.00    +0.000 A 
ATOM     12  N   UNL     1      35.680  11.086   8.786  0.00  0.00    +0.000 NA
ATOM     13  C   UNL     1      37.015  11.286   8.895  0.00  0.00    +0.000 A 
ATOM     14  C   UNL     1      37.779  10.702   9.893  0.00  0.00    +0.000 A 
ATOM     15  N   UNL     1      37.242   9.891  10.837  0.00  0.00    +0.000 NA
ENDBRANCH   7  14
ENDBRANCH   1   8
BRANCH   4  16
ATOM     16  C   UNL     1      45.912  11.525  10.999  0.00  0.00    +0.000 C 
BRANCH  16  17
ATOM     17  N   UNL     1      46.303  10.652  12.095  0.00  0.00    +0.000 N 
ATOM     18  C   UNL     1      47.509  10.004  12.096  0.00  0.00    +0.000 C 
ATOM     19  O   UNL     1      48.328  10.186  11.195  0.00  0.00    +0.000 OA
ATOM     20  H   UNL     1      45.602  10.420  12.782  0.00  0.00    +0.000 HD
BRANCH  18  21
ATOM     21  C   UNL     1      47.713   8.980  13.128  0.00  0.00    +0.000 A 
ATOM     22  C   UNL     1      48.627   9.261  14.138  0.00  0.00    +0.000 A 
ATOM     23  S   UNL     1      48.975   7.933  15.133  0.00  0.00    +0.000 S 
ATOM     24  C   UNL     1      47.985   6.924  14.191  0.00  0.00    +0.000 A 
ATOM     25  N   UNL     1      48.016   5.597  14.413  0.00  0.00    +0.000 NA
ATOM     26  C   UNL     1      47.177   4.893  13.646  0.00  0.00    +0.000 A 
ATOM     27  C   UNL     1      46.226   5.449  12.815  0.00  0.00    +0.000 A 
ATOM     28  C   UNL     1      46.147   6.849  12.669  0.00  0.00    +0.000 A 
ATOM     29  C   UNL     1      44.911   7.398  11.998  0.00  0.00    +0.000 C 
ATOM     30  C   UNL     1      47.193   7.619  13.268  0.00  0.00    +0.000 A 
ENDBRANCH  18  21
ENDBRANCH  16  17
ENDBRANCH   4  16
TORSDOF 5
ENDMDL
