MODEL 1
REMARK VINA RESULT:    -7.847      0.000      0.000
REMARK INTER + INTRA:         -14.305
REMARK INTER:                 -12.894
REMARK INTRA:                  -1.412
REMARK UNBOUND:                -1.412
REMARK  Name = 
REMARK  13 active torsions:
REMARK  status: ('A' for Active; 'I' for Inactive)
REMARK    1  A    between atoms: C_1  and  C_2
REMARK    2  A    between atoms: C_2  and  O_3
REMARK    3  A    between atoms: O_3  and  C_4
REMARK    4  A    between atoms: C_6  and  C_7
REMARK    5  A    between atoms: C_7  and  C_8
REMARK    6  A    between atoms: C_8  and  N_9
REMARK    7  A    between atoms: C_13  and  C_14
REMARK    8  A    between atoms: C_20  and  C_21
REMARK    9  A    between atoms: C_25  and  O_26
REMARK   10  A    between atoms: O_26  and  C_27
REMARK   11  A    between atoms: C_27  and  C_28
REMARK   12  A    between atoms: C_28  and  O_29
REMARK   13  A    between atoms: O_29  and  C_30
REMARK                            x       y       z     vdW  Elec       q    Type
REMARK                         _______ _______ _______ _____ _____    ______ ____
ROOT
ATOM      1  C   UNL     1      46.939   4.621  13.823  0.00  0.00    +0.000 A 
ATOM      2  C   UNL     1      45.590   4.592  13.480  0.00  0.00    +0.000 A 
ATOM      3  C   UNL     1      45.097   5.563  12.604  0.00  0.00    +0.000 A 
ATOM      4  C   UNL     1      46.003   6.532  12.157  0.00  0.00    +0.000 A 
ATOM      5  C   UNL     1      47.331   6.520  12.575  0.00  0.00    +0.000 A 
ATOM      6  N   UNL     1      47.804   5.566  13.408  0.00  0.00    +0.000 NA
ENDROOT
BRANCH   5   7
ATOM      7  C   UNL     1      48.284   7.567  12.171  0.00  0.00    +0.000 A 
ATOM      8  C   UNL     1      47.881   8.910  12.132  0.00  0.00    +0.000 A 
ATOM      9  C   UNL     1      48.750   9.912  11.704  0.00  0.00    +0.000 A 
ATOM     10  C   UNL     1      50.049   9.590  11.314  0.00  0.00    +0.000 A 
ATOM     11  C   UNL     1      50.487   8.268  11.359  0.00  0.00    +0.000 A 
ATOM     12  C   UNL     1      49.606   7.270  11.784  0.00  0.00    +0.000 A 
BRANCH  11  13
ATOM     13  O   UNL     1      51.737   7.825  11.018  0.00  0.00    +0.000 OA
BRANCH  13  14
ATOM     14  C   UNL     1      52.507   8.703  10.200  0.00  0.00    +0.000 C 
BRANCH  14  15
ATOM     15  C   UNL     1      53.337   7.886   9.220  0.00  0.00    +0.000 C 
BRANCH  15  16
ATOM     16  O   UNL     1      52.581   6.740   8.829  0.00  0.00    +0.000 OA
ATOM     17  C   UNL     1      52.353   6.716   7.428  0.00  0.00    +0.000 C 
ENDBRANCH  15  16
ENDBRANCH  14  15
ENDBRANCH  13  14
ENDBRANCH  11  13
ENDBRANCH   5   7
BRANCH   1  18
ATOM     18  O   UNL     1      47.401   3.622  14.656  0.00  0.00    +0.000 OA
BRANCH  18  20
ATOM     19  C   UNL     1      48.120   2.978  16.836  0.00  0.00    +0.000 C 
ATOM     20  C   UNL     1      47.307   3.984  16.041  0.00  0.00    +0.000 C 
ENDBRANCH  18  20
ENDBRANCH   1  18
BRANCH   3  21
ATOM     21  C   UNL     1      43.639   5.565  12.165  0.00  0.00    +0.000 C 
BRANCH  21  22
ATOM     22  C   UNL     1      43.409   5.000  10.750  0.00  0.00    +0.000 C 
BRANCH  22  23
ATOM     23  N   UNL     1      43.674   3.561  10.638  0.00  0.00    +0.000 N 
ATOM     24  C   UNL     1      44.611   3.291   9.606  0.00  0.00    +0.000 A 
ATOM     25  C   UNL     1      45.008   1.975   9.332  0.00  0.00    +0.000 A 
ATOM     26  N   UNL     1      45.900   1.625   8.361  0.00  0.00    +0.000 NA
ATOM     27  C   UNL     1      46.407   2.677   7.659  0.00  0.00    +0.000 A 
ATOM     28  C   UNL     1      46.036   3.983   7.920  0.00  0.00    +0.000 A 
ATOM     29  N   UNL     1      45.146   4.308   8.891  0.00  0.00    +0.000 NA
ATOM     30  H   UNL     1      42.825   3.033  10.446  0.00  0.00    +0.000 HD
BRANCH  27  31
ATOM     31  C   UNL     1      47.390   2.406   6.571  0.00  0.00    +0.000 C 
ATOM     32  N   UNL     1      47.280   3.181   5.445  0.00  0.00    +0.000 N 
ATOM     33  O   UNL     1      48.246   1.541   6.674  0.00  0.00    +0.000 OA
ATOM     34  H   UNL     1      46.559   3.888   5.372  0.00  0.00    +0.000 HD
ATOM     35  H   UNL     1      47.922   3.027   4.682  0.00  0.00    +0.000 HD
ENDBRANCH  27  31
ENDBRANCH  22  23
ENDBRANCH  21  22
ENDBRANCH   3  21
TORSDOF 11
ENDMDL
MODEL 2
REMARK VINA RESULT:    -7.846      3.216      4.883
REMARK INTER + INTRA:         -14.303
REMARK INTER:                 -13.331
REMARK INTRA:                  -0.972
REMARK UNBOUND:                -1.412
REMARK  Name = 
REMARK  13 active torsions:
REMARK  status: ('A' for Active; 'I' for Inactive)
REMARK    1  A    between atoms: C_1  and  C_2
REMARK    2  A    between atoms: C_2  and  O_3
REMARK    3  A    between atoms: O_3  and  C_4
REMARK    4  A    between atoms: C_6  and  C_7
REMARK    5  A    between atoms: C_7  and  C_8
REMARK    6  A    between atoms: C_8  and  N_9
REMARK    7  A    between atoms: C_13  and  C_14
REMARK    8  A    between atoms: C_20  and  C_21
REMARK    9  A    between atoms: C_25  and  O_26
REMARK   10  A    between atoms: O_26  and  C_27
REMARK   11  A    between atoms: C_27  and  C_28
REMARK   12  A    between atoms: C_28  and  O_29
REMARK   13  A    between atoms: O_29  and  C_30
REMARK                            x       y       z     vdW  Elec       q    Type
REMARK                         _______ _______ _______ _____ _____    ______ ____
ROOT
ATOM      1  C   UNL     1      46.763   5.257  13.849  0.00  0.00    +0.000 A 
ATOM      2  C   UNL     1      45.564   4.598  13.592  0.00  0.00    +0.000 A 
ATOM      3  C   UNL     1      44.584   5.252  12.840  0.00  0.00    +0.000 A 
ATOM      4  C   UNL     1      44.870   6.557  12.422  0.00  0.00    +0.000 A 
ATOM      5  C   UNL     1      46.078   7.166  12.751  0.00  0.00    +0.000 A 
ATOM      6  N   UNL     1      47.028   6.521  13.464  0.00  0.00    +0.000 NA
ENDROOT
BRANCH   5   7
ATOM      7  C   UNL     1      46.373   8.561  12.381  0.00  0.00    +0.000 A 
ATOM      8  C   UNL     1      47.701   8.978  12.202  0.00  0.00    +0.000 A 
ATOM      9  C   UNL     1      48.006  10.304  11.902  0.00  0.00    +0.000 A 
ATOM     10  C   UNL     1      46.984  11.242  11.765  0.00  0.00    +0.000 A 
ATOM     11  C   UNL     1      45.653  10.857  11.919  0.00  0.00    +0.000 A 
ATOM     12  C   UNL     1      45.358   9.526  12.225  0.00  0.00    +0.000 A 
BRANCH  11  13
ATOM     13  O   UNL     1      44.562  11.675  11.796  0.00  0.00    +0.000 OA
BRANCH  13  14
ATOM     14  C   UNL     1      43.500  11.181  10.983  0.00  0.00    +0.000 C 
BRANCH  14  15
ATOM     15  C   UNL     1      42.215  11.925  11.319  0.00  0.00    +0.000 C 
BRANCH  15  16
ATOM     16  O   UNL     1      41.763  11.495  12.603  0.00  0.00    +0.000 OA
ATOM     17  C   UNL     1      40.420  11.886  12.844  0.00  0.00    +0.000 C 
ENDBRANCH  15  16
ENDBRANCH  14  15
ENDBRANCH  13  14
ENDBRANCH  11  13
ENDBRANCH   5   7
BRANCH   1  18
ATOM     18  O   UNL     1      47.725   4.567  14.558  0.00  0.00    +0.000 OA
BRANCH  18  20
ATOM     19  C   UNL     1      48.023   3.111  16.422  0.00  0.00    +0.000 C 
ATOM     20  C   UNL     1      47.358   4.385  15.932  0.00  0.00    +0.000 C 
ENDBRANCH  18  20
ENDBRANCH   1  18
BRANCH   3  21
ATOM     21  C   UNL     1      43.265   4.572  12.498  0.00  0.00    +0.000 C 
BRANCH  21  22
ATOM     22  C   UNL     1      43.180   4.063  11.045  0.00  0.00    +0.000 C 
BRANCH  22  23
ATOM     23  N   UNL     1      43.941   4.875  10.089  0.00  0.00    +0.000 N 
ATOM     24  C   UNL     1      44.797   4.066   9.297  0.00  0.00    +0.000 A 
ATOM     25  C   UNL     1      45.614   4.644   8.315  0.00  0.00    +0.000 A 
ATOM     26  N   UNL     1      46.465   3.944   7.511  0.00  0.00    +0.000 NA
ATOM     27  C   UNL     1      46.461   2.598   7.725  0.00  0.00    +0.000 A 
ATOM     28  C   UNL     1      45.655   2.008   8.682  0.00  0.00    +0.000 A 
ATOM     29  N   UNL     1      44.815   2.724   9.471  0.00  0.00    +0.000 NA
ATOM     30  H   UNL     1      44.508   5.579  10.557  0.00  0.00    +0.000 HD
BRANCH  27  31
ATOM     31  C   UNL     1      47.357   1.738   6.901  0.00  0.00    +0.000 C 
ATOM     32  N   UNL     1      48.367   2.379   6.230  0.00  0.00    +0.000 N 
ATOM     33  O   UNL     1      47.202   0.528   6.826  0.00  0.00    +0.000 OA
ATOM     34  H   UNL     1      48.476   3.383   6.297  0.00  0.00    +0.000 HD
ATOM     35  H   UNL     1      48.994   1.835   5.656  0.00  0.00    +0.000 HD
ENDBRANCH  27  31
ENDBRANCH  22  23
ENDBRANCH  21  22
ENDBRANCH   3  21
TORSDOF 11
ENDMDL
MODEL 3
REMARK VINA RESULT:    -7.788      2.391      3.711
REMARK INTER + INTRA:         -14.208
REMARK INTER:                 -12.955
REMARK INTRA:                  -1.254
REMARK UNBOUND:                -1.412
REMARK  Name = 
REMARK  13 active torsions:
REMARK  status: ('A' for Active; 'I' for Inactive)
REMARK    1  A    between atoms: C_1  and  C_2
REMARK    2  A    between atoms: C_2  and  O_3
REMARK    3  A    between atoms: O_3  and  C_4
REMARK    4  A    between atoms: C_6  and  C_7
REMARK    5  A    between atoms: C_7  and  C_8
REMARK    6  A    between atoms: C_8  and  N_9
REMARK    7  A    between atoms: C_13  and  C_14
REMARK    8  A    between atoms: C_20  and  C_21
REMARK    9  A    between atoms: C_25  and  O_26
REMARK   10  A    between atoms: O_26  and  C_27
REMARK   11  A    between atoms: C_27  and  C_28
REMARK   12  A    between atoms: C_28  and  O_29
REMARK   13  A    between atoms: O_29  and  C_30
REMARK                            x       y       z     vdW  Elec       q    Type
REMARK                         _______ _______ _______ _____ _____    ______ ____
ROOT
ATOM      1  C   UNL     1      46.943   4.476  13.931  0.00  0.00    +0.000 A 
ATOM      2  C   UNL     1      45.603   4.201  13.669  0.00  0.00    +0.000 A 
ATOM      3  C   UNL     1      44.887   5.071  12.841  0.00  0.00    +0.000 A 
ATOM      4  C   UNL     1      45.570   6.192  12.357  0.00  0.00    +0.000 A 
ATOM      5  C   UNL     1      46.901   6.422  12.695  0.00  0.00    +0.000 A 
ATOM      6  N   UNL     1      47.592   5.567  13.481  0.00  0.00    +0.000 NA
ENDROOT
BRANCH   5   7
ATOM      7  C   UNL     1      47.619   7.630  12.254  0.00  0.00    +0.000 A 
ATOM      8  C   UNL     1      48.983   7.562  11.932  0.00  0.00    +0.000 A 
ATOM      9  C   UNL     1      49.694   8.701  11.562  0.00  0.00    +0.000 A 
ATOM     10  C   UNL     1      49.050   9.936  11.496  0.00  0.00    +0.000 A 
ATOM     11  C   UNL     1      47.692  10.035  11.792  0.00  0.00    +0.000 A 
ATOM     12  C   UNL     1      46.989   8.888  12.167  0.00  0.00    +0.000 A 
BRANCH  11  13
ATOM     13  O   UNL     1      46.944  11.181  11.751  0.00  0.00    +0.000 OA
BRANCH  13  14
ATOM     14  C   UNL     1      45.531  11.001  11.678  0.00  0.00    +0.000 C 
BRANCH  14  15
ATOM     15  C   UNL     1      45.015  11.569  10.363  0.00  0.00    +0.000 C 
BRANCH  15  16
ATOM     16  O   UNL     1      43.919  10.769   9.920  0.00  0.00    +0.000 OA
ATOM     17  C   UNL     1      43.132  10.310  11.008  0.00  0.00    +0.000 C 
ENDBRANCH  15  16
ENDBRANCH  14  15
ENDBRANCH  13  14
ENDBRANCH  11  13
ENDBRANCH   5   7
BRANCH   1  18
ATOM     18  O   UNL     1      47.631   3.574  14.717  0.00  0.00    +0.000 OA
BRANCH  18  20
ATOM     19  C   UNL     1      48.142   2.741  16.892  0.00  0.00    +0.000 C 
ATOM     20  C   UNL     1      47.560   3.906  16.111  0.00  0.00    +0.000 C 
ENDBRANCH  18  20
ENDBRANCH   1  18
BRANCH   3  21
ATOM     21  C   UNL     1      43.429   4.807  12.490  0.00  0.00    +0.000 C 
BRANCH  21  22
ATOM     22  C   UNL     1      43.223   4.174  11.099  0.00  0.00    +0.000 C 
BRANCH  22  23
ATOM     23  N   UNL     1      43.891   4.903  10.014  0.00  0.00    +0.000 N 
ATOM     24  C   UNL     1      44.752   4.049   9.278  0.00  0.00    +0.000 A 
ATOM     25  C   UNL     1      45.488   4.544   8.192  0.00  0.00    +0.000 A 
ATOM     26  N   UNL     1      46.337   3.796   7.430  0.00  0.00    +0.000 NA
ATOM     27  C   UNL     1      46.418   2.487   7.800  0.00  0.00    +0.000 A 
ATOM     28  C   UNL     1      45.694   1.977   8.862  0.00  0.00    +0.000 A 
ATOM     29  N   UNL     1      44.854   2.739   9.606  0.00  0.00    +0.000 NA
ATOM     30  H   UNL     1      44.439   5.686  10.365  0.00  0.00    +0.000 HD
BRANCH  27  31
ATOM     31  C   UNL     1      47.321   1.581   7.035  0.00  0.00    +0.000 C 
ATOM     32  N   UNL     1      48.398   2.169   6.423  0.00  0.00    +0.000 N 
ATOM     33  O   UNL     1      47.114   0.379   6.956  0.00  0.00    +0.000 OA
ATOM     34  H   UNL     1      48.550   3.167   6.492  0.00  0.00    +0.000 HD
ATOM     35  H   UNL     1      49.032   1.592   5.890  0.00  0.00    +0.000 HD
ENDBRANCH  27  31
ENDBRANCH  22  23
ENDBRANCH  21  22
ENDBRANCH   3  21
TORSDOF 11
ENDMDL
MODEL 4
REMARK VINA RESULT:    -7.234      2.273      5.834
REMARK INTER + INTRA:         -13.298
REMARK INTER:                 -11.844
REMARK INTRA:                  -1.454
REMARK UNBOUND:                -1.412
REMARK  Name = 
REMARK  13 active torsions:
REMARK  status: ('A' for Active; 'I' for Inactive)
REMARK    1  A    between atoms: C_1  and  C_2
REMARK    2  A    between atoms: C_2  and  O_3
REMARK    3  A    between atoms: O_3  and  C_4
REMARK    4  A    between atoms: C_6  and  C_7
REMARK    5  A    between atoms: C_7  and  C_8
REMARK    6  A    between atoms: C_8  and  N_9
REMARK    7  A    between atoms: C_13  and  C_14
REMARK    8  A    between atoms: C_20  and  C_21
REMARK    9  A    between atoms: C_25  and  O_26
REMARK   10  A    between atoms: O_26  and  C_27
REMARK   11  A    between atoms: C_27  and  C_28
REMARK   12  A    between atoms: C_28  and  O_29
REMARK   13  A    between atoms: O_29  and  C_30
REMARK                            x       y       z     vdW  Elec       q    Type
REMARK                         _______ _______ _______ _____ _____    ______ ____
ROOT
ATOM      1  C   UNL     1      47.415   6.525  12.180  0.00  0.00    +0.000 A 
ATOM      2  C   UNL     1      46.107   6.318  11.750  0.00  0.00    +0.000 A 
ATOM      3  C   UNL     1      45.234   5.601  12.573  0.00  0.00    +0.000 A 
ATOM      4  C   UNL     1      45.756   5.104  13.773  0.00  0.00    +0.000 A 
ATOM      5  C   UNL     1      47.088   5.318  14.118  0.00  0.00    +0.000 A 
ATOM      6  N   UNL     1      47.922   6.028  13.326  0.00  0.00    +0.000 NA
ENDROOT
BRANCH   5   7
ATOM      7  C   UNL     1      47.677   4.747  15.341  0.00  0.00    +0.000 A 
ATOM      8  C   UNL     1      47.471   3.396  15.658  0.00  0.00    +0.000 A 
ATOM      9  C   UNL     1      47.975   2.847  16.835  0.00  0.00    +0.000 A 
ATOM     10  C   UNL     1      48.707   3.640  17.719  0.00  0.00    +0.000 A 
ATOM     11  C   UNL     1      48.945   4.981  17.424  0.00  0.00    +0.000 A 
ATOM     12  C   UNL     1      48.430   5.523  16.244  0.00  0.00    +0.000 A 
BRANCH  11  13
ATOM     13  O   UNL     1      49.656   5.858  18.198  0.00  0.00    +0.000 OA
BRANCH  13  14
ATOM     14  C   UNL     1      48.957   7.027  18.620  0.00  0.00    +0.000 C 
BRANCH  14  15
ATOM     15  C   UNL     1      48.551   6.877  20.079  0.00  0.00    +0.000 C 
BRANCH  15  16
ATOM     16  O   UNL     1      49.414   5.922  20.696  0.00  0.00    +0.000 OA
ATOM     17  C   UNL     1      48.681   4.883  21.327  0.00  0.00    +0.000 C 
ENDBRANCH  15  16
ENDBRANCH  14  15
ENDBRANCH  13  14
ENDBRANCH  11  13
ENDBRANCH   5   7
BRANCH   1  18
ATOM     18  O   UNL     1      48.238   7.274  11.364  0.00  0.00    +0.000 OA
BRANCH  18  20
ATOM     19  C   UNL     1      47.941   9.507  12.144  0.00  0.00    +0.000 C 
ATOM     20  C   UNL     1      48.897   8.329  12.078  0.00  0.00    +0.000 C 
ENDBRANCH  18  20
ENDBRANCH   1  18
BRANCH   3  21
ATOM     21  C   UNL     1      43.782   5.370  12.174  0.00  0.00    +0.000 C 
BRANCH  21  22
ATOM     22  C   UNL     1      43.602   4.880  10.723  0.00  0.00    +0.000 C 
BRANCH  22  23
ATOM     23  N   UNL     1      43.846   3.443  10.550  0.00  0.00    +0.000 N 
ATOM     24  C   UNL     1      44.754   3.202   9.487  0.00  0.00    +0.000 A 
ATOM     25  C   UNL     1      45.128   1.893   9.153  0.00  0.00    +0.000 A 
ATOM     26  N   UNL     1      45.992   1.571   8.149  0.00  0.00    +0.000 NA
ATOM     27  C   UNL     1      46.495   2.642   7.474  0.00  0.00    +0.000 A 
ATOM     28  C   UNL     1      46.147   3.942   7.794  0.00  0.00    +0.000 A 
ATOM     29  N   UNL     1      45.285   4.240   8.798  0.00  0.00    +0.000 NA
ATOM     30  H   UNL     1      42.986   2.933  10.359  0.00  0.00    +0.000 HD
BRANCH  27  31
ATOM     31  C   UNL     1      47.449   2.402   6.354  0.00  0.00    +0.000 C 
ATOM     32  N   UNL     1      47.385   3.280   5.302  0.00  0.00    +0.000 N 
ATOM     33  O   UNL     1      48.243   1.474   6.369  0.00  0.00    +0.000 OA
ATOM     34  H   UNL     1      46.716   4.039   5.302  0.00  0.00    +0.000 HD
ATOM     35  H   UNL     1      48.010   3.151   4.520  0.00  0.00    +0.000 HD
ENDBRANCH  27  31
ENDBRANCH  22  23
ENDBRANCH  21  22
ENDBRANCH   3  21
TORSDOF 11
ENDMDL
MODEL 5
REMARK VINA RESULT:    -7.214      2.259      3.165
REMARK INTER + INTRA:         -13.264
REMARK INTER:                 -11.881
REMARK INTRA:                  -1.383
REMARK UNBOUND:                -1.412
REMARK  Name = 
REMARK  13 active torsions:
REMARK  status: ('A' for Active; 'I' for Inactive)
REMARK    1  A    between atoms: C_1  and  C_2
REMARK    2  A    between atoms: C_2  and  O_3
REMARK    3  A    between atoms: O_3  and  C_4
REMARK    4  A    between atoms: C_6  and  C_7
REMARK    5  A    between atoms: C_7  and  C_8
REMARK    6  A    between atoms: C_8  and  N_9
REMARK    7  A    between atoms: C_13  and  C_14
REMARK    8  A    between atoms: C_20  and  C_21
REMARK    9  A    between atoms: C_25  and  O_26
REMARK   10  A    between atoms: O_26  and  C_27
REMARK   11  A    between atoms: C_27  and  C_28
REMARK   12  A    between atoms: C_28  and  O_29
REMARK   13  A    between atoms: O_29  and  C_30
REMARK                            x       y       z     vdW  Elec       q    Type
REMARK                         _______ _______ _______ _____ _____    ______ ____
ROOT
ATOM      1  C   UNL     1      46.936   4.453  14.067  0.00  0.00    +0.000 A 
ATOM      2  C   UNL     1      45.633   4.550  13.585  0.00  0.00    +0.000 A 
ATOM      3  C   UNL     1      45.299   5.626  12.758  0.00  0.00    +0.000 A 
ATOM      4  C   UNL     1      46.306   6.564  12.500  0.00  0.00    +0.000 A 
ATOM      5  C   UNL     1      47.577   6.422  13.050  0.00  0.00    +0.000 A 
ATOM      6  N   UNL     1      47.898   5.368  13.834  0.00  0.00    +0.000 NA
ENDROOT
BRANCH   5   7
ATOM      7  C   UNL     1      48.630   7.431  12.848  0.00  0.00    +0.000 A 
ATOM      8  C   UNL     1      48.687   8.161  11.651  0.00  0.00    +0.000 A 
ATOM      9  C   UNL     1      49.704   9.083  11.417  0.00  0.00    +0.000 A 
ATOM     10  C   UNL     1      50.685   9.303  12.383  0.00  0.00    +0.000 A 
ATOM     11  C   UNL     1      50.647   8.607  13.590  0.00  0.00    +0.000 A 
ATOM     12  C   UNL     1      49.626   7.680  13.813  0.00  0.00    +0.000 A 
BRANCH  11  13
ATOM     13  O   UNL     1      51.538   8.741  14.621  0.00  0.00    +0.000 OA
BRANCH  13  14
ATOM     14  C   UNL     1      51.826   7.552  15.355  0.00  0.00    +0.000 C 
BRANCH  14  15
ATOM     15  C   UNL     1      51.834   7.866  16.845  0.00  0.00    +0.000 C 
BRANCH  15  16
ATOM     16  O   UNL     1      50.746   8.744  17.132  0.00  0.00    +0.000 OA
ATOM     17  C   UNL     1      51.096   9.710  18.111  0.00  0.00    +0.000 C 
ENDBRANCH  15  16
ENDBRANCH  14  15
ENDBRANCH  13  14
ENDBRANCH  11  13
ENDBRANCH   5   7
BRANCH   1  18
ATOM     18  O   UNL     1      47.243   3.356  14.845  0.00  0.00    +0.000 OA
BRANCH  18  20
ATOM     19  C   UNL     1      48.553   3.079  16.818  0.00  0.00    +0.000 C 
ATOM     20  C   UNL     1      47.280   3.676  16.243  0.00  0.00    +0.000 C 
ENDBRANCH  18  20
ENDBRANCH   1  18
BRANCH   3  21
ATOM     21  C   UNL     1      43.900   5.769  12.174  0.00  0.00    +0.000 C 
BRANCH  21  22
ATOM     22  C   UNL     1      43.770   5.252  10.727  0.00  0.00    +0.000 C 
BRANCH  22  23
ATOM     23  N   UNL     1      43.900   3.795  10.607  0.00  0.00    +0.000 N 
ATOM     24  C   UNL     1      44.787   3.446   9.556  0.00  0.00    +0.000 A 
ATOM     25  C   UNL     1      45.056   2.100   9.270  0.00  0.00    +0.000 A 
ATOM     26  N   UNL     1      45.893   1.675   8.280  0.00  0.00    +0.000 NA
ATOM     27  C   UNL     1      46.479   2.678   7.569  0.00  0.00    +0.000 A 
ATOM     28  C   UNL     1      46.233   4.012   7.841  0.00  0.00    +0.000 A 
ATOM     29  N   UNL     1      45.397   4.413   8.831  0.00  0.00    +0.000 NA
ATOM     30  H   UNL     1      43.003   3.348  10.432  0.00  0.00    +0.000 HD
BRANCH  27  31
ATOM     31  C   UNL     1      47.410   2.324   6.461  0.00  0.00    +0.000 C 
ATOM     32  N   UNL     1      47.410   3.161   5.375  0.00  0.00    +0.000 N 
ATOM     33  O   UNL     1      48.134   1.341   6.514  0.00  0.00    +0.000 OA
ATOM     34  H   UNL     1      46.798   3.967   5.343  0.00  0.00    +0.000 HD
ATOM     35  H   UNL     1      48.022   2.955   4.599  0.00  0.00    +0.000 HD
ENDBRANCH  27  31
ENDBRANCH  22  23
ENDBRANCH  21  22
ENDBRANCH   3  21
TORSDOF 11
ENDMDL
MODEL 6
REMARK VINA RESULT:    -7.184      3.749      8.117
REMARK INTER + INTRA:         -13.215
REMARK INTER:                 -11.799
REMARK INTRA:                  -1.415
REMARK UNBOUND:                -1.412
REMARK  Name = 
REMARK  13 active torsions:
REMARK  status: ('A' for Active; 'I' for Inactive)
REMARK    1  A    between atoms: C_1  and  C_2
REMARK    2  A    between atoms: C_2  and  O_3
REMARK    3  A    between atoms: O_3  and  C_4
REMARK    4  A    between atoms: C_6  and  C_7
REMARK    5  A    between atoms: C_7  and  C_8
REMARK    6  A    between atoms: C_8  and  N_9
REMARK    7  A    between atoms: C_13  and  C_14
REMARK    8  A    between atoms: C_20  and  C_21
REMARK    9  A    between atoms: C_25  and  O_26
REMARK   10  A    between atoms: O_26  and  C_27
REMARK   11  A    between atoms: C_27  and  C_28
REMARK   12  A    between atoms: C_28  and  O_29
REMARK   13  A    between atoms: O_29  and  C_30
REMARK                            x       y       z     vdW  Elec       q    Type
REMARK                         _______ _______ _______ _____ _____    ______ ____
ROOT
ATOM      1  C   UNL     1      44.637   9.205  11.408  0.00  0.00    +0.000 A 
ATOM      2  C   UNL     1      45.868   9.568  11.949  0.00  0.00    +0.000 A 
ATOM      3  C   UNL     1      46.750   8.560  12.349  0.00  0.00    +0.000 A 
ATOM      4  C   UNL     1      46.311   7.239  12.208  0.00  0.00    +0.000 A 
ATOM      5  C   UNL     1      45.048   6.954  11.694  0.00  0.00    +0.000 A 
ATOM      6  N   UNL     1      44.208   7.933  11.292  0.00  0.00    +0.000 NA
ENDROOT
BRANCH   5   7
ATOM      7  C   UNL     1      44.539   5.575  11.600  0.00  0.00    +0.000 A 
ATOM      8  C   UNL     1      43.837   5.008  12.674  0.00  0.00    +0.000 A 
ATOM      9  C   UNL     1      43.390   3.689  12.627  0.00  0.00    +0.000 A 
ATOM     10  C   UNL     1      43.630   2.910  11.496  0.00  0.00    +0.000 A 
ATOM     11  C   UNL     1      44.309   3.449  10.405  0.00  0.00    +0.000 A 
ATOM     12  C   UNL     1      44.757   4.771  10.464  0.00  0.00    +0.000 A 
BRANCH  11  13
ATOM     13  O   UNL     1      44.594   2.796   9.236  0.00  0.00    +0.000 OA
BRANCH  13  14
ATOM     14  C   UNL     1      44.785   3.624   8.090  0.00  0.00    +0.000 C 
BRANCH  14  15
ATOM     15  C   UNL     1      45.964   3.103   7.280  0.00  0.00    +0.000 C 
BRANCH  15  16
ATOM     16  O   UNL     1      46.644   2.113   8.051  0.00  0.00    +0.000 OA
ATOM     17  C   UNL     1      47.051   1.013   7.250  0.00  0.00    +0.000 C 
ENDBRANCH  15  16
ENDBRANCH  14  15
ENDBRANCH  13  14
ENDBRANCH  11  13
ENDBRANCH   5   7
BRANCH   1  18
ATOM     18  O   UNL     1      43.808  10.224  10.984  0.00  0.00    +0.000 OA
BRANCH  18  20
ATOM     19  C   UNL     1      41.490  10.761  11.134  0.00  0.00    +0.000 C 
ATOM     20  C   UNL     1      42.502   9.748  10.630  0.00  0.00    +0.000 C 
ENDBRANCH  18  20
ENDBRANCH   1  18
BRANCH   3  21
ATOM     21  C   UNL     1      48.124   8.892  12.917  0.00  0.00    +0.000 C 
BRANCH  21  22
ATOM     22  C   UNL     1      48.968   7.654  13.281  0.00  0.00    +0.000 C 
BRANCH  22  23
ATOM     23  N   UNL     1      49.514   7.690  14.642  0.00  0.00    +0.000 N 
ATOM     24  C   UNL     1      49.005   6.622  15.426  0.00  0.00    +0.000 A 
ATOM     25  C   UNL     1      49.401   6.468  16.762  0.00  0.00    +0.000 A 
ATOM     26  N   UNL     1      48.964   5.473  17.586  0.00  0.00    +0.000 NA
ATOM     27  C   UNL     1      48.095   4.601  17.003  0.00  0.00    +0.000 A 
ATOM     28  C   UNL     1      47.698   4.730  15.683  0.00  0.00    +0.000 A 
ATOM     29  N   UNL     1      48.147   5.728  14.881  0.00  0.00    +0.000 NA
ATOM     30  H   UNL     1      49.297   8.565  15.114  0.00  0.00    +0.000 HD
BRANCH  27  31
ATOM     31  C   UNL     1      47.552   3.477  17.816  0.00  0.00    +0.000 C 
ATOM     32  N   UNL     1      48.217   3.192  18.982  0.00  0.00    +0.000 N 
ATOM     33  O   UNL     1      46.569   2.841  17.466  0.00  0.00    +0.000 OA
ATOM     34  H   UNL     1      49.034   3.724  19.253  0.00  0.00    +0.000 HD
ATOM     35  H   UNL     1      47.886   2.435  19.560  0.00  0.00    +0.000 HD
ENDBRANCH  27  31
ENDBRANCH  22  23
ENDBRANCH  21  22
ENDBRANCH   3  21
TORSDOF 11
ENDMDL
MODEL 7
REMARK VINA RESULT:    -7.079      1.973      2.375
REMARK INTER + INTRA:         -13.043
REMARK INTER:                 -11.976
REMARK INTRA:                  -1.067
REMARK UNBOUND:                -1.412
REMARK  Name = 
REMARK  13 active torsions:
REMARK  status: ('A' for Active; 'I' for Inactive)
REMARK    1  A    between atoms: C_1  and  C_2
REMARK    2  A    between atoms: C_2  and  O_3
REMARK    3  A    between atoms: O_3  and  C_4
REMARK    4  A    between atoms: C_6  and  C_7
REMARK    5  A    between atoms: C_7  and  C_8
REMARK    6  A    between atoms: C_8  and  N_9
REMARK    7  A    between atoms: C_13  and  C_14
REMARK    8  A    between atoms: C_20  and  C_21
REMARK    9  A    between atoms: C_25  and  O_26
REMARK   10  A    between atoms: O_26  and  C_27
REMARK   11  A    between atoms: C_27  and  C_28
REMARK   12  A    between atoms: C_28  and  O_29
REMARK   13  A    between atoms: O_29  and  C_30
REMARK                            x       y       z     vdW  Elec       q    Type
REMARK                         _______ _______ _______ _____ _____    ______ ____
ROOT
ATOM      1  C   UNL     1      46.892   5.286  13.888  0.00  0.00    +0.000 A 
ATOM      2  C   UNL     1      45.663   4.675  13.656  0.00  0.00    +0.000 A 
ATOM      3  C   UNL     1      44.712   5.348  12.882  0.00  0.00    +0.000 A 
ATOM      4  C   UNL     1      45.058   6.623  12.421  0.00  0.00    +0.000 A 
ATOM      5  C   UNL     1      46.294   7.186  12.727  0.00  0.00    +0.000 A 
ATOM      6  N   UNL     1      47.215   6.522  13.461  0.00  0.00    +0.000 NA
ENDROOT
BRANCH   5   7
ATOM      7  C   UNL     1      46.652   8.553  12.310  0.00  0.00    +0.000 A 
ATOM      8  C   UNL     1      45.654   9.527  12.154  0.00  0.00    +0.000 A 
ATOM      9  C   UNL     1      45.963  10.811  11.711  0.00  0.00    +0.000 A 
ATOM     10  C   UNL     1      47.285  11.152  11.423  0.00  0.00    +0.000 A 
ATOM     11  C   UNL     1      48.302  10.213  11.586  0.00  0.00    +0.000 A 
ATOM     12  C   UNL     1      47.980   8.927  12.026  0.00  0.00    +0.000 A 
BRANCH  11  13
ATOM     13  O   UNL     1      49.634  10.426  11.353  0.00  0.00    +0.000 OA
BRANCH  13  14
ATOM     14  C   UNL     1      50.079  11.776  11.465  0.00  0.00    +0.000 C 
BRANCH  14  15
ATOM     15  C   UNL     1      50.790  12.184  10.182  0.00  0.00    +0.000 C 
BRANCH  15  16
ATOM     16  O   UNL     1      51.357  11.018   9.586  0.00  0.00    +0.000 OA
ATOM     17  C   UNL     1      52.151  11.341   8.454  0.00  0.00    +0.000 C 
ENDBRANCH  15  16
ENDBRANCH  14  15
ENDBRANCH  13  14
ENDBRANCH  11  13
ENDBRANCH   5   7
BRANCH   1  18
ATOM     18  O   UNL     1      47.822   4.576  14.620  0.00  0.00    +0.000 OA
BRANCH  18  20
ATOM     19  C   UNL     1      47.406   4.246  16.944  0.00  0.00    +0.000 C 
ATOM     20  C   UNL     1      47.207   3.676  15.551  0.00  0.00    +0.000 C 
ENDBRANCH  18  20
ENDBRANCH   1  18
BRANCH   3  21
ATOM     21  C   UNL     1      43.362   4.719  12.565  0.00  0.00    +0.000 C 
BRANCH  21  22
ATOM     22  C   UNL     1      43.306   4.013  11.195  0.00  0.00    +0.000 C 
BRANCH  22  23
ATOM     23  N   UNL     1      43.926   4.780  10.109  0.00  0.00    +0.000 N 
ATOM     24  C   UNL     1      44.777   3.960   9.324  0.00  0.00    +0.000 A 
ATOM     25  C   UNL     1      45.469   4.495   8.228  0.00  0.00    +0.000 A 
ATOM     26  N   UNL     1      46.305   3.781   7.421  0.00  0.00    +0.000 NA
ATOM     27  C   UNL     1      46.419   2.465   7.754  0.00  0.00    +0.000 A 
ATOM     28  C   UNL     1      45.737   1.915   8.824  0.00  0.00    +0.000 A 
ATOM     29  N   UNL     1      44.910   2.644   9.614  0.00  0.00    +0.000 NA
ATOM     30  H   UNL     1      44.473   5.563  10.463  0.00  0.00    +0.000 HD
BRANCH  27  31
ATOM     31  C   UNL     1      47.311   1.593   6.937  0.00  0.00    +0.000 C 
ATOM     32  N   UNL     1      48.483   2.158   6.503  0.00  0.00    +0.000 N 
ATOM     33  O   UNL     1      47.016   0.438   6.667  0.00  0.00    +0.000 OA
ATOM     34  H   UNL     1      48.708   3.119   6.729  0.00  0.00    +0.000 HD
ATOM     35  H   UNL     1      49.114   1.605   5.943  0.00  0.00    +0.000 HD
ENDBRANCH  27  31
ENDBRANCH  22  23
ENDBRANCH  21  22
ENDBRANCH   3  21
TORSDOF 11
ENDMDL
MODEL 8
REMARK VINA RESULT:    -6.811      3.937      7.346
REMARK INTER + INTRA:         -12.603
REMARK INTER:                 -11.182
REMARK INTRA:                  -1.421
REMARK UNBOUND:                -1.412
REMARK  Name = 
REMARK  13 active torsions:
REMARK  status: ('A' for Active; 'I' for Inactive)
REMARK    1  A    between atoms: C_1  and  C_2
REMARK    2  A    between atoms: C_2  and  O_3
REMARK    3  A    between atoms: O_3  and  C_4
REMARK    4  A    between atoms: C_6  and  C_7
REMARK    5  A    between atoms: C_7  and  C_8
REMARK    6  A    between atoms: C_8  and  N_9
REMARK    7  A    between atoms: C_13  and  C_14
REMARK    8  A    between atoms: C_20  and  C_21
REMARK    9  A    between atoms: C_25  and  O_26
REMARK   10  A    between atoms: O_26  and  C_27
REMARK   11  A    between atoms: C_27  and  C_28
REMARK   12  A    between atoms: C_28  and  O_29
REMARK   13  A    between atoms: O_29  and  C_30
REMARK                            x       y       z     vdW  Elec       q    Type
REMARK                         _______ _______ _______ _____ _____    ______ ____
ROOT
ATOM      1  C   UNL     1      48.470   6.669  13.944  0.00  0.00    +0.000 A 
ATOM      2  C   UNL     1      48.920   7.843  13.345  0.00  0.00    +0.000 A 
ATOM      3  C   UNL     1      48.158   8.409  12.319  0.00  0.00    +0.000 A 
ATOM      4  C   UNL     1      46.998   7.725  11.937  0.00  0.00    +0.000 A 
ATOM      5  C   UNL     1      46.633   6.533  12.557  0.00  0.00    +0.000 A 
ATOM      6  N   UNL     1      47.364   6.001  13.561  0.00  0.00    +0.000 NA
ENDROOT
BRANCH   5   7
ATOM      7  C   UNL     1      45.454   5.760  12.126  0.00  0.00    +0.000 A 
ATOM      8  C   UNL     1      44.457   5.421  13.052  0.00  0.00    +0.000 A 
ATOM      9  C   UNL     1      43.359   4.648  12.678  0.00  0.00    +0.000 A 
ATOM     10  C   UNL     1      43.233   4.205  11.362  0.00  0.00    +0.000 A 
ATOM     11  C   UNL     1      44.197   4.540  10.414  0.00  0.00    +0.000 A 
ATOM     12  C   UNL     1      45.296   5.311  10.800  0.00  0.00    +0.000 A 
BRANCH  11  13
ATOM     13  O   UNL     1      44.182   4.181   9.093  0.00  0.00    +0.000 OA
BRANCH  13  14
ATOM     14  C   UNL     1      45.287   3.398   8.647  0.00  0.00    +0.000 C 
BRANCH  14  15
ATOM     15  C   UNL     1      45.083   1.948   9.063  0.00  0.00    +0.000 C 
BRANCH  15  16
ATOM     16  O   UNL     1      46.052   1.141   8.394  0.00  0.00    +0.000 OA
ATOM     17  C   UNL     1      46.846   1.908   7.501  0.00  0.00    +0.000 C 
ENDBRANCH  15  16
ENDBRANCH  14  15
ENDBRANCH  13  14
ENDBRANCH  11  13
ENDBRANCH   5   7
BRANCH   1  18
ATOM     18  O   UNL     1      49.223   6.160  14.982  0.00  0.00    +0.000 OA
BRANCH  18  20
ATOM     19  C   UNL     1      48.942   5.022  17.059  0.00  0.00    +0.000 C 
ATOM     20  C   UNL     1      48.535   6.234  16.238  0.00  0.00    +0.000 C 
ENDBRANCH  18  20
ENDBRANCH   1  18
BRANCH   3  21
ATOM     21  C   UNL     1      48.580   9.709  11.647  0.00  0.00    +0.000 C 
BRANCH  21  22
ATOM     22  C   UNL     1      47.692  10.917  12.007  0.00  0.00    +0.000 C 
BRANCH  22  23
ATOM     23  N   UNL     1      47.088  11.575  10.842  0.00  0.00    +0.000 N 
ATOM     24  C   UNL     1      45.697  11.304  10.766  0.00  0.00    +0.000 A 
ATOM     25  C   UNL     1      44.924  11.839   9.726  0.00  0.00    +0.000 A 
ATOM     26  N   UNL     1      43.585  11.632   9.575  0.00  0.00    +0.000 NA
ATOM     27  C   UNL     1      43.025  10.851  10.542  0.00  0.00    +0.000 A 
ATOM     28  C   UNL     1      43.768  10.321  11.581  0.00  0.00    +0.000 A 
ATOM     29  N   UNL     1      45.100  10.541  11.711  0.00  0.00    +0.000 NA
ATOM     30  H   UNL     1      47.521  11.275   9.971  0.00  0.00    +0.000 HD
BRANCH  27  31
ATOM     31  C   UNL     1      41.565  10.557  10.471  0.00  0.00    +0.000 C 
ATOM     32  N   UNL     1      41.123   9.488  11.207  0.00  0.00    +0.000 N 
ATOM     33  O   UNL     1      40.802  11.231   9.794  0.00  0.00    +0.000 OA
ATOM     34  H   UNL     1      41.770   8.936  11.756  0.00  0.00    +0.000 HD
ATOM     35  H   UNL     1      40.142   9.251  11.183  0.00  0.00    +0.000 HD
ENDBRANCH  27  31
ENDBRANCH  22  23
ENDBRANCH  21  22
ENDBRANCH   3  21
TORSDOF 11
ENDMDL
MODEL 9
REMARK VINA RESULT:    -6.418      5.255      8.561
REMARK INTER + INTRA:         -11.956
REMARK INTER:                 -10.946
REMARK INTRA:                  -1.010
REMARK UNBOUND:                -1.412
REMARK  Name = 
REMARK  13 active torsions:
REMARK  status: ('A' for Active; 'I' for Inactive)
REMARK    1  A    between atoms: C_1  and  C_2
REMARK    2  A    between atoms: C_2  and  O_3
REMARK    3  A    between atoms: O_3  and  C_4
REMARK    4  A    between atoms: C_6  and  C_7
REMARK    5  A    between atoms: C_7  and  C_8
REMARK    6  A    between atoms: C_8  and  N_9
REMARK    7  A    between atoms: C_13  and  C_14
REMARK    8  A    between atoms: C_20  and  C_21
REMARK    9  A    between atoms: C_25  and  O_26
REMARK   10  A    between atoms: O_26  and  C_27
REMARK   11  A    between atoms: C_27  and  C_28
REMARK   12  A    between atoms: C_28  and  O_29
REMARK   13  A    between atoms: O_29  and  C_30
REMARK                            x       y       z     vdW  Elec       q    Type
REMARK                         _______ _______ _______ _____ _____    ______ ____
ROOT
ATOM      1  C   UNL     1      47.048   8.010  12.886  0.00  0.00    +0.000 A 
ATOM      2  C   UNL     1      46.527   9.223  12.441  0.00  0.00    +0.000 A 
ATOM      3  C   UNL     1      45.288   9.226  11.794  0.00  0.00    +0.000 A 
ATOM      4  C   UNL     1      44.668   7.986  11.604  0.00  0.00    +0.000 A 
ATOM      5  C   UNL     1      45.269   6.809  12.042  0.00  0.00    +0.000 A 
ATOM      6  N   UNL     1      46.458   6.815  12.683  0.00  0.00    +0.000 NA
ENDROOT
BRANCH   5   7
ATOM      7  C   UNL     1      44.667   5.488  11.792  0.00  0.00    +0.000 A 
ATOM      8  C   UNL     1      44.036   4.792  12.835  0.00  0.00    +0.000 A 
ATOM      9  C   UNL     1      43.506   3.520  12.634  0.00  0.00    +0.000 A 
ATOM     10  C   UNL     1      43.587   2.918  11.379  0.00  0.00    +0.000 A 
ATOM     11  C   UNL     1      44.190   3.590  10.318  0.00  0.00    +0.000 A 
ATOM     12  C   UNL     1      44.724   4.863  10.530  0.00  0.00    +0.000 A 
BRANCH  11  13
ATOM     13  O   UNL     1      44.321   3.117   9.040  0.00  0.00    +0.000 OA
BRANCH  13  14
ATOM     14  C   UNL     1      45.389   2.199   8.821  0.00  0.00    +0.000 C 
BRANCH  14  15
ATOM     15  C   UNL     1      46.262   2.698   7.678  0.00  0.00    +0.000 C 
BRANCH  15  16
ATOM     16  O   UNL     1      47.303   1.748   7.451  0.00  0.00    +0.000 OA
ATOM     17  C   UNL     1      46.834   0.415   7.587  0.00  0.00    +0.000 C 
ENDBRANCH  15  16
ENDBRANCH  14  15
ENDBRANCH  13  14
ENDBRANCH  11  13
ENDBRANCH   5   7
BRANCH   1  18
ATOM     18  O   UNL     1      48.252   8.048  13.559  0.00  0.00    +0.000 OA
BRANCH  18  20
ATOM     19  C   UNL     1      49.668   7.714  11.670  0.00  0.00    +0.000 C 
ATOM     20  C   UNL     1      49.285   8.672  12.785  0.00  0.00    +0.000 C 
ENDBRANCH  18  20
ENDBRANCH   1  18
BRANCH   3  21
ATOM     21  C   UNL     1      44.651  10.523  11.314  0.00  0.00    +0.000 C 
BRANCH  21  22
ATOM     22  C   UNL     1      43.115  10.461  11.193  0.00  0.00    +0.000 C 
BRANCH  22  23
ATOM     23  N   UNL     1      42.411  11.317  12.155  0.00  0.00    +0.000 N 
ATOM     24  C   UNL     1      41.010  11.104  12.101  0.00  0.00    +0.000 A 
ATOM     25  C   UNL     1      40.147  11.821  12.942  0.00  0.00    +0.000 A 
ATOM     26  N   UNL     1      38.791  11.679  12.957  0.00  0.00    +0.000 NA
ATOM     27  C   UNL     1      38.312  10.755  12.078  0.00  0.00    +0.000 A 
ATOM     28  C   UNL     1      39.147  10.030  11.246  0.00  0.00    +0.000 A 
ATOM     29  N   UNL     1      40.494  10.187  11.248  0.00  0.00    +0.000 NA
ATOM     30  H   UNL     1      42.592  12.304  11.986  0.00  0.00    +0.000 HD
BRANCH  27  31
ATOM     31  C   UNL     1      36.841  10.524  12.010  0.00  0.00    +0.000 C 
ATOM     32  N   UNL     1      36.042  11.588  12.339  0.00  0.00    +0.000 N 
ATOM     33  O   UNL     1      36.371   9.445  11.681  0.00  0.00    +0.000 OA
ATOM     34  H   UNL     1      36.448  12.473  12.618  0.00  0.00    +0.000 HD
ATOM     35  H   UNL     1      35.040  11.473  12.312  0.00  0.00    +0.000 HD
ENDBRANCH  27  31
ENDBRANCH  22  23
ENDBRANCH  21  22
ENDBRANCH   3  21
TORSDOF 11
ENDMDL
