MODEL 1
REMARK VINA RESULT:    -6.687      0.000      0.000
REMARK INTER + INTRA:          -9.775
REMARK INTER:                  -8.837
REMARK INTRA:                  -0.937
REMARK UNBOUND:                -0.937
REMARK  Name = 
REMARK  7 active torsions:
REMARK  status: ('A' for Active; 'I' for Inactive)
REMARK    1  A    between atoms: C_1  and  O_2
REMARK    2  A    between atoms: O_2  and  C_3
REMARK    3  A    between atoms: C_6  and  C_7
REMARK    4  A    between atoms: C_7  and  O_8
REMARK    5  A    between atoms: N_11  and  C_12
REMARK    6  A    between atoms: C_16  and  C_17
REMARK    7  A    between atoms: C_25  and  C_26
REMARK                            x       y       z     vdW  Elec       q    Type
REMARK                         _______ _______ _______ _____ _____    ______ ____
ROOT
ATOM      1  C   UNL     1      47.484   7.586  13.084  0.00  0.00    +0.000 C 
ATOM      2  C   UNL     1      47.730   6.103  13.433  0.00  0.00    +0.000 C 
ATOM      3  C   UNL     1      46.430   5.397  13.835  0.00  0.00    +0.000 C 
ATOM      4  N   UNL     1      45.405   5.593  12.806  0.00  0.00    +0.000 N 
ATOM      5  C   UNL     1      45.086   6.993  12.519  0.00  0.00    +0.000 C 
ATOM      6  C   UNL     1      46.349   7.703  12.050  0.00  0.00    +0.000 C 
ENDROOT
BRANCH   1  10
ATOM      7  C   UNL     1      50.759   9.694  11.099  0.00  0.00    +0.000 A 
ATOM      8  C   UNL     1      50.999   8.502  11.797  0.00  0.00    +0.000 A 
ATOM      9  C   UNL     1      49.984   7.845  12.506  0.00  0.00    +0.000 A 
ATOM     10  C   UNL     1      48.684   8.357  12.526  0.00  0.00    +0.000 A 
ATOM     11  C   UNL     1      48.460   9.574  11.850  0.00  0.00    +0.000 A 
ATOM     12  C   UNL     1      49.472  10.239  11.133  0.00  0.00    +0.000 A 
BRANCH   7  14
ATOM     13  C   UNL     1      52.692   9.140   9.792  0.00  0.00    +0.000 C 
ATOM     14  O   UNL     1      51.847  10.117  10.384  0.00  0.00    +0.000 OA
ENDBRANCH   7  14
BRANCH  12  15
ATOM     15  C   UNL     1      49.072  11.411  10.411  0.00  0.00    +0.000 C 
ATOM     16  N   UNL     1      48.786  12.365   9.819  0.00  0.00    +0.000 NA
ENDBRANCH  12  15
ENDBRANCH   1  10
BRANCH   4  17
ATOM     17  C   UNL     1      44.885   4.580  12.022  0.00  0.00    +0.000 A 
ATOM     18  C   UNL     1      43.856   3.757  12.495  0.00  0.00    +0.000 A 
ATOM     19  C   UNL     1      43.315   2.773  11.686  0.00  0.00    +0.000 A 
ATOM     20  N   UNL     1      43.732   2.530  10.432  0.00  0.00    +0.000 NA
ATOM     21  C   UNL     1      44.749   3.301   9.958  0.00  0.00    +0.000 A 
ATOM     22  C   UNL     1      45.339   4.314  10.728  0.00  0.00    +0.000 A 
BRANCH  21  23
ATOM     23  C   UNL     1      45.257   3.068   8.544  0.00  0.00    +0.000 C 
ATOM     24  F   UNL     1      44.326   3.267   7.567  0.00  0.00    +0.000 F 
ATOM     25  F   UNL     1      46.305   3.884   8.226  0.00  0.00    +0.000 F 
ATOM     26  F   UNL     1      45.721   1.796   8.358  0.00  0.00    +0.000 F 
ENDBRANCH  21  23
ENDBRANCH   4  17
BRANCH   1  27
ATOM     27  O   UNL     1      47.064   8.245  14.289  0.00  0.00    +0.000 OA
ATOM     28  H   UNL     1      47.360   9.170  14.234  0.00  0.00    +0.000 HD
ENDBRANCH   1  27
TORSDOF 6
ENDMDL
MODEL 2
REMARK VINA RESULT:    -6.678      1.450      2.010
REMARK INTER + INTRA:          -9.762
REMARK INTER:                  -8.834
REMARK INTRA:                  -0.928
REMARK UNBOUND:                -0.937
REMARK  Name = 
REMARK  7 active torsions:
REMARK  status: ('A' for Active; 'I' for Inactive)
REMARK    1  A    between atoms: C_1  and  O_2
REMARK    2  A    between atoms: O_2  and  C_3
REMARK    3  A    between atoms: C_6  and  C_7
REMARK    4  A    between atoms: C_7  and  O_8
REMARK    5  A    between atoms: N_11  and  C_12
REMARK    6  A    between atoms: C_16  and  C_17
REMARK    7  A    between atoms: C_25  and  C_26
REMARK                            x       y       z     vdW  Elec       q    Type
REMARK                         _______ _______ _______ _____ _____    ______ ____
ROOT
ATOM      1  C   UNL     1      47.430   7.638  12.831  0.00  0.00    +0.000 C 
ATOM      2  C   UNL     1      47.795   6.167  13.120  0.00  0.00    +0.000 C 
ATOM      3  C   UNL     1      46.591   5.385  13.659  0.00  0.00    +0.000 C 
ATOM      4  N   UNL     1      45.444   5.536  12.761  0.00  0.00    +0.000 N 
ATOM      5  C   UNL     1      45.018   6.921  12.541  0.00  0.00    +0.000 C 
ATOM      6  C   UNL     1      46.177   7.705  11.940  0.00  0.00    +0.000 C 
ENDROOT
BRANCH   1  10
ATOM      7  C   UNL     1      50.786   9.922  11.209  0.00  0.00    +0.000 A 
ATOM      8  C   UNL     1      49.679  10.579  11.764  0.00  0.00    +0.000 A 
ATOM      9  C   UNL     1      48.557   9.876  12.223  0.00  0.00    +0.000 A 
ATOM     10  C   UNL     1      48.514   8.482  12.152  0.00  0.00    +0.000 A 
ATOM     11  C   UNL     1      49.616   7.831  11.560  0.00  0.00    +0.000 A 
ATOM     12  C   UNL     1      50.748   8.528  11.101  0.00  0.00    +0.000 A 
BRANCH   7  14
ATOM     13  C   UNL     1      51.799  11.478   9.692  0.00  0.00    +0.000 C 
ATOM     14  O   UNL     1      51.820  10.772  10.925  0.00  0.00    +0.000 OA
ENDBRANCH   7  14
BRANCH  12  15
ATOM     15  C   UNL     1      51.833   7.726  10.617  0.00  0.00    +0.000 C 
ATOM     16  N   UNL     1      52.716   7.066  10.262  0.00  0.00    +0.000 NA
ENDBRANCH  12  15
ENDBRANCH   1  10
BRANCH   4  17
ATOM     17  C   UNL     1      44.889   4.506  12.025  0.00  0.00    +0.000 A 
ATOM     18  C   UNL     1      43.849   3.726  12.542  0.00  0.00    +0.000 A 
ATOM     19  C   UNL     1      43.275   2.724  11.780  0.00  0.00    +0.000 A 
ATOM     20  N   UNL     1      43.667   2.424  10.531  0.00  0.00    +0.000 NA
ATOM     21  C   UNL     1      44.694   3.152  10.013  0.00  0.00    +0.000 A 
ATOM     22  C   UNL     1      45.319   4.180  10.735  0.00  0.00    +0.000 A 
BRANCH  21  23
ATOM     23  C   UNL     1      45.177   2.853   8.603  0.00  0.00    +0.000 C 
ATOM     24  F   UNL     1      46.291   3.543   8.227  0.00  0.00    +0.000 F 
ATOM     25  F   UNL     1      45.484   1.533   8.426  0.00  0.00    +0.000 F 
ATOM     26  F   UNL     1      44.232   3.132   7.656  0.00  0.00    +0.000 F 
ENDBRANCH  21  23
ENDBRANCH   4  17
BRANCH   1  27
ATOM     27  O   UNL     1      47.121   8.257  14.091  0.00  0.00    +0.000 OA
ATOM     28  H   UNL     1      47.959   8.374  14.571  0.00  0.00    +0.000 HD
ENDBRANCH   1  27
TORSDOF 6
ENDMDL
MODEL 3
REMARK VINA RESULT:    -6.258      3.514      4.793
REMARK INTER + INTRA:          -9.207
REMARK INTER:                  -8.341
REMARK INTRA:                  -0.866
REMARK UNBOUND:                -0.937
REMARK  Name = 
REMARK  7 active torsions:
REMARK  status: ('A' for Active; 'I' for Inactive)
REMARK    1  A    between atoms: C_1  and  O_2
REMARK    2  A    between atoms: O_2  and  C_3
REMARK    3  A    between atoms: C_6  and  C_7
REMARK    4  A    between atoms: C_7  and  O_8
REMARK    5  A    between atoms: N_11  and  C_12
REMARK    6  A    between atoms: C_16  and  C_17
REMARK    7  A    between atoms: C_25  and  C_26
REMARK                            x       y       z     vdW  Elec       q    Type
REMARK                         _______ _______ _______ _____ _____    ______ ____
ROOT
ATOM      1  C   UNL     1      46.231   6.174  13.141  0.00  0.00    +0.000 C 
ATOM      2  C   UNL     1      45.337   4.924  13.277  0.00  0.00    +0.000 C 
ATOM      3  C   UNL     1      44.318   4.836  12.135  0.00  0.00    +0.000 C 
ATOM      4  N   UNL     1      44.996   4.931  10.840  0.00  0.00    +0.000 N 
ATOM      5  C   UNL     1      45.781   6.153  10.648  0.00  0.00    +0.000 C 
ATOM      6  C   UNL     1      46.848   6.231  11.731  0.00  0.00    +0.000 C 
ENDROOT
BRANCH   1  10
ATOM      7  C   UNL     1      49.222   6.585  16.303  0.00  0.00    +0.000 A 
ATOM      8  C   UNL     1      49.107   7.558  15.300  0.00  0.00    +0.000 A 
ATOM      9  C   UNL     1      48.211   7.416  14.233  0.00  0.00    +0.000 A 
ATOM     10  C   UNL     1      47.385   6.293  14.143  0.00  0.00    +0.000 A 
ATOM     11  C   UNL     1      47.530   5.303  15.137  0.00  0.00    +0.000 A 
ATOM     12  C   UNL     1      48.425   5.439  16.214  0.00  0.00    +0.000 A 
BRANCH   7  14
ATOM     13  C   UNL     1      51.424   6.536  17.251  0.00  0.00    +0.000 C 
ATOM     14  O   UNL     1      50.069   6.959  17.311  0.00  0.00    +0.000 OA
ENDBRANCH   7  14
BRANCH  12  15
ATOM     15  C   UNL     1      48.392   4.400  17.201  0.00  0.00    +0.000 C 
ATOM     16  N   UNL     1      48.355   3.536  17.971  0.00  0.00    +0.000 NA
ENDBRANCH  12  15
ENDBRANCH   1  10
BRANCH   4  17
ATOM     17  C   UNL     1      45.062   3.903   9.918  0.00  0.00    +0.000 A 
ATOM     18  C   UNL     1      44.340   2.719  10.103  0.00  0.00    +0.000 A 
ATOM     19  C   UNL     1      44.383   1.713   9.153  0.00  0.00    +0.000 A 
ATOM     20  N   UNL     1      45.107   1.788   8.025  0.00  0.00    +0.000 NA
ATOM     21  C   UNL     1      45.838   2.920   7.833  0.00  0.00    +0.000 A 
ATOM     22  C   UNL     1      45.838   3.974   8.758  0.00  0.00    +0.000 A 
BRANCH  21  23
ATOM     23  C   UNL     1      46.675   3.055   6.570  0.00  0.00    +0.000 C 
ATOM     24  F   UNL     1      46.834   4.337   6.132  0.00  0.00    +0.000 F 
ATOM     25  F   UNL     1      47.938   2.559   6.727  0.00  0.00    +0.000 F 
ATOM     26  F   UNL     1      46.146   2.366   5.515  0.00  0.00    +0.000 F 
ENDBRANCH  21  23
ENDBRANCH   4  17
BRANCH   1  27
ATOM     27  O   UNL     1      45.387   7.325  13.310  0.00  0.00    +0.000 OA
ATOM     28  H   UNL     1      45.849   8.086  12.917  0.00  0.00    +0.000 HD
ENDBRANCH   1  27
TORSDOF 6
ENDMDL
MODEL 4
REMARK VINA RESULT:    -6.146      2.943      4.688
REMARK INTER + INTRA:          -9.060
REMARK INTER:                  -8.140
REMARK INTRA:                  -0.920
REMARK UNBOUND:                -0.937
REMARK  Name = 
REMARK  7 active torsions:
REMARK  status: ('A' for Active; 'I' for Inactive)
REMARK    1  A    between atoms: C_1  and  O_2
REMARK    2  A    between atoms: O_2  and  C_3
REMARK    3  A    between atoms: C_6  and  C_7
REMARK    4  A    between atoms: C_7  and  O_8
REMARK    5  A    between atoms: N_11  and  C_12
REMARK    6  A    between atoms: C_16  and  C_17
REMARK    7  A    between atoms: C_25  and  C_26
REMARK                            x       y       z     vdW  Elec       q    Type
REMARK                         _______ _______ _______ _____ _____    ______ ____
ROOT
ATOM      1  C   UNL     1      47.550   8.249  13.337  0.00  0.00    +0.000 C 
ATOM      2  C   UNL     1      46.017   8.420  13.365  0.00  0.00    +0.000 C 
ATOM      3  C   UNL     1      45.401   8.188  11.981  0.00  0.00    +0.000 C 
ATOM      4  N   UNL     1      45.835   6.896  11.442  0.00  0.00    +0.000 N 
ATOM      5  C   UNL     1      47.287   6.741  11.319  0.00  0.00    +0.000 C 
ATOM      6  C   UNL     1      47.919   6.899  12.695  0.00  0.00    +0.000 C 
ENDROOT
BRANCH   1  10
ATOM      7  C   UNL     1      49.296   8.142  17.344  0.00  0.00    +0.000 A 
ATOM      8  C   UNL     1      48.613   9.281  16.895  0.00  0.00    +0.000 A 
ATOM      9  C   UNL     1      48.110   9.373  15.590  0.00  0.00    +0.000 A 
ATOM     10  C   UNL     1      48.263   8.314  14.693  0.00  0.00    +0.000 A 
ATOM     11  C   UNL     1      48.980   7.186  15.142  0.00  0.00    +0.000 A 
ATOM     12  C   UNL     1      49.486   7.083  16.451  0.00  0.00    +0.000 A 
BRANCH   7  14
ATOM     13  C   UNL     1      48.601   7.889  19.626  0.00  0.00    +0.000 C 
ATOM     14  O   UNL     1      49.610   8.203  18.675  0.00  0.00    +0.000 OA
ENDBRANCH   7  14
BRANCH  12  15
ATOM     15  C   UNL     1      50.104   5.837  16.796  0.00  0.00    +0.000 C 
ATOM     16  N   UNL     1      50.575   4.811  17.057  0.00  0.00    +0.000 NA
ENDBRANCH  12  15
ENDBRANCH   1  10
BRANCH   4  17
ATOM     17  C   UNL     1      44.993   5.822  11.219  0.00  0.00    +0.000 A 
ATOM     18  C   UNL     1      43.798   5.681  11.933  0.00  0.00    +0.000 A 
ATOM     19  C   UNL     1      42.944   4.623  11.673  0.00  0.00    +0.000 A 
ATOM     20  N   UNL     1      43.195   3.675  10.756  0.00  0.00    +0.000 NA
ATOM     21  C   UNL     1      44.363   3.776  10.065  0.00  0.00    +0.000 A 
ATOM     22  C   UNL     1      45.271   4.823  10.282  0.00  0.00    +0.000 A 
BRANCH  21  23
ATOM     23  C   UNL     1      44.694   2.728   9.014  0.00  0.00    +0.000 C 
ATOM     24  F   UNL     1      44.095   1.519   9.211  0.00  0.00    +0.000 F 
ATOM     25  F   UNL     1      44.330   3.119   7.756  0.00  0.00    +0.000 F 
ATOM     26  F   UNL     1      46.034   2.469   8.937  0.00  0.00    +0.000 F 
ENDBRANCH  21  23
ENDBRANCH   4  17
BRANCH   1  27
ATOM     27  O   UNL     1      48.084   9.300  12.515  0.00  0.00    +0.000 OA
ATOM     28  H   UNL     1      47.338   9.860  12.239  0.00  0.00    +0.000 HD
ENDBRANCH   1  27
TORSDOF 6
ENDMDL
MODEL 5
REMARK VINA RESULT:    -5.972      5.961      8.754
REMARK INTER + INTRA:          -8.829
REMARK INTER:                  -7.940
REMARK INTRA:                  -0.889
REMARK UNBOUND:                -0.937
REMARK  Name = 
REMARK  7 active torsions:
REMARK  status: ('A' for Active; 'I' for Inactive)
REMARK    1  A    between atoms: C_1  and  O_2
REMARK    2  A    between atoms: O_2  and  C_3
REMARK    3  A    between atoms: C_6  and  C_7
REMARK    4  A    between atoms: C_7  and  O_8
REMARK    5  A    between atoms: N_11  and  C_12
REMARK    6  A    between atoms: C_16  and  C_17
REMARK    7  A    between atoms: C_25  and  C_26
REMARK                            x       y       z     vdW  Elec       q    Type
REMARK                         _______ _______ _______ _____ _____    ______ ____
ROOT
ATOM      1  C   UNL     1      47.942   6.566  13.707  0.00  0.00    +0.000 C 
ATOM      2  C   UNL     1      47.938   5.759  15.022  0.00  0.00    +0.000 C 
ATOM      3  C   UNL     1      48.959   6.311  16.023  0.00  0.00    +0.000 C 
ATOM      4  N   UNL     1      48.753   7.748  16.219  0.00  0.00    +0.000 N 
ATOM      5  C   UNL     1      48.842   8.552  14.997  0.00  0.00    +0.000 C 
ATOM      6  C   UNL     1      47.790   8.068  14.009  0.00  0.00    +0.000 C 
ENDROOT
BRANCH   1  10
ATOM      7  C   UNL     1      45.060   5.140  10.745  0.00  0.00    +0.000 A 
ATOM      8  C   UNL     1      45.950   6.176  10.432  0.00  0.00    +0.000 A 
ATOM      9  C   UNL     1      46.832   6.705  11.383  0.00  0.00    +0.000 A 
ATOM     10  C   UNL     1      46.861   6.199  12.684  0.00  0.00    +0.000 A 
ATOM     11  C   UNL     1      45.939   5.180  13.001  0.00  0.00    +0.000 A 
ATOM     12  C   UNL     1      45.052   4.641  12.052  0.00  0.00    +0.000 A 
BRANCH   7  14
ATOM     13  C   UNL     1      44.987   3.749   8.793  0.00  0.00    +0.000 C 
ATOM     14  O   UNL     1      44.363   4.690   9.656  0.00  0.00    +0.000 OA
ENDBRANCH   7  14
BRANCH  12  15
ATOM     15  C   UNL     1      44.245   3.541  12.491  0.00  0.00    +0.000 C 
ATOM     16  N   UNL     1      43.582   2.646  12.810  0.00  0.00    +0.000 NA
ENDBRANCH  12  15
ENDBRANCH   1  10
BRANCH   4  17
ATOM     17  C   UNL     1      48.333   8.321  17.406  0.00  0.00    +0.000 A 
ATOM     18  C   UNL     1      48.015   9.681  17.479  0.00  0.00    +0.000 A 
ATOM     19  C   UNL     1      47.557  10.234  18.662  0.00  0.00    +0.000 A 
ATOM     20  N   UNL     1      47.401   9.534  19.797  0.00  0.00    +0.000 NA
ATOM     21  C   UNL     1      47.728   8.213  19.760  0.00  0.00    +0.000 A 
ATOM     22  C   UNL     1      48.198   7.593  18.592  0.00  0.00    +0.000 A 
BRANCH  21  23
ATOM     23  C   UNL     1      47.569   7.375  21.018  0.00  0.00    +0.000 C 
ATOM     24  F   UNL     1      46.889   6.206  20.838  0.00  0.00    +0.000 F 
ATOM     25  F   UNL     1      48.771   7.021  21.564  0.00  0.00    +0.000 F 
ATOM     26  F   UNL     1      46.905   8.040  22.010  0.00  0.00    +0.000 F 
ENDBRANCH  21  23
ENDBRANCH   4  17
BRANCH   1  27
ATOM     27  O   UNL     1      49.220   6.360  13.083  0.00  0.00    +0.000 OA
ATOM     28  H   UNL     1      49.637   5.597  13.518  0.00  0.00    +0.000 HD
ENDBRANCH   1  27
TORSDOF 6
ENDMDL
MODEL 6
REMARK VINA RESULT:    -5.899      2.987      4.460
REMARK INTER + INTRA:          -8.733
REMARK INTER:                  -7.844
REMARK INTRA:                  -0.888
REMARK UNBOUND:                -0.937
REMARK  Name = 
REMARK  7 active torsions:
REMARK  status: ('A' for Active; 'I' for Inactive)
REMARK    1  A    between atoms: C_1  and  O_2
REMARK    2  A    between atoms: O_2  and  C_3
REMARK    3  A    between atoms: C_6  and  C_7
REMARK    4  A    between atoms: C_7  and  O_8
REMARK    5  A    between atoms: N_11  and  C_12
REMARK    6  A    between atoms: C_16  and  C_17
REMARK    7  A    between atoms: C_25  and  C_26
REMARK                            x       y       z     vdW  Elec       q    Type
REMARK                         _______ _______ _______ _____ _____    ______ ____
ROOT
ATOM      1  C   UNL     1      44.669   5.153  11.476  0.00  0.00    +0.000 C 
ATOM      2  C   UNL     1      45.086   3.709  11.827  0.00  0.00    +0.000 C 
ATOM      3  C   UNL     1      44.442   2.693  10.877  0.00  0.00    +0.000 C 
ATOM      4  N   UNL     1      44.711   3.057   9.483  0.00  0.00    +0.000 N 
ATOM      5  C   UNL     1      44.243   4.391   9.098  0.00  0.00    +0.000 C 
ATOM      6  C   UNL     1      44.922   5.428   9.983  0.00  0.00    +0.000 C 
ENDROOT
BRANCH   1  10
ATOM      7  C   UNL     1      46.820   8.466  13.351  0.00  0.00    +0.000 A 
ATOM      8  C   UNL     1      47.211   7.141  13.583  0.00  0.00    +0.000 A 
ATOM      9  C   UNL     1      46.496   6.056  13.057  0.00  0.00    +0.000 A 
ATOM     10  C   UNL     1      45.365   6.268  12.265  0.00  0.00    +0.000 A 
ATOM     11  C   UNL     1      44.958   7.602  12.065  0.00  0.00    +0.000 A 
ATOM     12  C   UNL     1      45.672   8.698  12.586  0.00  0.00    +0.000 A 
BRANCH   7  14
ATOM     13  C   UNL     1      48.932   8.904  14.398  0.00  0.00    +0.000 C 
ATOM     14  O   UNL     1      47.707   9.378  13.854  0.00  0.00    +0.000 OA
ENDBRANCH   7  14
BRANCH  12  15
ATOM     15  C   UNL     1      45.197   9.998  12.215  0.00  0.00    +0.000 C 
ATOM     16  N   UNL     1      44.788  11.048  11.945  0.00  0.00    +0.000 NA
ENDBRANCH  12  15
ENDBRANCH   1  10
BRANCH   4  17
ATOM     17  C   UNL     1      45.491   2.311   8.620  0.00  0.00    +0.000 A 
ATOM     18  C   UNL     1      45.562   0.918   8.730  0.00  0.00    +0.000 A 
ATOM     19  C   UNL     1      46.314   0.179   7.834  0.00  0.00    +0.000 A 
ATOM     20  N   UNL     1      47.022   0.724   6.831  0.00  0.00    +0.000 NA
ATOM     21  C   UNL     1      46.990   2.080   6.717  0.00  0.00    +0.000 A 
ATOM     22  C   UNL     1      46.247   2.885   7.594  0.00  0.00    +0.000 A 
BRANCH  21  23
ATOM     23  C   UNL     1      47.773   2.747   5.598  0.00  0.00    +0.000 C 
ATOM     24  F   UNL     1      47.118   3.773   4.982  0.00  0.00    +0.000 F 
ATOM     25  F   UNL     1      48.956   3.274   6.033  0.00  0.00    +0.000 F 
ATOM     26  F   UNL     1      48.112   1.874   4.603  0.00  0.00    +0.000 F 
ENDBRANCH  21  23
ENDBRANCH   4  17
BRANCH   1  27
ATOM     27  O   UNL     1      43.257   5.262  11.722  0.00  0.00    +0.000 OA
ATOM     28  H   UNL     1      42.932   6.027  11.218  0.00  0.00    +0.000 HD
ENDBRANCH   1  27
TORSDOF 6
ENDMDL
MODEL 7
REMARK VINA RESULT:    -5.769      3.411      7.663
REMARK INTER + INTRA:          -8.561
REMARK INTER:                  -7.594
REMARK INTRA:                  -0.967
REMARK UNBOUND:                -0.937
REMARK  Name = 
REMARK  7 active torsions:
REMARK  status: ('A' for Active; 'I' for Inactive)
REMARK    1  A    between atoms: C_1  and  O_2
REMARK    2  A    between atoms: O_2  and  C_3
REMARK    3  A    between atoms: C_6  and  C_7
REMARK    4  A    between atoms: C_7  and  O_8
REMARK    5  A    between atoms: N_11  and  C_12
REMARK    6  A    between atoms: C_16  and  C_17
REMARK    7  A    between atoms: C_25  and  C_26
REMARK                            x       y       z     vdW  Elec       q    Type
REMARK                         _______ _______ _______ _____ _____    ______ ____
ROOT
ATOM      1  C   UNL     1      47.449   7.586  12.851  0.00  0.00    +0.000 C 
ATOM      2  C   UNL     1      47.715   8.657  11.772  0.00  0.00    +0.000 C 
ATOM      3  C   UNL     1      48.850   9.601  12.187  0.00  0.00    +0.000 C 
ATOM      4  N   UNL     1      50.042   8.833  12.555  0.00  0.00    +0.000 N 
ATOM      5  C   UNL     1      49.839   7.870  13.641  0.00  0.00    +0.000 C 
ATOM      6  C   UNL     1      48.763   6.876  13.226  0.00  0.00    +0.000 C 
ENDROOT
BRANCH   1  10
ATOM      7  C   UNL     1      44.364   4.770  11.558  0.00  0.00    +0.000 A 
ATOM      8  C   UNL     1      44.395   5.236  12.880  0.00  0.00    +0.000 A 
ATOM      9  C   UNL     1      45.415   6.078  13.342  0.00  0.00    +0.000 A 
ATOM     10  C   UNL     1      46.436   6.496  12.485  0.00  0.00    +0.000 A 
ATOM     11  C   UNL     1      46.416   5.995  11.167  0.00  0.00    +0.000 A 
ATOM     12  C   UNL     1      45.395   5.152  10.693  0.00  0.00    +0.000 A 
BRANCH   7  14
ATOM     13  C   UNL     1      43.217   2.665  11.578  0.00  0.00    +0.000 C 
ATOM     14  O   UNL     1      43.234   4.053  11.274  0.00  0.00    +0.000 OA
ENDBRANCH   7  14
BRANCH  12  15
ATOM     15  C   UNL     1      45.452   4.806   9.303  0.00  0.00    +0.000 C 
ATOM     16  N   UNL     1      45.524   4.554   8.175  0.00  0.00    +0.000 NA
ENDBRANCH  12  15
ENDBRANCH   1  10
BRANCH   4  17
ATOM     17  C   UNL     1      51.231   8.854  11.849  0.00  0.00    +0.000 A 
ATOM     18  C   UNL     1      52.197   9.837  12.091  0.00  0.00    +0.000 A 
ATOM     19  C   UNL     1      53.400   9.824  11.407  0.00  0.00    +0.000 A 
ATOM     20  N   UNL     1      53.717   8.905  10.480  0.00  0.00    +0.000 NA
ATOM     21  C   UNL     1      52.784   7.952  10.209  0.00  0.00    +0.000 A 
ATOM     22  C   UNL     1      51.546   7.911  10.867  0.00  0.00    +0.000 A 
BRANCH  21  23
ATOM     23  C   UNL     1      53.094   6.887   9.169  0.00  0.00    +0.000 C 
ATOM     24  F   UNL     1      52.152   6.760   8.190  0.00  0.00    +0.000 F 
ATOM     25  F   UNL     1      54.272   7.122   8.518  0.00  0.00    +0.000 F 
ATOM     26  F   UNL     1      53.228   5.643   9.716  0.00  0.00    +0.000 F 
ENDBRANCH  21  23
ENDBRANCH   4  17
BRANCH   1  27
ATOM     27  O   UNL     1      46.956   8.266  14.016  0.00  0.00    +0.000 OA
ATOM     28  H   UNL     1      46.190   8.798  13.741  0.00  0.00    +0.000 HD
ENDBRANCH   1  27
TORSDOF 6
ENDMDL
MODEL 8
REMARK VINA RESULT:    -5.761      5.927      8.765
REMARK INTER + INTRA:          -8.551
REMARK INTER:                  -7.664
REMARK INTRA:                  -0.887
REMARK UNBOUND:                -0.937
REMARK  Name = 
REMARK  7 active torsions:
REMARK  status: ('A' for Active; 'I' for Inactive)
REMARK    1  A    between atoms: C_1  and  O_2
REMARK    2  A    between atoms: O_2  and  C_3
REMARK    3  A    between atoms: C_6  and  C_7
REMARK    4  A    between atoms: C_7  and  O_8
REMARK    5  A    between atoms: N_11  and  C_12
REMARK    6  A    between atoms: C_16  and  C_17
REMARK    7  A    between atoms: C_25  and  C_26
REMARK                            x       y       z     vdW  Elec       q    Type
REMARK                         _______ _______ _______ _____ _____    ______ ____
ROOT
ATOM      1  C   UNL     1      47.955   6.567  13.717  0.00  0.00    +0.000 C 
ATOM      2  C   UNL     1      47.967   5.741  15.021  0.00  0.00    +0.000 C 
ATOM      3  C   UNL     1      48.972   6.304  16.033  0.00  0.00    +0.000 C 
ATOM      4  N   UNL     1      48.731   7.733  16.248  0.00  0.00    +0.000 N 
ATOM      5  C   UNL     1      48.803   8.555  15.038  0.00  0.00    +0.000 C 
ATOM      6  C   UNL     1      47.765   8.060  14.040  0.00  0.00    +0.000 C 
ENDROOT
BRANCH   1  10
ATOM      7  C   UNL     1      45.104   5.106  10.742  0.00  0.00    +0.000 A 
ATOM      8  C   UNL     1      46.005   6.131  10.422  0.00  0.00    +0.000 A 
ATOM      9  C   UNL     1      46.878   6.671  11.376  0.00  0.00    +0.000 A 
ATOM     10  C   UNL     1      46.885   6.188  12.687  0.00  0.00    +0.000 A 
ATOM     11  C   UNL     1      45.953   5.182  13.009  0.00  0.00    +0.000 A 
ATOM     12  C   UNL     1      45.075   4.630  12.058  0.00  0.00    +0.000 A 
BRANCH   7  14
ATOM     13  C   UNL     1      45.152   4.025   8.602  0.00  0.00    +0.000 C 
ATOM     14  O   UNL     1      44.419   4.641   9.652  0.00  0.00    +0.000 OA
ENDBRANCH   7  14
BRANCH  12  15
ATOM     15  C   UNL     1      44.254   3.544  12.506  0.00  0.00    +0.000 C 
ATOM     16  N   UNL     1      43.615   2.642  12.850  0.00  0.00    +0.000 NA
ENDBRANCH  12  15
ENDBRANCH   1  10
BRANCH   4  17
ATOM     17  C   UNL     1      48.295   8.278  17.442  0.00  0.00    +0.000 A 
ATOM     18  C   UNL     1      48.172   7.492  18.593  0.00  0.00    +0.000 A 
ATOM     19  C   UNL     1      47.773   8.058  19.791  0.00  0.00    +0.000 A 
ATOM     20  N   UNL     1      47.471   9.358  19.934  0.00  0.00    +0.000 NA
ATOM     21  C   UNL     1      47.559  10.140  18.823  0.00  0.00    +0.000 A 
ATOM     22  C   UNL     1      47.956   9.627  17.579  0.00  0.00    +0.000 A 
BRANCH  21  23
ATOM     23  C   UNL     1      47.228  11.620  18.931  0.00  0.00    +0.000 C 
ATOM     24  F   UNL     1      47.235  12.290  17.743  0.00  0.00    +0.000 F 
ATOM     25  F   UNL     1      45.992  11.839  19.471  0.00  0.00    +0.000 F 
ATOM     26  F   UNL     1      48.099  12.293  19.741  0.00  0.00    +0.000 F 
ENDBRANCH  21  23
ENDBRANCH   4  17
BRANCH   1  27
ATOM     27  O   UNL     1      49.239   6.401  13.094  0.00  0.00    +0.000 OA
ATOM     28  H   UNL     1      49.445   7.227  12.625  0.00  0.00    +0.000 HD
ENDBRANCH   1  27
TORSDOF 6
ENDMDL
MODEL 9
REMARK VINA RESULT:    -5.683      3.685      7.884
REMARK INTER + INTRA:          -8.447
REMARK INTER:                  -7.523
REMARK INTRA:                  -0.924
REMARK UNBOUND:                -0.937
REMARK  Name = 
REMARK  7 active torsions:
REMARK  status: ('A' for Active; 'I' for Inactive)
REMARK    1  A    between atoms: C_1  and  O_2
REMARK    2  A    between atoms: O_2  and  C_3
REMARK    3  A    between atoms: C_6  and  C_7
REMARK    4  A    between atoms: C_7  and  O_8
REMARK    5  A    between atoms: N_11  and  C_12
REMARK    6  A    between atoms: C_16  and  C_17
REMARK    7  A    between atoms: C_25  and  C_26
REMARK                            x       y       z     vdW  Elec       q    Type
REMARK                         _______ _______ _______ _____ _____    ______ ____
ROOT
ATOM      1  C   UNL     1      46.870   7.005  12.431  0.00  0.00    +0.000 C 
ATOM      2  C   UNL     1      47.336   8.320  11.773  0.00  0.00    +0.000 C 
ATOM      3  C   UNL     1      48.285   9.101  12.690  0.00  0.00    +0.000 C 
ATOM      4  N   UNL     1      49.390   8.244  13.128  0.00  0.00    +0.000 N 
ATOM      5  C   UNL     1      48.978   7.029  13.837  0.00  0.00    +0.000 C 
ATOM      6  C   UNL     1      48.087   6.200  12.922  0.00  0.00    +0.000 C 
ENDROOT
BRANCH   1  10
ATOM      7  C   UNL     1      44.741   4.014  10.057  0.00  0.00    +0.000 A 
ATOM      8  C   UNL     1      45.520   4.997   9.432  0.00  0.00    +0.000 A 
ATOM      9  C   UNL     1      46.152   6.013  10.161  0.00  0.00    +0.000 A 
ATOM     10  C   UNL     1      46.034   6.069  11.552  0.00  0.00    +0.000 A 
ATOM     11  C   UNL     1      45.221   5.097  12.170  0.00  0.00    +0.000 A 
ATOM     12  C   UNL     1      44.586   4.071  11.446  0.00  0.00    +0.000 A 
BRANCH   7  14
ATOM     13  C   UNL     1      45.182   1.986   8.856  0.00  0.00    +0.000 C 
ATOM     14  O   UNL     1      44.303   3.052   9.188  0.00  0.00    +0.000 OA
ENDBRANCH   7  14
BRANCH  12  15
ATOM     15  C   UNL     1      43.875   3.095  12.219  0.00  0.00    +0.000 C 
ATOM     16  N   UNL     1      43.330   2.307  12.870  0.00  0.00    +0.000 NA
ENDBRANCH  12  15
ENDBRANCH   1  10
BRANCH   4  17
ATOM     17  C   UNL     1      50.712   8.433  12.772  0.00  0.00    +0.000 A 
ATOM     18  C   UNL     1      51.651   8.898  13.699  0.00  0.00    +0.000 A 
ATOM     19  C   UNL     1      52.980   9.045  13.342  0.00  0.00    +0.000 A 
ATOM     20  N   UNL     1      53.453   8.775  12.114  0.00  0.00    +0.000 NA
ATOM     21  C   UNL     1      52.555   8.345  11.186  0.00  0.00    +0.000 A 
ATOM     22  C   UNL     1      51.194   8.176  11.485  0.00  0.00    +0.000 A 
BRANCH  21  23
ATOM     23  C   UNL     1      53.039   8.025   9.781  0.00  0.00    +0.000 C 
ATOM     24  F   UNL     1      52.496   6.897   9.238  0.00  0.00    +0.000 F 
ATOM     25  F   UNL     1      52.766   9.028   8.894  0.00  0.00    +0.000 F 
ATOM     26  F   UNL     1      54.392   7.849   9.720  0.00  0.00    +0.000 F 
ENDBRANCH  21  23
ENDBRANCH   4  17
BRANCH   1  27
ATOM     27  O   UNL     1      46.073   7.357  13.574  0.00  0.00    +0.000 OA
ATOM     28  H   UNL     1      46.682   7.519  14.315  0.00  0.00    +0.000 HD
ENDBRANCH   1  27
TORSDOF 6
ENDMDL
