MODEL 1
REMARK VINA RESULT:    -7.241      0.000      0.000
REMARK INTER + INTRA:          -9.016
REMARK INTER:                  -9.146
REMARK INTRA:                   0.130
REMARK UNBOUND:                 0.130
REMARK  Name = 
REMARK  5 active torsions:
REMARK  status: ('A' for Active; 'I' for Inactive)
REMARK    1  A    between atoms: O_1  and  C_2
REMARK    2  A    between atoms: C_5  and  O_6
REMARK    3  A    between atoms: O_6  and  C_7
REMARK    4  A    between atoms: C_7  and  C_8
REMARK    5  A    between atoms: C_13  and  C_14
REMARK                            x       y       z     vdW  Elec       q    Type
REMARK                         _______ _______ _______ _____ _____    ______ ____
ROOT
ATOM      1  C   UNL     1      45.078   4.763  12.235  0.00  0.00    +0.000 A 
ATOM      2  C   UNL     1      45.574   3.636  12.915  0.00  0.00    +0.000 A 
ATOM      3  C   UNL     1      46.643   3.725  13.811  0.00  0.00    +0.000 A 
ATOM      4  C   UNL     1      47.249   4.953  14.036  0.00  0.00    +0.000 A 
ATOM      5  F   UNL     1      48.283   5.013  14.889  0.00  0.00    +0.000 F 
ATOM      6  C   UNL     1      46.806   6.107  13.388  0.00  0.00    +0.000 A 
ATOM      7  C   UNL     1      45.718   5.983  12.503  0.00  0.00    +0.000 A 
ENDROOT
BRANCH   6   8
ATOM      8  C   UNL     1      47.466   7.446  13.688  0.00  0.00    +0.000 C 
ATOM      9  C   UNL     1      47.402   8.384  12.471  0.00  0.00    +0.000 C 
ATOM     10  C   UNL     1      48.448   8.031  11.416  0.00  0.00    +0.000 C 
ATOM     11  C   UNL     1      49.848   7.878  12.011  0.00  0.00    +0.000 C 
ATOM     12  N   UNL     1      49.897   6.990  13.169  0.00  0.00    +0.000 NA
ATOM     13  C   UNL     1      48.921   7.358  14.202  0.00  0.00    +0.000 C 
ATOM     14  H   UNL     1      50.835   6.980  13.566  0.00  0.00    +0.000 HD
ENDBRANCH   6   8
BRANCH   1  15
ATOM     15  C   UNL     1      43.921   4.686  11.233  0.00  0.00    +0.000 C 
ATOM     16  C   UNL     1      42.514   5.060  11.682  0.00  0.00    +0.000 C 
ATOM     17  C   UNL     1      43.279   5.981  10.790  0.00  0.00    +0.000 C 
BRANCH  15  18
ATOM     18  O   UNL     1      43.855   3.538  10.338  0.00  0.00    +0.000 OA
BRANCH  18  22
ATOM     19  C   UNL     1      46.615   3.328   7.422  0.00  0.00    +0.000 A 
ATOM     20  C   UNL     1      46.212   2.176   8.076  0.00  0.00    +0.000 A 
ATOM     21  N   UNL     1      45.348   2.188   9.110  0.00  0.00    +0.000 NA
ATOM     22  C   UNL     1      44.891   3.424   9.445  0.00  0.00    +0.000 A 
ATOM     23  C   UNL     1      45.378   4.580   8.862  0.00  0.00    +0.000 A 
ATOM     24  N   UNL     1      46.252   4.561   7.823  0.00  0.00    +0.000 NA
BRANCH  19  25
ATOM     25  O   UNL     1      47.335   3.276   6.268  0.00  0.00    +0.000 OA
ATOM     26  H   UNL     1      47.603   2.354   6.141  0.00  0.00    +0.000 HD
ENDBRANCH  19  25
ENDBRANCH  18  22
ENDBRANCH  15  18
ENDBRANCH   1  15
TORSDOF 5
ENDMDL
MODEL 2
REMARK VINA RESULT:    -7.053      2.013      2.829
REMARK INTER + INTRA:          -8.778
REMARK INTER:                  -8.300
REMARK INTRA:                  -0.478
REMARK UNBOUND:                 0.130
REMARK  Name = 
REMARK  5 active torsions:
REMARK  status: ('A' for Active; 'I' for Inactive)
REMARK    1  A    between atoms: O_1  and  C_2
REMARK    2  A    between atoms: C_5  and  O_6
REMARK    3  A    between atoms: O_6  and  C_7
REMARK    4  A    between atoms: C_7  and  C_8
REMARK    5  A    between atoms: C_13  and  C_14
REMARK                            x       y       z     vdW  Elec       q    Type
REMARK                         _______ _______ _______ _____ _____    ______ ____
ROOT
ATOM      1  C   UNL     1      44.669   6.930  11.973  0.00  0.00    +0.000 A 
ATOM      2  C   UNL     1      44.082   8.049  11.357  0.00  0.00    +0.000 A 
ATOM      3  C   UNL     1      44.650   9.323  11.446  0.00  0.00    +0.000 A 
ATOM      4  C   UNL     1      45.821   9.504  12.169  0.00  0.00    +0.000 A 
ATOM      5  F   UNL     1      46.341  10.738  12.252  0.00  0.00    +0.000 F 
ATOM      6  C   UNL     1      46.450   8.433  12.806  0.00  0.00    +0.000 A 
ATOM      7  C   UNL     1      45.857   7.162  12.684  0.00  0.00    +0.000 A 
ENDROOT
BRANCH   6   8
ATOM      8  C   UNL     1      47.755   8.658  13.556  0.00  0.00    +0.000 C 
ATOM      9  C   UNL     1      48.739   9.495  12.724  0.00  0.00    +0.000 C 
ATOM     10  C   UNL     1      49.428   8.667  11.641  0.00  0.00    +0.000 C 
ATOM     11  C   UNL     1      50.024   7.370  12.190  0.00  0.00    +0.000 C 
ATOM     12  N   UNL     1      49.082   6.585  12.984  0.00  0.00    +0.000 NA
ATOM     13  C   UNL     1      48.455   7.372  14.052  0.00  0.00    +0.000 C 
ATOM     14  H   UNL     1      49.549   5.772  13.381  0.00  0.00    +0.000 HD
ENDBRANCH   6   8
BRANCH   1  15
ATOM     15  C   UNL     1      44.055   5.528  11.907  0.00  0.00    +0.000 C 
ATOM     16  C   UNL     1      43.009   5.117  12.937  0.00  0.00    +0.000 C 
ATOM     17  C   UNL     1      42.594   5.410  11.533  0.00  0.00    +0.000 C 
BRANCH  15  18
ATOM     18  O   UNL     1      44.933   4.398  11.633  0.00  0.00    +0.000 OA
BRANCH  18  22
ATOM     19  C   UNL     1      45.720   3.221   7.870  0.00  0.00    +0.000 A 
ATOM     20  C   UNL     1      45.890   4.547   8.228  0.00  0.00    +0.000 A 
ATOM     21  N   UNL     1      45.574   5.020   9.450  0.00  0.00    +0.000 NA
ATOM     22  C   UNL     1      45.091   4.080  10.307  0.00  0.00    +0.000 A 
ATOM     23  C   UNL     1      44.822   2.782   9.912  0.00  0.00    +0.000 A 
ATOM     24  N   UNL     1      45.139   2.314   8.678  0.00  0.00    +0.000 NA
BRANCH  19  25
ATOM     25  O   UNL     1      46.220   2.729   6.702  0.00  0.00    +0.000 OA
ATOM     26  H   UNL     1      47.180   2.852   6.730  0.00  0.00    +0.000 HD
ENDBRANCH  19  25
ENDBRANCH  18  22
ENDBRANCH  15  18
ENDBRANCH   1  15
TORSDOF 5
ENDMDL
MODEL 3
REMARK VINA RESULT:    -6.932      3.243      6.795
REMARK INTER + INTRA:          -8.625
REMARK INTER:                  -8.336
REMARK INTRA:                  -0.289
REMARK UNBOUND:                 0.130
REMARK  Name = 
REMARK  5 active torsions:
REMARK  status: ('A' for Active; 'I' for Inactive)
REMARK    1  A    between atoms: O_1  and  C_2
REMARK    2  A    between atoms: C_5  and  O_6
REMARK    3  A    between atoms: O_6  and  C_7
REMARK    4  A    between atoms: C_7  and  C_8
REMARK    5  A    between atoms: C_13  and  C_14
REMARK                            x       y       z     vdW  Elec       q    Type
REMARK                         _______ _______ _______ _____ _____    ______ ____
ROOT
ATOM      1  C   UNL     1      46.808   7.540  12.515  0.00  0.00    +0.000 A 
ATOM      2  C   UNL     1      46.335   8.865  12.503  0.00  0.00    +0.000 A 
ATOM      3  C   UNL     1      45.084   9.197  11.977  0.00  0.00    +0.000 A 
ATOM      4  C   UNL     1      44.280   8.202  11.437  0.00  0.00    +0.000 A 
ATOM      5  F   UNL     1      43.089   8.546  10.924  0.00  0.00    +0.000 F 
ATOM      6  C   UNL     1      44.696   6.869  11.416  0.00  0.00    +0.000 A 
ATOM      7  C   UNL     1      45.956   6.569  11.968  0.00  0.00    +0.000 A 
ENDROOT
BRANCH   6   8
ATOM      8  C   UNL     1      43.773   5.796  10.854  0.00  0.00    +0.000 C 
ATOM      9  C   UNL     1      42.593   5.525  11.801  0.00  0.00    +0.000 C 
ATOM     10  C   UNL     1      42.994   4.651  12.987  0.00  0.00    +0.000 C 
ATOM     11  C   UNL     1      43.748   3.392  12.555  0.00  0.00    +0.000 C 
ATOM     12  N   UNL     1      44.863   3.660  11.651  0.00  0.00    +0.000 NA
ATOM     13  C   UNL     1      44.465   4.463  10.489  0.00  0.00    +0.000 C 
ATOM     14  H   UNL     1      45.284   2.786  11.341  0.00  0.00    +0.000 HD
ENDBRANCH   6   8
BRANCH   1  15
ATOM     15  C   UNL     1      48.184   7.155  13.068  0.00  0.00    +0.000 C 
ATOM     16  C   UNL     1      49.431   7.841  12.523  0.00  0.00    +0.000 C 
ATOM     17  C   UNL     1      48.933   8.182  13.888  0.00  0.00    +0.000 C 
BRANCH  15  18
ATOM     18  O   UNL     1      48.469   5.745  13.298  0.00  0.00    +0.000 OA
BRANCH  18  22
ATOM     19  C   UNL     1      47.267   4.605  16.961  0.00  0.00    +0.000 A 
ATOM     20  C   UNL     1      48.389   5.404  16.820  0.00  0.00    +0.000 A 
ATOM     21  N   UNL     1      48.886   5.759  15.619  0.00  0.00    +0.000 NA
ATOM     22  C   UNL     1      48.183   5.281  14.558  0.00  0.00    +0.000 A 
ATOM     23  C   UNL     1      47.130   4.396  14.701  0.00  0.00    +0.000 A 
ATOM     24  N   UNL     1      46.636   4.039  15.915  0.00  0.00    +0.000 NA
BRANCH  19  25
ATOM     25  O   UNL     1      46.675   4.416  18.173  0.00  0.00    +0.000 OA
ATOM     26  H   UNL     1      45.831   3.970  18.010  0.00  0.00    +0.000 HD
ENDBRANCH  19  25
ENDBRANCH  18  22
ENDBRANCH  15  18
ENDBRANCH   1  15
TORSDOF 5
ENDMDL
MODEL 4
REMARK VINA RESULT:    -6.751      1.836      2.787
REMARK INTER + INTRA:          -8.397
REMARK INTER:                  -9.182
REMARK INTRA:                   0.786
REMARK UNBOUND:                 0.130
REMARK  Name = 
REMARK  5 active torsions:
REMARK  status: ('A' for Active; 'I' for Inactive)
REMARK    1  A    between atoms: O_1  and  C_2
REMARK    2  A    between atoms: C_5  and  O_6
REMARK    3  A    between atoms: O_6  and  C_7
REMARK    4  A    between atoms: C_7  and  C_8
REMARK    5  A    between atoms: C_13  and  C_14
REMARK                            x       y       z     vdW  Elec       q    Type
REMARK                         _______ _______ _______ _____ _____    ______ ____
ROOT
ATOM      1  C   UNL     1      44.516   5.586  11.444  0.00  0.00    +0.000 A 
ATOM      2  C   UNL     1      43.494   6.531  11.244  0.00  0.00    +0.000 A 
ATOM      3  C   UNL     1      43.736   7.906  11.309  0.00  0.00    +0.000 A 
ATOM      4  C   UNL     1      45.016   8.365  11.589  0.00  0.00    +0.000 A 
ATOM      5  F   UNL     1      45.223   9.688  11.661  0.00  0.00    +0.000 F 
ATOM      6  C   UNL     1      46.072   7.476  11.802  0.00  0.00    +0.000 A 
ATOM      7  C   UNL     1      45.794   6.099  11.714  0.00  0.00    +0.000 A 
ENDROOT
BRANCH   6   8
ATOM      8  C   UNL     1      47.472   8.012  12.066  0.00  0.00    +0.000 C 
ATOM      9  C   UNL     1      48.419   6.893  12.530  0.00  0.00    +0.000 C 
ATOM     10  C   UNL     1      48.209   6.532  13.998  0.00  0.00    +0.000 C 
ATOM     11  C   UNL     1      48.207   7.763  14.907  0.00  0.00    +0.000 C 
ATOM     12  N   UNL     1      47.309   8.822  14.454  0.00  0.00    +0.000 NA
ATOM     13  C   UNL     1      47.544   9.198  13.055  0.00  0.00    +0.000 C 
ATOM     14  H   UNL     1      47.401   9.641  15.054  0.00  0.00    +0.000 HD
ENDBRANCH   6   8
BRANCH   1  15
ATOM     15  C   UNL     1      44.269   4.074  11.397  0.00  0.00    +0.000 C 
ATOM     16  C   UNL     1      45.187   3.140  12.177  0.00  0.00    +0.000 C 
ATOM     17  C   UNL     1      43.798   3.393  12.663  0.00  0.00    +0.000 C 
BRANCH  15  18
ATOM     18  O   UNL     1      43.934   3.466  10.117  0.00  0.00    +0.000 OA
BRANCH  18  22
ATOM     19  C   UNL     1      46.717   3.147   7.233  0.00  0.00    +0.000 A 
ATOM     20  C   UNL     1      46.340   2.028   7.955  0.00  0.00    +0.000 A 
ATOM     21  N   UNL     1      45.469   2.082   8.982  0.00  0.00    +0.000 NA
ATOM     22  C   UNL     1      44.978   3.324   9.237  0.00  0.00    +0.000 A 
ATOM     23  C   UNL     1      45.439   4.454   8.586  0.00  0.00    +0.000 A 
ATOM     24  N   UNL     1      46.320   4.393   7.555  0.00  0.00    +0.000 NA
BRANCH  19  25
ATOM     25  O   UNL     1      47.446   3.043   6.088  0.00  0.00    +0.000 OA
ATOM     26  H   UNL     1      47.329   2.140   5.757  0.00  0.00    +0.000 HD
ENDBRANCH  19  25
ENDBRANCH  18  22
ENDBRANCH  15  18
ENDBRANCH   1  15
TORSDOF 5
ENDMDL
MODEL 5
REMARK VINA RESULT:    -6.601      3.162      5.109
REMARK INTER + INTRA:          -8.207
REMARK INTER:                  -8.078
REMARK INTRA:                  -0.130
REMARK UNBOUND:                 0.130
REMARK  Name = 
REMARK  5 active torsions:
REMARK  status: ('A' for Active; 'I' for Inactive)
REMARK    1  A    between atoms: O_1  and  C_2
REMARK    2  A    between atoms: C_5  and  O_6
REMARK    3  A    between atoms: O_6  and  C_7
REMARK    4  A    between atoms: C_7  and  C_8
REMARK    5  A    between atoms: C_13  and  C_14
REMARK                            x       y       z     vdW  Elec       q    Type
REMARK                         _______ _______ _______ _____ _____    ______ ____
ROOT
ATOM      1  C   UNL     1      47.991   6.672  14.113  0.00  0.00    +0.000 A 
ATOM      2  C   UNL     1      49.211   7.298  13.800  0.00  0.00    +0.000 A 
ATOM      3  C   UNL     1      50.283   7.316  14.696  0.00  0.00    +0.000 A 
ATOM      4  C   UNL     1      50.149   6.713  15.939  0.00  0.00    +0.000 A 
ATOM      5  F   UNL     1      51.187   6.755  16.789  0.00  0.00    +0.000 F 
ATOM      6  C   UNL     1      48.962   6.080  16.311  0.00  0.00    +0.000 A 
ATOM      7  C   UNL     1      47.908   6.068  15.377  0.00  0.00    +0.000 A 
ENDROOT
BRANCH   6   8
ATOM      8  C   UNL     1      48.862   5.392  17.665  0.00  0.00    +0.000 C 
ATOM      9  C   UNL     1      49.637   4.065  17.675  0.00  0.00    +0.000 C 
ATOM     10  C   UNL     1      48.870   2.944  16.977  0.00  0.00    +0.000 C 
ATOM     11  C   UNL     1      47.428   2.827  17.473  0.00  0.00    +0.000 C 
ATOM     12  N   UNL     1      46.703   4.094  17.465  0.00  0.00    +0.000 NA
ATOM     13  C   UNL     1      47.422   5.158  18.176  0.00  0.00    +0.000 C 
ATOM     14  H   UNL     1      45.776   3.971  17.870  0.00  0.00    +0.000 HD
ENDBRANCH   6   8
BRANCH   1  15
ATOM     15  C   UNL     1      46.795   6.657  13.155  0.00  0.00    +0.000 C 
ATOM     16  C   UNL     1      46.550   7.851  12.242  0.00  0.00    +0.000 C 
ATOM     17  C   UNL     1      47.075   6.575  11.671  0.00  0.00    +0.000 C 
BRANCH  15  18
ATOM     18  O   UNL     1      45.519   6.154  13.648  0.00  0.00    +0.000 OA
BRANCH  18  22
ATOM     19  C   UNL     1      43.660   3.053  11.890  0.00  0.00    +0.000 A 
ATOM     20  C   UNL     1      44.932   2.890  12.411  0.00  0.00    +0.000 A 
ATOM     21  N   UNL     1      45.638   3.906  12.945  0.00  0.00    +0.000 NA
ATOM     22  C   UNL     1      44.988   5.100  12.946  0.00  0.00    +0.000 A 
ATOM     23  C   UNL     1      43.764   5.281  12.329  0.00  0.00    +0.000 A 
ATOM     24  N   UNL     1      43.060   4.254  11.788  0.00  0.00    +0.000 NA
BRANCH  19  25
ATOM     25  O   UNL     1      42.896   1.985  11.531  0.00  0.00    +0.000 OA
ATOM     26  H   UNL     1      43.419   1.189  11.706  0.00  0.00    +0.000 HD
ENDBRANCH  19  25
ENDBRANCH  18  22
ENDBRANCH  15  18
ENDBRANCH   1  15
TORSDOF 5
ENDMDL
MODEL 6
REMARK VINA RESULT:    -6.600      3.170      6.743
REMARK INTER + INTRA:          -8.207
REMARK INTER:                  -8.231
REMARK INTRA:                   0.025
REMARK UNBOUND:                 0.130
REMARK  Name = 
REMARK  5 active torsions:
REMARK  status: ('A' for Active; 'I' for Inactive)
REMARK    1  A    between atoms: O_1  and  C_2
REMARK    2  A    between atoms: C_5  and  O_6
REMARK    3  A    between atoms: O_6  and  C_7
REMARK    4  A    between atoms: C_7  and  C_8
REMARK    5  A    between atoms: C_13  and  C_14
REMARK                            x       y       z     vdW  Elec       q    Type
REMARK                         _______ _______ _______ _____ _____    ______ ____
ROOT
ATOM      1  C   UNL     1      45.750   5.099  12.219  0.00  0.00    +0.000 A 
ATOM      2  C   UNL     1      45.034   4.484  13.262  0.00  0.00    +0.000 A 
ATOM      3  C   UNL     1      44.052   3.521  13.015  0.00  0.00    +0.000 A 
ATOM      4  C   UNL     1      43.757   3.161  11.707  0.00  0.00    +0.000 A 
ATOM      5  F   UNL     1      42.801   2.245  11.493  0.00  0.00    +0.000 F 
ATOM      6  C   UNL     1      44.430   3.739  10.629  0.00  0.00    +0.000 A 
ATOM      7  C   UNL     1      45.423   4.694  10.916  0.00  0.00    +0.000 A 
ENDROOT
BRANCH   6   8
ATOM      8  C   UNL     1      44.112   3.292   9.209  0.00  0.00    +0.000 C 
ATOM      9  C   UNL     1      44.598   1.856   8.955  0.00  0.00    +0.000 C 
ATOM     10  C   UNL     1      46.104   1.793   8.707  0.00  0.00    +0.000 C 
ATOM     11  C   UNL     1      46.564   2.802   7.654  0.00  0.00    +0.000 C 
ATOM     12  N   UNL     1      46.092   4.161   7.902  0.00  0.00    +0.000 NA
ATOM     13  C   UNL     1      44.639   4.225   8.095  0.00  0.00    +0.000 C 
ATOM     14  H   UNL     1      46.367   4.774   7.137  0.00  0.00    +0.000 HD
ENDBRANCH   6   8
BRANCH   1  15
ATOM     15  C   UNL     1      46.817   6.172  12.465  0.00  0.00    +0.000 C 
ATOM     16  C   UNL     1      47.075   7.230  11.400  0.00  0.00    +0.000 C 
ATOM     17  C   UNL     1      46.357   7.600  12.655  0.00  0.00    +0.000 C 
BRANCH  15  18
ATOM     18  O   UNL     1      48.082   5.766  13.062  0.00  0.00    +0.000 OA
BRANCH  18  22
ATOM     19  C   UNL     1      48.676   5.951  17.034  0.00  0.00    +0.000 A 
ATOM     20  C   UNL     1      48.002   4.873  16.486  0.00  0.00    +0.000 A 
ATOM     21  N   UNL     1      47.706   4.787  15.174  0.00  0.00    +0.000 NA
ATOM     22  C   UNL     1      48.141   5.840  14.431  0.00  0.00    +0.000 A 
ATOM     23  C   UNL     1      48.716   6.963  14.998  0.00  0.00    +0.000 A 
ATOM     24  N   UNL     1      49.008   7.044  16.322  0.00  0.00    +0.000 NA
BRANCH  19  25
ATOM     25  O   UNL     1      49.128   5.929  18.318  0.00  0.00    +0.000 OA
ATOM     26  H   UNL     1      48.819   6.743  18.742  0.00  0.00    +0.000 HD
ENDBRANCH  19  25
ENDBRANCH  18  22
ENDBRANCH  15  18
ENDBRANCH   1  15
TORSDOF 5
ENDMDL
MODEL 7
REMARK VINA RESULT:    -6.338      2.054      3.341
REMARK INTER + INTRA:          -7.875
REMARK INTER:                  -7.849
REMARK INTRA:                  -0.026
REMARK UNBOUND:                 0.130
REMARK  Name = 
REMARK  5 active torsions:
REMARK  status: ('A' for Active; 'I' for Inactive)
REMARK    1  A    between atoms: O_1  and  C_2
REMARK    2  A    between atoms: C_5  and  O_6
REMARK    3  A    between atoms: O_6  and  C_7
REMARK    4  A    between atoms: C_7  and  C_8
REMARK    5  A    between atoms: C_13  and  C_14
REMARK                            x       y       z     vdW  Elec       q    Type
REMARK                         _______ _______ _______ _____ _____    ______ ____
ROOT
ATOM      1  C   UNL     1      45.605   5.627  12.982  0.00  0.00    +0.000 A 
ATOM      2  C   UNL     1      45.871   6.947  12.575  0.00  0.00    +0.000 A 
ATOM      3  C   UNL     1      46.939   7.681  13.100  0.00  0.00    +0.000 A 
ATOM      4  C   UNL     1      47.761   7.105  14.058  0.00  0.00    +0.000 A 
ATOM      5  F   UNL     1      48.772   7.832  14.558  0.00  0.00    +0.000 F 
ATOM      6  C   UNL     1      47.547   5.800  14.506  0.00  0.00    +0.000 A 
ATOM      7  C   UNL     1      46.471   5.086  13.945  0.00  0.00    +0.000 A 
ENDROOT
BRANCH   6   8
ATOM      8  C   UNL     1      48.492   5.184  15.528  0.00  0.00    +0.000 C 
ATOM      9  C   UNL     1      47.951   3.844  16.051  0.00  0.00    +0.000 C 
ATOM     10  C   UNL     1      46.848   4.034  17.089  0.00  0.00    +0.000 C 
ATOM     11  C   UNL     1      47.247   5.017  18.191  0.00  0.00    +0.000 C 
ATOM     12  N   UNL     1      47.765   6.284  17.684  0.00  0.00    +0.000 NA
ATOM     13  C   UNL     1      48.856   6.099  16.719  0.00  0.00    +0.000 C 
ATOM     14  H   UNL     1      48.080   6.870  18.455  0.00  0.00    +0.000 HD
ENDBRANCH   6   8
BRANCH   1  15
ATOM     15  C   UNL     1      44.429   4.811  12.436  0.00  0.00    +0.000 C 
ATOM     16  C   UNL     1      43.153   4.690  13.261  0.00  0.00    +0.000 C 
ATOM     17  C   UNL     1      43.171   5.554  12.044  0.00  0.00    +0.000 C 
BRANCH  15  18
ATOM     18  O   UNL     1      44.710   3.537  11.790  0.00  0.00    +0.000 OA
BRANCH  18  22
ATOM     19  C   UNL     1      45.513   3.418   7.852  0.00  0.00    +0.000 A 
ATOM     20  C   UNL     1      45.672   4.600   8.554  0.00  0.00    +0.000 A 
ATOM     21  N   UNL     1      45.350   4.725   9.856  0.00  0.00    +0.000 NA
ATOM     22  C   UNL     1      44.873   3.587  10.427  0.00  0.00    +0.000 A 
ATOM     23  C   UNL     1      44.614   2.441   9.698  0.00  0.00    +0.000 A 
ATOM     24  N   UNL     1      44.937   2.323   8.385  0.00  0.00    +0.000 NA
BRANCH  19  25
ATOM     25  O   UNL     1      46.018   3.261   6.597  0.00  0.00    +0.000 OA
ATOM     26  H   UNL     1      45.281   3.004   6.024  0.00  0.00    +0.000 HD
ENDBRANCH  19  25
ENDBRANCH  18  22
ENDBRANCH  15  18
ENDBRANCH   1  15
TORSDOF 5
ENDMDL
MODEL 8
REMARK VINA RESULT:    -6.332      3.176      6.287
REMARK INTER + INTRA:          -7.868
REMARK INTER:                  -7.665
REMARK INTRA:                  -0.203
REMARK UNBOUND:                 0.130
REMARK  Name = 
REMARK  5 active torsions:
REMARK  status: ('A' for Active; 'I' for Inactive)
REMARK    1  A    between atoms: O_1  and  C_2
REMARK    2  A    between atoms: C_5  and  O_6
REMARK    3  A    between atoms: O_6  and  C_7
REMARK    4  A    between atoms: C_7  and  C_8
REMARK    5  A    between atoms: C_13  and  C_14
REMARK                            x       y       z     vdW  Elec       q    Type
REMARK                         _______ _______ _______ _____ _____    ______ ____
ROOT
ATOM      1  C   UNL     1      46.868   5.959  12.582  0.00  0.00    +0.000 A 
ATOM      2  C   UNL     1      47.027   5.001  13.599  0.00  0.00    +0.000 A 
ATOM      3  C   UNL     1      46.294   3.811  13.614  0.00  0.00    +0.000 A 
ATOM      4  C   UNL     1      45.372   3.560  12.608  0.00  0.00    +0.000 A 
ATOM      5  F   UNL     1      44.670   2.418  12.649  0.00  0.00    +0.000 F 
ATOM      6  C   UNL     1      45.166   4.473  11.572  0.00  0.00    +0.000 A 
ATOM      7  C   UNL     1      45.932   5.655  11.581  0.00  0.00    +0.000 A 
ENDROOT
BRANCH   6   8
ATOM      8  C   UNL     1      44.178   4.149  10.461  0.00  0.00    +0.000 C 
ATOM      9  C   UNL     1      44.275   2.674  10.041  0.00  0.00    +0.000 C 
ATOM     10  C   UNL     1      45.477   2.409   9.138  0.00  0.00    +0.000 C 
ATOM     11  C   UNL     1      45.557   3.395   7.971  0.00  0.00    +0.000 C 
ATOM     12  N   UNL     1      45.458   4.793   8.379  0.00  0.00    +0.000 NA
ATOM     13  C   UNL     1      44.277   5.054   9.211  0.00  0.00    +0.000 C 
ATOM     14  H   UNL     1      45.447   5.399   7.561  0.00  0.00    +0.000 HD
ENDBRANCH   6   8
BRANCH   1  15
ATOM     15  C   UNL     1      47.645   7.279  12.555  0.00  0.00    +0.000 C 
ATOM     16  C   UNL     1      49.168   7.255  12.594  0.00  0.00    +0.000 C 
ATOM     17  C   UNL     1      48.463   7.598  11.323  0.00  0.00    +0.000 C 
BRANCH  15  18
ATOM     18  O   UNL     1      47.158   8.386  13.369  0.00  0.00    +0.000 OA
BRANCH  18  22
ATOM     19  C   UNL     1      45.181  11.003  11.044  0.00  0.00    +0.000 A 
ATOM     20  C   UNL     1      46.479  11.275  11.440  0.00  0.00    +0.000 A 
ATOM     21  N   UNL     1      47.169  10.476  12.278  0.00  0.00    +0.000 NA
ATOM     22  C   UNL     1      46.489   9.372  12.686  0.00  0.00    +0.000 A 
ATOM     23  C   UNL     1      45.158   9.161  12.376  0.00  0.00    +0.000 A 
ATOM     24  N   UNL     1      44.467   9.972  11.534  0.00  0.00    +0.000 NA
BRANCH  19  25
ATOM     25  O   UNL     1      44.574  11.717  10.056  0.00  0.00    +0.000 OA
ATOM     26  H   UNL     1      45.062  11.542   9.238  0.00  0.00    +0.000 HD
ENDBRANCH  19  25
ENDBRANCH  18  22
ENDBRANCH  15  18
ENDBRANCH   1  15
TORSDOF 5
ENDMDL
MODEL 9
REMARK VINA RESULT:    -6.123      2.980      4.747
REMARK INTER + INTRA:          -7.604
REMARK INTER:                  -7.781
REMARK INTRA:                   0.177
REMARK UNBOUND:                 0.130
REMARK  Name = 
REMARK  5 active torsions:
REMARK  status: ('A' for Active; 'I' for Inactive)
REMARK    1  A    between atoms: O_1  and  C_2
REMARK    2  A    between atoms: C_5  and  O_6
REMARK    3  A    between atoms: O_6  and  C_7
REMARK    4  A    between atoms: C_7  and  C_8
REMARK    5  A    between atoms: C_13  and  C_14
REMARK                            x       y       z     vdW  Elec       q    Type
REMARK                         _______ _______ _______ _____ _____    ______ ____
ROOT
ATOM      1  C   UNL     1      47.193   5.751  13.882  0.00  0.00    +0.000 A 
ATOM      2  C   UNL     1      46.828   4.396  13.780  0.00  0.00    +0.000 A 
ATOM      3  C   UNL     1      47.152   3.468  14.773  0.00  0.00    +0.000 A 
ATOM      4  C   UNL     1      47.863   3.879  15.892  0.00  0.00    +0.000 A 
ATOM      5  F   UNL     1      48.174   2.968  16.826  0.00  0.00    +0.000 F 
ATOM      6  C   UNL     1      48.257   5.209  16.049  0.00  0.00    +0.000 A 
ATOM      7  C   UNL     1      47.902   6.120  15.036  0.00  0.00    +0.000 A 
ENDROOT
BRANCH   6   8
ATOM      8  C   UNL     1      49.000   5.636  17.307  0.00  0.00    +0.000 C 
ATOM      9  C   UNL     1      48.310   5.099  18.572  0.00  0.00    +0.000 C 
ATOM     10  C   UNL     1      47.075   5.915  18.945  0.00  0.00    +0.000 C 
ATOM     11  C   UNL     1      47.359   7.418  18.981  0.00  0.00    +0.000 C 
ATOM     12  N   UNL     1      48.020   7.917  17.779  0.00  0.00    +0.000 NA
ATOM     13  C   UNL     1      49.231   7.158  17.447  0.00  0.00    +0.000 C 
ATOM     14  H   UNL     1      48.247   8.904  17.886  0.00  0.00    +0.000 HD
ENDBRANCH   6   8
BRANCH   1  15
ATOM     15  C   UNL     1      46.868   6.783  12.797  0.00  0.00    +0.000 C 
ATOM     16  C   UNL     1      47.715   8.044  12.681  0.00  0.00    +0.000 C 
ATOM     17  C   UNL     1      47.856   6.959  11.665  0.00  0.00    +0.000 C 
BRANCH  15  18
ATOM     18  O   UNL     1      45.470   7.115  12.553  0.00  0.00    +0.000 OA
BRANCH  18  22
ATOM     19  C   UNL     1      43.330   3.840  11.627  0.00  0.00    +0.000 A 
ATOM     20  C   UNL     1      44.266   4.328  10.732  0.00  0.00    +0.000 A 
ATOM     21  N   UNL     1      44.962   5.462  10.950  0.00  0.00    +0.000 NA
ATOM     22  C   UNL     1      44.680   6.075  12.130  0.00  0.00    +0.000 A 
ATOM     23  C   UNL     1      43.668   5.644  12.969  0.00  0.00    +0.000 A 
ATOM     24  N   UNL     1      42.968   4.503  12.741  0.00  0.00    +0.000 NA
BRANCH  19  25
ATOM     25  O   UNL     1      42.780   2.603  11.477  0.00  0.00    +0.000 OA
ATOM     26  H   UNL     1      43.425   2.061  10.999  0.00  0.00    +0.000 HD
ENDBRANCH  19  25
ENDBRANCH  18  22
ENDBRANCH  15  18
ENDBRANCH   1  15
TORSDOF 5
ENDMDL
