MODEL 1
REMARK VINA RESULT:    -8.131      0.000      0.000
REMARK INTER + INTRA:         -10.709
REMARK INTER:                 -10.032
REMARK INTRA:                  -0.676
REMARK UNBOUND:                -0.676
REMARK  Name = 
REMARK  4 active torsions:
REMARK  status: ('A' for Active; 'I' for Inactive)
REMARK    1  A    between atoms: C_7  and  O_8
REMARK    2  A    between atoms: O_8  and  C_9
REMARK    3  A    between atoms: C_9  and  C_10
REMARK    4  A    between atoms: C_14  and  C_15
REMARK                            x       y       z     vdW  Elec       q    Type
REMARK                         _______ _______ _______ _____ _____    ______ ____
ROOT
ATOM      1  C   UNL     1      44.864   4.082  11.088  0.00  0.00    +0.000 A 
ATOM      2  C   UNL     1      44.939   3.419  12.305  0.00  0.00    +0.000 A 
ATOM      3  N   UNL     1      45.507   3.940  13.412  0.00  0.00    +0.000 NA
ATOM      4  C   UNL     1      46.047   5.179  13.294  0.00  0.00    +0.000 A 
ATOM      5  C   UNL     1      46.052   5.951  12.130  0.00  0.00    +0.000 A 
ATOM      6  C   UNL     1      45.440   5.358  11.011  0.00  0.00    +0.000 A 
ENDROOT
BRANCH   5   7
ATOM      7  C   UNL     1      46.656   7.302  12.081  0.00  0.00    +0.000 A 
ATOM      8  C   UNL     1      48.022   7.489  11.822  0.00  0.00    +0.000 A 
ATOM      9  C   UNL     1      48.545   8.773  11.780  0.00  0.00    +0.000 A 
ATOM     10  N   UNL     1      47.815   9.887  11.983  0.00  0.00    +0.000 NA
ATOM     11  C   UNL     1      46.505   9.706  12.237  0.00  0.00    +0.000 A 
ATOM     12  C   UNL     1      45.893   8.461  12.290  0.00  0.00    +0.000 A 
ENDBRANCH   5   7
BRANCH   1  13
ATOM     13  C   UNL     1      44.189   3.442   9.906  0.00  0.00    +0.000 C 
BRANCH  13  14
ATOM     14  O   UNL     1      44.793   3.924   8.705  0.00  0.00    +0.000 OA
BRANCH  14  21
ATOM     15  F   UNL     1      46.905  -0.352   8.059  0.00  0.00    +0.000 F 
ATOM     16  C   UNL     1      46.668   0.904   7.662  0.00  0.00    +0.000 A 
ATOM     17  C   UNL     1      47.262   1.375   6.502  0.00  0.00    +0.000 A 
ATOM     18  C   UNL     1      47.016   2.683   6.116  0.00  0.00    +0.000 A 
ATOM     19  F   UNL     1      47.584   3.157   4.999  0.00  0.00    +0.000 F 
ATOM     20  C   UNL     1      46.187   3.513   6.870  0.00  0.00    +0.000 A 
ATOM     21  C   UNL     1      45.575   3.023   8.027  0.00  0.00    +0.000 A 
ATOM     22  C   UNL     1      45.829   1.713   8.430  0.00  0.00    +0.000 A 
ENDBRANCH  14  21
ENDBRANCH  13  14
ENDBRANCH   1  13
TORSDOF 4
ENDMDL
MODEL 2
REMARK VINA RESULT:    -8.060      0.369      1.786
REMARK INTER + INTRA:         -10.621
REMARK INTER:                  -9.966
REMARK INTRA:                  -0.655
REMARK UNBOUND:                -0.676
REMARK  Name = 
REMARK  4 active torsions:
REMARK  status: ('A' for Active; 'I' for Inactive)
REMARK    1  A    between atoms: C_7  and  O_8
REMARK    2  A    between atoms: O_8  and  C_9
REMARK    3  A    between atoms: C_9  and  C_10
REMARK    4  A    between atoms: C_14  and  C_15
REMARK                            x       y       z     vdW  Elec       q    Type
REMARK                         _______ _______ _______ _____ _____    ______ ____
ROOT
ATOM      1  C   UNL     1      45.042   3.849  11.218  0.00  0.00    +0.000 A 
ATOM      2  C   UNL     1      45.336   3.187  12.403  0.00  0.00    +0.000 A 
ATOM      3  N   UNL     1      45.911   3.775  13.471  0.00  0.00    +0.000 NA
ATOM      4  C   UNL     1      46.228   5.088  13.346  0.00  0.00    +0.000 A 
ATOM      5  C   UNL     1      46.000   5.871  12.211  0.00  0.00    +0.000 A 
ATOM      6  C   UNL     1      45.392   5.204  11.132  0.00  0.00    +0.000 A 
ENDROOT
BRANCH   5   7
ATOM      7  C   UNL     1      46.369   7.303  12.153  0.00  0.00    +0.000 A 
ATOM      8  C   UNL     1      47.708   7.717  12.097  0.00  0.00    +0.000 A 
ATOM      9  C   UNL     1      48.008   9.071  12.038  0.00  0.00    +0.000 A 
ATOM     10  N   UNL     1      47.078  10.045  12.038  0.00  0.00    +0.000 NA
ATOM     11  C   UNL     1      45.793   9.647  12.097  0.00  0.00    +0.000 A 
ATOM     12  C   UNL     1      45.398   8.317  12.150  0.00  0.00    +0.000 A 
ENDBRANCH   5   7
BRANCH   1  13
ATOM     13  C   UNL     1      44.374   3.127  10.080  0.00  0.00    +0.000 C 
BRANCH  13  14
ATOM     14  O   UNL     1      44.742   3.752   8.850  0.00  0.00    +0.000 OA
BRANCH  14  21
ATOM     15  F   UNL     1      47.575   3.117   5.010  0.00  0.00    +0.000 F 
ATOM     16  C   UNL     1      47.009   2.655   6.133  0.00  0.00    +0.000 A 
ATOM     17  C   UNL     1      47.249   1.349   6.528  0.00  0.00    +0.000 A 
ATOM     18  C   UNL     1      46.642   0.885   7.684  0.00  0.00    +0.000 A 
ATOM     19  F   UNL     1      46.859  -0.376   8.080  0.00  0.00    +0.000 F 
ATOM     20  C   UNL     1      45.810   1.709   8.441  0.00  0.00    +0.000 A 
ATOM     21  C   UNL     1      45.590   3.031   8.046  0.00  0.00    +0.000 A 
ATOM     22  C   UNL     1      46.185   3.501   6.877  0.00  0.00    +0.000 A 
ENDBRANCH  14  21
ENDBRANCH  13  14
ENDBRANCH   1  13
TORSDOF 4
ENDMDL
MODEL 3
REMARK VINA RESULT:    -8.003      1.269      2.283
REMARK INTER + INTRA:         -10.551
REMARK INTER:                  -9.769
REMARK INTRA:                  -0.782
REMARK UNBOUND:                -0.676
REMARK  Name = 
REMARK  4 active torsions:
REMARK  status: ('A' for Active; 'I' for Inactive)
REMARK    1  A    between atoms: C_7  and  O_8
REMARK    2  A    between atoms: O_8  and  C_9
REMARK    3  A    between atoms: C_9  and  C_10
REMARK    4  A    between atoms: C_14  and  C_15
REMARK                            x       y       z     vdW  Elec       q    Type
REMARK                         _______ _______ _______ _____ _____    ______ ____
ROOT
ATOM      1  C   UNL     1      44.813   4.656  11.385  0.00  0.00    +0.000 A 
ATOM      2  C   UNL     1      44.616   3.839  12.490  0.00  0.00    +0.000 A 
ATOM      3  N   UNL     1      45.353   3.909  13.617  0.00  0.00    +0.000 NA
ATOM      4  C   UNL     1      46.351   4.827  13.637  0.00  0.00    +0.000 A 
ATOM      5  C   UNL     1      46.666   5.702  12.594  0.00  0.00    +0.000 A 
ATOM      6  C   UNL     1      45.859   5.587  11.448  0.00  0.00    +0.000 A 
ENDROOT
BRANCH   5   7
ATOM      7  C   UNL     1      47.769   6.684  12.693  0.00  0.00    +0.000 A 
ATOM      8  C   UNL     1      48.133   7.495  11.607  0.00  0.00    +0.000 A 
ATOM      9  C   UNL     1      49.170   8.406  11.746  0.00  0.00    +0.000 A 
ATOM     10  N   UNL     1      49.878   8.569  12.880  0.00  0.00    +0.000 NA
ATOM     11  C   UNL     1      49.531   7.787  13.920  0.00  0.00    +0.000 A 
ATOM     12  C   UNL     1      48.504   6.855  13.876  0.00  0.00    +0.000 A 
ENDBRANCH   5   7
BRANCH   1  13
ATOM     13  C   UNL     1      43.929   4.534  10.174  0.00  0.00    +0.000 C 
BRANCH  13  14
ATOM     14  O   UNL     1      43.953   3.183   9.712  0.00  0.00    +0.000 OA
BRANCH  14  21
ATOM     15  F   UNL     1      46.845   4.187   5.997  0.00  0.00    +0.000 F 
ATOM     16  C   UNL     1      46.382   3.332   6.918  0.00  0.00    +0.000 A 
ATOM     17  C   UNL     1      46.871   2.036   6.951  0.00  0.00    +0.000 A 
ATOM     18  C   UNL     1      46.369   1.163   7.902  0.00  0.00    +0.000 A 
ATOM     19  F   UNL     1      46.827  -0.095   7.947  0.00  0.00    +0.000 F 
ATOM     20  C   UNL     1      45.395   1.572   8.813  0.00  0.00    +0.000 A 
ATOM     21  C   UNL     1      44.922   2.887   8.785  0.00  0.00    +0.000 A 
ATOM     22  C   UNL     1      45.412   3.767   7.823  0.00  0.00    +0.000 A 
ENDBRANCH  14  21
ENDBRANCH  13  14
ENDBRANCH   1  13
TORSDOF 4
ENDMDL
MODEL 4
REMARK VINA RESULT:    -7.903      1.933      3.019
REMARK INTER + INTRA:         -10.428
REMARK INTER:                  -9.847
REMARK INTRA:                  -0.581
REMARK UNBOUND:                -0.676
REMARK  Name = 
REMARK  4 active torsions:
REMARK  status: ('A' for Active; 'I' for Inactive)
REMARK    1  A    between atoms: C_7  and  O_8
REMARK    2  A    between atoms: O_8  and  C_9
REMARK    3  A    between atoms: C_9  and  C_10
REMARK    4  A    between atoms: C_14  and  C_15
REMARK                            x       y       z     vdW  Elec       q    Type
REMARK                         _______ _______ _______ _____ _____    ______ ____
ROOT
ATOM      1  C   UNL     1      44.237   3.785  11.140  0.00  0.00    +0.000 A 
ATOM      2  C   UNL     1      43.071   4.487  11.412  0.00  0.00    +0.000 A 
ATOM      3  N   UNL     1      42.969   5.433  12.368  0.00  0.00    +0.000 NA
ATOM      4  C   UNL     1      44.081   5.679  13.103  0.00  0.00    +0.000 A 
ATOM      5  C   UNL     1      45.314   5.040  12.944  0.00  0.00    +0.000 A 
ATOM      6  C   UNL     1      45.361   4.069  11.929  0.00  0.00    +0.000 A 
ENDROOT
BRANCH   5   7
ATOM      7  C   UNL     1      46.488   5.369  13.783  0.00  0.00    +0.000 A 
ATOM      8  C   UNL     1      47.334   6.445  13.476  0.00  0.00    +0.000 A 
ATOM      9  C   UNL     1      48.420   6.721  14.294  0.00  0.00    +0.000 A 
ATOM     10  N   UNL     1      48.735   6.004  15.390  0.00  0.00    +0.000 NA
ATOM     11  C   UNL     1      47.926   4.968  15.681  0.00  0.00    +0.000 A 
ATOM     12  C   UNL     1      46.813   4.623  14.927  0.00  0.00    +0.000 A 
ENDBRANCH   5   7
BRANCH   1  13
ATOM     13  C   UNL     1      44.277   2.762  10.037  0.00  0.00    +0.000 C 
BRANCH  13  14
ATOM     14  O   UNL     1      44.586   3.416   8.805  0.00  0.00    +0.000 OA
BRANCH  14  21
ATOM     15  F   UNL     1      47.556   3.097   5.031  0.00  0.00    +0.000 F 
ATOM     16  C   UNL     1      46.999   2.565   6.127  0.00  0.00    +0.000 A 
ATOM     17  C   UNL     1      47.329   1.271   6.498  0.00  0.00    +0.000 A 
ATOM     18  C   UNL     1      46.731   0.733   7.626  0.00  0.00    +0.000 A 
ATOM     19  F   UNL     1      47.035  -0.517   7.999  0.00  0.00    +0.000 F 
ATOM     20  C   UNL     1      45.818   1.472   8.379  0.00  0.00    +0.000 A 
ATOM     21  C   UNL     1      45.506   2.783   8.008  0.00  0.00    +0.000 A 
ATOM     22  C   UNL     1      46.094   3.326   6.868  0.00  0.00    +0.000 A 
ENDBRANCH  14  21
ENDBRANCH  13  14
ENDBRANCH   1  13
TORSDOF 4
ENDMDL
MODEL 5
REMARK VINA RESULT:    -7.724      2.023      2.962
REMARK INTER + INTRA:         -10.207
REMARK INTER:                  -9.545
REMARK INTRA:                  -0.662
REMARK UNBOUND:                -0.676
REMARK  Name = 
REMARK  4 active torsions:
REMARK  status: ('A' for Active; 'I' for Inactive)
REMARK    1  A    between atoms: C_7  and  O_8
REMARK    2  A    between atoms: O_8  and  C_9
REMARK    3  A    between atoms: C_9  and  C_10
REMARK    4  A    between atoms: C_14  and  C_15
REMARK                            x       y       z     vdW  Elec       q    Type
REMARK                         _______ _______ _______ _____ _____    ______ ____
ROOT
ATOM      1  C   UNL     1      44.886   4.322  11.498  0.00  0.00    +0.000 A 
ATOM      2  C   UNL     1      44.577   5.582  11.004  0.00  0.00    +0.000 A 
ATOM      3  N   UNL     1      45.060   6.731  11.520  0.00  0.00    +0.000 NA
ATOM      4  C   UNL     1      45.878   6.620  12.595  0.00  0.00    +0.000 A 
ATOM      5  C   UNL     1      46.262   5.419  13.199  0.00  0.00    +0.000 A 
ATOM      6  C   UNL     1      45.732   4.255  12.614  0.00  0.00    +0.000 A 
ENDROOT
BRANCH   5   7
ATOM      7  C   UNL     1      47.167   5.378  14.370  0.00  0.00    +0.000 A 
ATOM      8  C   UNL     1      48.111   6.388  14.606  0.00  0.00    +0.000 A 
ATOM      9  C   UNL     1      48.936   6.312  15.719  0.00  0.00    +0.000 A 
ATOM     10  N   UNL     1      48.899   5.304  16.612  0.00  0.00    +0.000 NA
ATOM     11  C   UNL     1      47.996   4.331  16.381  0.00  0.00    +0.000 A 
ATOM     12  C   UNL     1      47.125   4.328  15.300  0.00  0.00    +0.000 A 
ENDBRANCH   5   7
BRANCH   1  13
ATOM     13  C   UNL     1      44.327   3.085  10.849  0.00  0.00    +0.000 C 
BRANCH  13  14
ATOM     14  O   UNL     1      44.117   3.342   9.459  0.00  0.00    +0.000 OA
BRANCH  14  21
ATOM     15  F   UNL     1      46.998  -0.189   7.909  0.00  0.00    +0.000 F 
ATOM     16  C   UNL     1      46.503   1.049   7.792  0.00  0.00    +0.000 A 
ATOM     17  C   UNL     1      46.944   1.864   6.762  0.00  0.00    +0.000 A 
ATOM     18  C   UNL     1      46.431   3.148   6.667  0.00  0.00    +0.000 A 
ATOM     19  F   UNL     1      46.847   3.951   5.680  0.00  0.00    +0.000 F 
ATOM     20  C   UNL     1      45.487   3.615   7.581  0.00  0.00    +0.000 A 
ATOM     21  C   UNL     1      45.032   2.780   8.604  0.00  0.00    +0.000 A 
ATOM     22  C   UNL     1      45.554   1.492   8.715  0.00  0.00    +0.000 A 
ENDBRANCH  14  21
ENDBRANCH  13  14
ENDBRANCH   1  13
TORSDOF 4
ENDMDL
MODEL 6
REMARK VINA RESULT:    -7.607      3.611      7.003
REMARK INTER + INTRA:         -10.063
REMARK INTER:                  -9.353
REMARK INTRA:                  -0.710
REMARK UNBOUND:                -0.676
REMARK  Name = 
REMARK  4 active torsions:
REMARK  status: ('A' for Active; 'I' for Inactive)
REMARK    1  A    between atoms: C_7  and  O_8
REMARK    2  A    between atoms: O_8  and  C_9
REMARK    3  A    between atoms: C_9  and  C_10
REMARK    4  A    between atoms: C_14  and  C_15
REMARK                            x       y       z     vdW  Elec       q    Type
REMARK                         _______ _______ _______ _____ _____    ______ ____
ROOT
ATOM      1  C   UNL     1      44.187   5.118  10.852  0.00  0.00    +0.000 A 
ATOM      2  C   UNL     1      43.349   4.209  11.485  0.00  0.00    +0.000 A 
ATOM      3  N   UNL     1      43.279   2.901  11.164  0.00  0.00    +0.000 NA
ATOM      4  C   UNL     1      44.069   2.480  10.146  0.00  0.00    +0.000 A 
ATOM      5  C   UNL     1      44.948   3.287   9.417  0.00  0.00    +0.000 A 
ATOM      6  C   UNL     1      44.983   4.639   9.802  0.00  0.00    +0.000 A 
ENDROOT
BRANCH   5   7
ATOM      7  C   UNL     1      45.787   2.751   8.321  0.00  0.00    +0.000 A 
ATOM      8  C   UNL     1      46.204   3.558   7.252  0.00  0.00    +0.000 A 
ATOM      9  C   UNL     1      46.994   3.016   6.249  0.00  0.00    +0.000 A 
ATOM     10  N   UNL     1      47.396   1.730   6.223  0.00  0.00    +0.000 NA
ATOM     11  C   UNL     1      46.990   0.955   7.247  0.00  0.00    +0.000 A 
ATOM     12  C   UNL     1      46.206   1.412   8.298  0.00  0.00    +0.000 A 
ENDBRANCH   5   7
BRANCH   1  13
ATOM     13  C   UNL     1      44.227   6.557  11.288  0.00  0.00    +0.000 C 
BRANCH  13  14
ATOM     14  O   UNL     1      45.117   6.684  12.398  0.00  0.00    +0.000 OA
BRANCH  14  21
ATOM     15  F   UNL     1      49.776   7.431  11.451  0.00  0.00    +0.000 F 
ATOM     16  C   UNL     1      48.553   7.897  11.731  0.00  0.00    +0.000 A 
ATOM     17  C   UNL     1      48.357   9.263  11.855  0.00  0.00    +0.000 A 
ATOM     18  C   UNL     1      47.087   9.725  12.160  0.00  0.00    +0.000 A 
ATOM     19  F   UNL     1      46.879  11.042  12.287  0.00  0.00    +0.000 F 
ATOM     20  C   UNL     1      46.022   8.842  12.335  0.00  0.00    +0.000 A 
ATOM     21  C   UNL     1      46.224   7.467  12.188  0.00  0.00    +0.000 A 
ATOM     22  C   UNL     1      47.502   6.994  11.895  0.00  0.00    +0.000 A 
ENDBRANCH  14  21
ENDBRANCH  13  14
ENDBRANCH   1  13
TORSDOF 4
ENDMDL
MODEL 7
REMARK VINA RESULT:    -7.510      3.571      6.979
REMARK INTER + INTRA:          -9.943
REMARK INTER:                  -9.171
REMARK INTRA:                  -0.772
REMARK UNBOUND:                -0.676
REMARK  Name = 
REMARK  4 active torsions:
REMARK  status: ('A' for Active; 'I' for Inactive)
REMARK    1  A    between atoms: C_7  and  O_8
REMARK    2  A    between atoms: O_8  and  C_9
REMARK    3  A    between atoms: C_9  and  C_10
REMARK    4  A    between atoms: C_14  and  C_15
REMARK                            x       y       z     vdW  Elec       q    Type
REMARK                         _______ _______ _______ _____ _____    ______ ____
ROOT
ATOM      1  C   UNL     1      44.325   5.153  10.864  0.00  0.00    +0.000 A 
ATOM      2  C   UNL     1      43.405   4.291  11.446  0.00  0.00    +0.000 A 
ATOM      3  N   UNL     1      43.246   3.003  11.078  0.00  0.00    +0.000 NA
ATOM      4  C   UNL     1      44.030   2.557  10.066  0.00  0.00    +0.000 A 
ATOM      5  C   UNL     1      44.985   3.317   9.386  0.00  0.00    +0.000 A 
ATOM      6  C   UNL     1      45.111   4.650   9.818  0.00  0.00    +0.000 A 
ENDROOT
BRANCH   5   7
ATOM      7  C   UNL     1      45.811   2.756   8.293  0.00  0.00    +0.000 A 
ATOM      8  C   UNL     1      46.237   3.544   7.214  0.00  0.00    +0.000 A 
ATOM      9  C   UNL     1      47.014   2.977   6.214  0.00  0.00    +0.000 A 
ATOM     10  N   UNL     1      47.394   1.685   6.200  0.00  0.00    +0.000 NA
ATOM     11  C   UNL     1      46.978   0.928   7.234  0.00  0.00    +0.000 A 
ATOM     12  C   UNL     1      46.207   1.409   8.282  0.00  0.00    +0.000 A 
ENDBRANCH   5   7
BRANCH   1  13
ATOM     13  C   UNL     1      44.461   6.570  11.350  0.00  0.00    +0.000 C 
BRANCH  13  14
ATOM     14  O   UNL     1      44.995   6.560  12.675  0.00  0.00    +0.000 OA
BRANCH  14  21
ATOM     15  F   UNL     1      49.279   8.022  11.039  0.00  0.00    +0.000 F 
ATOM     16  C   UNL     1      48.519   7.483  12.000  0.00  0.00    +0.000 A 
ATOM     17  C   UNL     1      49.109   7.075  13.186  0.00  0.00    +0.000 A 
ATOM     18  C   UNL     1      48.308   6.505  14.162  0.00  0.00    +0.000 A 
ATOM     19  F   UNL     1      48.860   6.102  15.314  0.00  0.00    +0.000 F 
ATOM     20  C   UNL     1      46.936   6.346  13.966  0.00  0.00    +0.000 A 
ATOM     21  C   UNL     1      46.347   6.778  12.775  0.00  0.00    +0.000 A 
ATOM     22  C   UNL     1      47.148   7.340  11.783  0.00  0.00    +0.000 A 
ENDBRANCH  14  21
ENDBRANCH  13  14
ENDBRANCH   1  13
TORSDOF 4
ENDMDL
MODEL 8
REMARK VINA RESULT:    -7.367      3.617      6.662
REMARK INTER + INTRA:          -9.766
REMARK INTER:                  -9.143
REMARK INTRA:                  -0.622
REMARK UNBOUND:                -0.676
REMARK  Name = 
REMARK  4 active torsions:
REMARK  status: ('A' for Active; 'I' for Inactive)
REMARK    1  A    between atoms: C_7  and  O_8
REMARK    2  A    between atoms: O_8  and  C_9
REMARK    3  A    between atoms: C_9  and  C_10
REMARK    4  A    between atoms: C_14  and  C_15
REMARK                            x       y       z     vdW  Elec       q    Type
REMARK                         _______ _______ _______ _____ _____    ______ ____
ROOT
ATOM      1  C   UNL     1      44.252   4.944  11.085  0.00  0.00    +0.000 A 
ATOM      2  C   UNL     1      43.358   4.034  11.633  0.00  0.00    +0.000 A 
ATOM      3  N   UNL     1      43.225   2.761  11.208  0.00  0.00    +0.000 NA
ATOM      4  C   UNL     1      44.010   2.380  10.170  0.00  0.00    +0.000 A 
ATOM      5  C   UNL     1      44.941   3.194   9.519  0.00  0.00    +0.000 A 
ATOM      6  C   UNL     1      45.040   4.508  10.010  0.00  0.00    +0.000 A 
ENDROOT
BRANCH   5   7
ATOM      7  C   UNL     1      45.769   2.703   8.395  0.00  0.00    +0.000 A 
ATOM      8  C   UNL     1      46.204   1.371   8.327  0.00  0.00    +0.000 A 
ATOM      9  C   UNL     1      46.974   0.952   7.252  0.00  0.00    +0.000 A 
ATOM     10  N   UNL     1      47.352   1.758   6.241  0.00  0.00    +0.000 NA
ATOM     11  C   UNL     1      46.940   3.039   6.310  0.00  0.00    +0.000 A 
ATOM     12  C   UNL     1      46.160   3.544   7.341  0.00  0.00    +0.000 A 
ENDBRANCH   5   7
BRANCH   1  13
ATOM     13  C   UNL     1      44.359   6.340  11.634  0.00  0.00    +0.000 C 
BRANCH  13  14
ATOM     14  O   UNL     1      45.542   6.954  11.122  0.00  0.00    +0.000 OA
BRANCH  14  21
ATOM     15  F   UNL     1      47.887   5.802  15.164  0.00  0.00    +0.000 F 
ATOM     16  C   UNL     1      47.869   6.340  13.938  0.00  0.00    +0.000 A 
ATOM     17  C   UNL     1      49.026   6.905  13.425  0.00  0.00    +0.000 A 
ATOM     18  C   UNL     1      48.983   7.471  12.162  0.00  0.00    +0.000 A 
ATOM     19  F   UNL     1      50.091   8.023  11.650  0.00  0.00    +0.000 F 
ATOM     20  C   UNL     1      47.806   7.473  11.413  0.00  0.00    +0.000 A 
ATOM     21  C   UNL     1      46.649   6.884  11.930  0.00  0.00    +0.000 A 
ATOM     22  C   UNL     1      46.681   6.325  13.206  0.00  0.00    +0.000 A 
ENDBRANCH  14  21
ENDBRANCH  13  14
ENDBRANCH   1  13
TORSDOF 4
ENDMDL
MODEL 9
REMARK VINA RESULT:    -6.796      2.855      4.342
REMARK INTER + INTRA:          -9.062
REMARK INTER:                  -8.429
REMARK INTRA:                  -0.632
REMARK UNBOUND:                -0.676
REMARK  Name = 
REMARK  4 active torsions:
REMARK  status: ('A' for Active; 'I' for Inactive)
REMARK    1  A    between atoms: C_7  and  O_8
REMARK    2  A    between atoms: O_8  and  C_9
REMARK    3  A    between atoms: C_9  and  C_10
REMARK    4  A    between atoms: C_14  and  C_15
REMARK                            x       y       z     vdW  Elec       q    Type
REMARK                         _______ _______ _______ _____ _____    ______ ____
ROOT
ATOM      1  C   UNL     1      45.822   5.559  12.687  0.00  0.00    +0.000 A 
ATOM      2  C   UNL     1      46.638   6.560  12.176  0.00  0.00    +0.000 A 
ATOM      3  N   UNL     1      47.768   6.987  12.774  0.00  0.00    +0.000 NA
ATOM      4  C   UNL     1      48.094   6.399  13.952  0.00  0.00    +0.000 A 
ATOM      5  C   UNL     1      47.360   5.391  14.583  0.00  0.00    +0.000 A 
ATOM      6  C   UNL     1      46.195   4.983  13.909  0.00  0.00    +0.000 A 
ENDROOT
BRANCH   5   7
ATOM      7  C   UNL     1      47.785   4.792  15.869  0.00  0.00    +0.000 A 
ATOM      8  C   UNL     1      48.614   5.484  16.765  0.00  0.00    +0.000 A 
ATOM      9  C   UNL     1      48.982   4.886  17.961  0.00  0.00    +0.000 A 
ATOM     10  N   UNL     1      48.596   3.650  18.333  0.00  0.00    +0.000 NA
ATOM     11  C   UNL     1      47.805   2.985  17.469  0.00  0.00    +0.000 A 
ATOM     12  C   UNL     1      47.379   3.506  16.255  0.00  0.00    +0.000 A 
ENDBRANCH   5   7
BRANCH   1  13
ATOM     13  C   UNL     1      44.590   5.120  11.944  0.00  0.00    +0.000 C 
BRANCH  13  14
ATOM     14  O   UNL     1      44.716   5.489  10.570  0.00  0.00    +0.000 OA
BRANCH  14  21
ATOM     15  F   UNL     1      44.490   0.937   9.022  0.00  0.00    +0.000 F 
ATOM     16  C   UNL     1      44.928   2.195   8.888  0.00  0.00    +0.000 A 
ATOM     17  C   UNL     1      45.754   2.518   7.823  0.00  0.00    +0.000 A 
ATOM     18  C   UNL     1      46.210   3.821   7.710  0.00  0.00    +0.000 A 
ATOM     19  F   UNL     1      47.011   4.152   6.689  0.00  0.00    +0.000 F 
ATOM     20  C   UNL     1      45.847   4.794   8.641  0.00  0.00    +0.000 A 
ATOM     21  C   UNL     1      44.998   4.464   9.701  0.00  0.00    +0.000 A 
ATOM     22  C   UNL     1      44.546   3.152   9.829  0.00  0.00    +0.000 A 
ENDBRANCH  14  21
ENDBRANCH  13  14
ENDBRANCH   1  13
TORSDOF 4
ENDMDL
