MODEL 1
REMARK VINA RESULT:    -8.531      0.000      0.000
REMARK INTER + INTRA:         -11.911
REMARK INTER:                 -11.025
REMARK INTRA:                  -0.886
REMARK UNBOUND:                -0.886
REMARK  Name = 
REMARK  5 active torsions:
REMARK  status: ('A' for Active; 'I' for Inactive)
REMARK    1  A    between atoms: C_2  and  C_4
REMARK    2  A    between atoms: C_8  and  N_9
REMARK    3  A    between atoms: N_9  and  C_10
REMARK    4  A    between atoms: C_10  and  C_11
REMARK    5  A    between atoms: C_15  and  C_16
REMARK                            x       y       z     vdW  Elec       q    Type
REMARK                         _______ _______ _______ _____ _____    ______ ____
ROOT
ATOM      1  N   UNL     1      43.900   6.539  12.315  0.00  0.00    +0.000 N 
ATOM      2  H   UNL     1      43.301   6.190  13.061  0.00  0.00    +0.000 HD
ENDROOT
BRANCH   1   7
ATOM      3  C   UNL     1      46.949   5.178  13.951  0.00  0.00    +0.000 A 
ATOM      4  C   UNL     1      47.964   5.885  13.301  0.00  0.00    +0.000 A 
ATOM      5  C   UNL     1      47.631   6.825  12.332  0.00  0.00    +0.000 A 
ATOM      6  C   UNL     1      46.292   7.043  11.994  0.00  0.00    +0.000 A 
ATOM      7  C   UNL     1      45.259   6.307  12.589  0.00  0.00    +0.000 A 
ATOM      8  C   UNL     1      45.607   5.397  13.599  0.00  0.00    +0.000 A 
BRANCH   3  10
ATOM      9  N   UNL     1      47.121   4.549  16.299  0.00  0.00    +0.000 N 
ATOM     10  C   UNL     1      47.256   4.166  14.993  0.00  0.00    +0.000 C 
ATOM     11  O   UNL     1      47.594   3.024  14.701  0.00  0.00    +0.000 OA
ATOM     12  H   UNL     1      47.239   3.822  16.993  0.00  0.00    +0.000 HD
ATOM     13  H   UNL     1      46.614   5.378  16.571  0.00  0.00    +0.000 HD
ENDBRANCH   3  10
ENDBRANCH   1   7
BRANCH   1  14
ATOM     14  C   UNL     1      43.400   6.185  10.991  0.00  0.00    +0.000 C 
BRANCH  14  15
ATOM     15  C   UNL     1      43.708   4.746  10.686  0.00  0.00    +0.000 A 
ATOM     16  C   UNL     1      43.126   3.726  11.426  0.00  0.00    +0.000 A 
ATOM     17  N   UNL     1      43.331   2.414  11.190  0.00  0.00    +0.000 NA
ATOM     18  C   UNL     1      44.175   2.103  10.175  0.00  0.00    +0.000 A 
ATOM     19  C   UNL     1      44.834   3.027   9.358  0.00  0.00    +0.000 A 
ATOM     20  C   UNL     1      44.578   4.377   9.648  0.00  0.00    +0.000 A 
BRANCH  19  21
ATOM     21  C   UNL     1      45.731   2.609   8.256  0.00  0.00    +0.000 A 
ATOM     22  C   UNL     1      46.319   1.336   8.228  0.00  0.00    +0.000 A 
ATOM     23  C   UNL     1      47.151   0.988   7.171  0.00  0.00    +0.000 A 
ATOM     24  N   UNL     1      47.435   1.805   6.140  0.00  0.00    +0.000 NA
ATOM     25  C   UNL     1      46.867   3.026   6.169  0.00  0.00    +0.000 A 
ATOM     26  C   UNL     1      46.030   3.465   7.186  0.00  0.00    +0.000 A 
ENDBRANCH  19  21
ENDBRANCH  14  15
ENDBRANCH   1  14
TORSDOF 5
ENDMDL
MODEL 2
REMARK VINA RESULT:    -7.901      2.878      6.756
REMARK INTER + INTRA:         -11.096
REMARK INTER:                 -10.317
REMARK INTRA:                  -0.779
REMARK UNBOUND:                -0.886
REMARK  Name = 
REMARK  5 active torsions:
REMARK  status: ('A' for Active; 'I' for Inactive)
REMARK    1  A    between atoms: C_2  and  C_4
REMARK    2  A    between atoms: C_8  and  N_9
REMARK    3  A    between atoms: N_9  and  C_10
REMARK    4  A    between atoms: C_10  and  C_11
REMARK    5  A    between atoms: C_15  and  C_16
REMARK                            x       y       z     vdW  Elec       q    Type
REMARK                         _______ _______ _______ _____ _____    ______ ____
ROOT
ATOM      1  N   UNL     1      44.151   4.673   9.155  0.00  0.00    +0.000 N 
ATOM      2  H   UNL     1      44.631   5.540   8.921  0.00  0.00    +0.000 HD
ENDROOT
BRANCH   1   7
ATOM      3  C   UNL     1      46.490   2.558   7.187  0.00  0.00    +0.000 A 
ATOM      4  C   UNL     1      46.291   1.299   7.760  0.00  0.00    +0.000 A 
ATOM      5  C   UNL     1      45.367   1.153   8.789  0.00  0.00    +0.000 A 
ATOM      6  C   UNL     1      44.660   2.263   9.261  0.00  0.00    +0.000 A 
ATOM      7  C   UNL     1      44.882   3.546   8.743  0.00  0.00    +0.000 A 
ATOM      8  C   UNL     1      45.782   3.669   7.675  0.00  0.00    +0.000 A 
BRANCH   3  10
ATOM      9  N   UNL     1      48.786   2.541   6.369  0.00  0.00    +0.000 N 
ATOM     10  C   UNL     1      47.466   2.761   6.086  0.00  0.00    +0.000 C 
ATOM     11  O   UNL     1      47.106   3.087   4.960  0.00  0.00    +0.000 OA
ATOM     12  H   UNL     1      49.425   2.588   5.585  0.00  0.00    +0.000 HD
ATOM     13  H   UNL     1      49.088   2.039   7.190  0.00  0.00    +0.000 HD
ENDBRANCH   3  10
ENDBRANCH   1   7
BRANCH   1  14
ATOM     14  C   UNL     1      43.619   4.684  10.514  0.00  0.00    +0.000 C 
BRANCH  14  15
ATOM     15  C   UNL     1      44.722   4.937  11.503  0.00  0.00    +0.000 A 
ATOM     16  C   UNL     1      44.911   4.087  12.583  0.00  0.00    +0.000 A 
ATOM     17  N   UNL     1      45.898   4.234  13.491  0.00  0.00    +0.000 NA
ATOM     18  C   UNL     1      46.727   5.294  13.324  0.00  0.00    +0.000 A 
ATOM     19  C   UNL     1      46.644   6.230  12.288  0.00  0.00    +0.000 A 
ATOM     20  C   UNL     1      45.602   6.023  11.371  0.00  0.00    +0.000 A 
BRANCH  19  21
ATOM     21  C   UNL     1      47.600   7.355  12.162  0.00  0.00    +0.000 A 
ATOM     22  C   UNL     1      47.174   8.691  12.211  0.00  0.00    +0.000 A 
ATOM     23  C   UNL     1      48.107   9.713  12.091  0.00  0.00    +0.000 A 
ATOM     24  N   UNL     1      49.428   9.507  11.934  0.00  0.00    +0.000 NA
ATOM     25  C   UNL     1      49.833   8.224  11.890  0.00  0.00    +0.000 A 
ATOM     26  C   UNL     1      48.975   7.138  11.993  0.00  0.00    +0.000 A 
ENDBRANCH  19  21
ENDBRANCH  14  15
ENDBRANCH   1  14
TORSDOF 5
ENDMDL
MODEL 3
REMARK VINA RESULT:    -7.791      2.425      6.555
REMARK INTER + INTRA:         -10.954
REMARK INTER:                 -10.725
REMARK INTRA:                  -0.229
REMARK UNBOUND:                -0.886
REMARK  Name = 
REMARK  5 active torsions:
REMARK  status: ('A' for Active; 'I' for Inactive)
REMARK    1  A    between atoms: C_2  and  C_4
REMARK    2  A    between atoms: C_8  and  N_9
REMARK    3  A    between atoms: N_9  and  C_10
REMARK    4  A    between atoms: C_10  and  C_11
REMARK    5  A    between atoms: C_15  and  C_16
REMARK                            x       y       z     vdW  Elec       q    Type
REMARK                         _______ _______ _______ _____ _____    ______ ____
ROOT
ATOM      1  N   UNL     1      44.042   2.372  10.416  0.00  0.00    +0.000 N 
ATOM      2  H   UNL     1      43.284   1.785  10.073  0.00  0.00    +0.000 HD
ENDROOT
BRANCH   1   7
ATOM      3  C   UNL     1      46.547   2.395   7.670  0.00  0.00    +0.000 A 
ATOM      4  C   UNL     1      46.596   3.751   7.336  0.00  0.00    +0.000 A 
ATOM      5  C   UNL     1      45.808   4.657   8.038  0.00  0.00    +0.000 A 
ATOM      6  C   UNL     1      44.956   4.211   9.052  0.00  0.00    +0.000 A 
ATOM      7  C   UNL     1      44.845   2.850   9.367  0.00  0.00    +0.000 A 
ATOM      8  C   UNL     1      45.681   1.954   8.684  0.00  0.00    +0.000 A 
BRANCH   3  10
ATOM      9  N   UNL     1      48.499   1.841   6.320  0.00  0.00    +0.000 N 
ATOM     10  C   UNL     1      47.371   1.391   6.949  0.00  0.00    +0.000 C 
ATOM     11  O   UNL     1      47.071   0.202   6.937  0.00  0.00    +0.000 OA
ATOM     12  H   UNL     1      49.099   1.132   5.918  0.00  0.00    +0.000 HD
ATOM     13  H   UNL     1      48.905   2.744   6.515  0.00  0.00    +0.000 HD
ENDBRANCH   3  10
ENDBRANCH   1   7
BRANCH   1  14
ATOM     14  C   UNL     1      43.590   3.328  11.422  0.00  0.00    +0.000 C 
BRANCH  14  15
ATOM     15  C   UNL     1      44.769   3.929  12.135  0.00  0.00    +0.000 A 
ATOM     16  C   UNL     1      45.587   3.143  12.934  0.00  0.00    +0.000 A 
ATOM     17  N   UNL     1      46.678   3.605  13.578  0.00  0.00    +0.000 NA
ATOM     18  C   UNL     1      46.957   4.924  13.433  0.00  0.00    +0.000 A 
ATOM     19  C   UNL     1      46.215   5.829  12.667  0.00  0.00    +0.000 A 
ATOM     20  C   UNL     1      45.094   5.290  12.016  0.00  0.00    +0.000 A 
BRANCH  19  21
ATOM     21  C   UNL     1      46.593   7.256  12.542  0.00  0.00    +0.000 A 
ATOM     22  C   UNL     1      47.935   7.657  12.458  0.00  0.00    +0.000 A 
ATOM     23  C   UNL     1      48.241   9.006  12.339  0.00  0.00    +0.000 A 
ATOM     24  N   UNL     1      47.316   9.983  12.290  0.00  0.00    +0.000 NA
ATOM     25  C   UNL     1      46.029   9.595  12.369  0.00  0.00    +0.000 A 
ATOM     26  C   UNL     1      45.628   8.272  12.497  0.00  0.00    +0.000 A 
ENDBRANCH  19  21
ENDBRANCH  14  15
ENDBRANCH   1  14
TORSDOF 5
ENDMDL
MODEL 4
REMARK VINA RESULT:    -7.572      1.903      2.274
REMARK INTER + INTRA:         -10.671
REMARK INTER:                  -9.960
REMARK INTRA:                  -0.711
REMARK UNBOUND:                -0.886
REMARK  Name = 
REMARK  5 active torsions:
REMARK  status: ('A' for Active; 'I' for Inactive)
REMARK    1  A    between atoms: C_2  and  C_4
REMARK    2  A    between atoms: C_8  and  N_9
REMARK    3  A    between atoms: N_9  and  C_10
REMARK    4  A    between atoms: C_10  and  C_11
REMARK    5  A    between atoms: C_15  and  C_16
REMARK                            x       y       z     vdW  Elec       q    Type
REMARK                         _______ _______ _______ _____ _____    ______ ____
ROOT
ATOM      1  N   UNL     1      44.590   6.683  12.653  0.00  0.00    +0.000 N 
ATOM      2  H   UNL     1      44.833   5.820  13.135  0.00  0.00    +0.000 HD
ENDROOT
BRANCH   1   7
ATOM      3  C   UNL     1      48.093   7.914  12.839  0.00  0.00    +0.000 A 
ATOM      4  C   UNL     1      47.941   9.264  12.514  0.00  0.00    +0.000 A 
ATOM      5  C   UNL     1      46.672   9.766  12.249  0.00  0.00    +0.000 A 
ATOM      6  C   UNL     1      45.559   8.920  12.285  0.00  0.00    +0.000 A 
ATOM      7  C   UNL     1      45.691   7.551  12.553  0.00  0.00    +0.000 A 
ATOM      8  C   UNL     1      46.971   7.069  12.864  0.00  0.00    +0.000 A 
BRANCH   3  10
ATOM      9  N   UNL     1      50.318   7.257  12.094  0.00  0.00    +0.000 N 
ATOM     10  C   UNL     1      49.429   7.334  13.130  0.00  0.00    +0.000 C 
ATOM     11  O   UNL     1      49.736   6.961  14.257  0.00  0.00    +0.000 OA
ATOM     12  H   UNL     1      51.254   6.951  12.330  0.00  0.00    +0.000 HD
ATOM     13  H   UNL     1      50.196   7.773  11.235  0.00  0.00    +0.000 HD
ENDBRANCH   3  10
ENDBRANCH   1   7
BRANCH   1  14
ATOM     14  C   UNL     1      43.798   6.443  11.451  0.00  0.00    +0.000 C 
BRANCH  14  15
ATOM     15  C   UNL     1      43.914   5.005  11.030  0.00  0.00    +0.000 A 
ATOM     16  C   UNL     1      43.202   4.015  11.693  0.00  0.00    +0.000 A 
ATOM     17  N   UNL     1      43.233   2.711  11.351  0.00  0.00    +0.000 NA
ATOM     18  C   UNL     1      44.030   2.373  10.307  0.00  0.00    +0.000 A 
ATOM     19  C   UNL     1      44.805   3.265   9.560  0.00  0.00    +0.000 A 
ATOM     20  C   UNL     1      44.729   4.609   9.958  0.00  0.00    +0.000 A 
BRANCH  19  21
ATOM     21  C   UNL     1      45.641   2.822   8.420  0.00  0.00    +0.000 A 
ATOM     22  C   UNL     1      46.144   1.515   8.340  0.00  0.00    +0.000 A 
ATOM     23  C   UNL     1      46.921   1.145   7.249  0.00  0.00    +0.000 A 
ATOM     24  N   UNL     1      47.227   1.972   6.232  0.00  0.00    +0.000 NA
ATOM     25  C   UNL     1      46.740   3.225   6.311  0.00  0.00    +0.000 A 
ATOM     26  C   UNL     1      45.963   3.688   7.364  0.00  0.00    +0.000 A 
ENDBRANCH  19  21
ENDBRANCH  14  15
ENDBRANCH   1  14
TORSDOF 5
ENDMDL
MODEL 5
REMARK VINA RESULT:    -7.524      2.500      3.452
REMARK INTER + INTRA:         -10.609
REMARK INTER:                  -9.824
REMARK INTRA:                  -0.785
REMARK UNBOUND:                -0.886
REMARK  Name = 
REMARK  5 active torsions:
REMARK  status: ('A' for Active; 'I' for Inactive)
REMARK    1  A    between atoms: C_2  and  C_4
REMARK    2  A    between atoms: C_8  and  N_9
REMARK    3  A    between atoms: N_9  and  C_10
REMARK    4  A    between atoms: C_10  and  C_11
REMARK    5  A    between atoms: C_15  and  C_16
REMARK                            x       y       z     vdW  Elec       q    Type
REMARK                         _______ _______ _______ _____ _____    ______ ____
ROOT
ATOM      1  N   UNL     1      44.627   6.774  12.549  0.00  0.00    +0.000 N 
ATOM      2  H   UNL     1      44.688   5.958  13.154  0.00  0.00    +0.000 HD
ENDROOT
BRANCH   1   7
ATOM      3  C   UNL     1      47.162   9.461  12.138  0.00  0.00    +0.000 A 
ATOM      4  C   UNL     1      48.329   8.725  11.917  0.00  0.00    +0.000 A 
ATOM      5  C   UNL     1      48.267   7.336  11.890  0.00  0.00    +0.000 A 
ATOM      6  C   UNL     1      47.050   6.682  12.104  0.00  0.00    +0.000 A 
ATOM      7  C   UNL     1      45.876   7.395  12.384  0.00  0.00    +0.000 A 
ATOM      8  C   UNL     1      45.946   8.795  12.361  0.00  0.00    +0.000 A 
BRANCH   3  10
ATOM      9  N   UNL     1      45.974  11.589  12.137  0.00  0.00    +0.000 N 
ATOM     10  C   UNL     1      47.180  10.946  12.174  0.00  0.00    +0.000 C 
ATOM     11  O   UNL     1      48.230  11.574  12.260  0.00  0.00    +0.000 OA
ATOM     12  H   UNL     1      45.998  12.593  12.261  0.00  0.00    +0.000 HD
ATOM     13  H   UNL     1      45.101  11.115  12.319  0.00  0.00    +0.000 HD
ENDBRANCH   3  10
ENDBRANCH   1   7
BRANCH   1  14
ATOM     14  C   UNL     1      43.827   6.519  11.355  0.00  0.00    +0.000 C 
BRANCH  14  15
ATOM     15  C   UNL     1      43.940   5.076  10.951  0.00  0.00    +0.000 A 
ATOM     16  C   UNL     1      43.212   4.098  11.614  0.00  0.00    +0.000 A 
ATOM     17  N   UNL     1      43.238   2.790  11.287  0.00  0.00    +0.000 NA
ATOM     18  C   UNL     1      44.049   2.435  10.259  0.00  0.00    +0.000 A 
ATOM     19  C   UNL     1      44.841   3.314   9.514  0.00  0.00    +0.000 A 
ATOM     20  C   UNL     1      44.768   4.663   9.896  0.00  0.00    +0.000 A 
BRANCH  19  21
ATOM     21  C   UNL     1      45.690   2.853   8.390  0.00  0.00    +0.000 A 
ATOM     22  C   UNL     1      46.063   3.715   7.348  0.00  0.00    +0.000 A 
ATOM     23  C   UNL     1      46.863   3.238   6.318  0.00  0.00    +0.000 A 
ATOM     24  N   UNL     1      47.324   1.975   6.250  0.00  0.00    +0.000 NA
ATOM     25  C   UNL     1      46.966   1.151   7.252  0.00  0.00    +0.000 A 
ATOM     26  C   UNL     1      46.164   1.535   8.319  0.00  0.00    +0.000 A 
ENDBRANCH  19  21
ENDBRANCH  14  15
ENDBRANCH   1  14
TORSDOF 5
ENDMDL
MODEL 6
REMARK VINA RESULT:    -7.439      2.429      6.398
REMARK INTER + INTRA:         -10.499
REMARK INTER:                  -9.848
REMARK INTRA:                  -0.651
REMARK UNBOUND:                -0.886
REMARK  Name = 
REMARK  5 active torsions:
REMARK  status: ('A' for Active; 'I' for Inactive)
REMARK    1  A    between atoms: C_2  and  C_4
REMARK    2  A    between atoms: C_8  and  N_9
REMARK    3  A    between atoms: N_9  and  C_10
REMARK    4  A    between atoms: C_10  and  C_11
REMARK    5  A    between atoms: C_15  and  C_16
REMARK                            x       y       z     vdW  Elec       q    Type
REMARK                         _______ _______ _______ _____ _____    ______ ____
ROOT
ATOM      1  N   UNL     1      43.875   2.439  10.747  0.00  0.00    +0.000 N 
ATOM      2  H   UNL     1      42.934   2.825  10.703  0.00  0.00    +0.000 HD
ENDROOT
BRANCH   1   7
ATOM      3  C   UNL     1      46.276   2.108   7.929  0.00  0.00    +0.000 A 
ATOM      4  C   UNL     1      46.285   3.403   7.404  0.00  0.00    +0.000 A 
ATOM      5  C   UNL     1      45.504   4.388   8.000  0.00  0.00    +0.000 A 
ATOM      6  C   UNL     1      44.699   4.078   9.100  0.00  0.00    +0.000 A 
ATOM      7  C   UNL     1      44.629   2.774   9.610  0.00  0.00    +0.000 A 
ATOM      8  C   UNL     1      45.458   1.803   9.029  0.00  0.00    +0.000 A 
BRANCH   3  10
ATOM      9  N   UNL     1      46.751  -0.264   7.631  0.00  0.00    +0.000 N 
ATOM     10  C   UNL     1      47.095   1.025   7.327  0.00  0.00    +0.000 C 
ATOM     11  O   UNL     1      48.026   1.269   6.568  0.00  0.00    +0.000 OA
ATOM     12  H   UNL     1      47.255  -0.989   7.137  0.00  0.00    +0.000 HD
ATOM     13  H   UNL     1      45.859  -0.506   8.037  0.00  0.00    +0.000 HD
ENDBRANCH   3  10
ENDBRANCH   1   7
BRANCH   1  14
ATOM     14  C   UNL     1      44.491   2.629  12.056  0.00  0.00    +0.000 C 
BRANCH  14  15
ATOM     15  C   UNL     1      44.688   4.094  12.331  0.00  0.00    +0.000 A 
ATOM     16  C   UNL     1      43.596   4.930  12.516  0.00  0.00    +0.000 A 
ATOM     17  N   UNL     1      43.697   6.246  12.797  0.00  0.00    +0.000 NA
ATOM     18  C   UNL     1      44.950   6.757  12.877  0.00  0.00    +0.000 A 
ATOM     19  C   UNL     1      46.133   6.032  12.704  0.00  0.00    +0.000 A 
ATOM     20  C   UNL     1      45.966   4.667  12.420  0.00  0.00    +0.000 A 
BRANCH  19  21
ATOM     21  C   UNL     1      47.470   6.659  12.824  0.00  0.00    +0.000 A 
ATOM     22  C   UNL     1      48.176   6.659  14.036  0.00  0.00    +0.000 A 
ATOM     23  C   UNL     1      49.428   7.257  14.100  0.00  0.00    +0.000 A 
ATOM     24  N   UNL     1      50.032   7.845  13.051  0.00  0.00    +0.000 NA
ATOM     25  C   UNL     1      49.352   7.842  11.888  0.00  0.00    +0.000 A 
ATOM     26  C   UNL     1      48.093   7.277  11.731  0.00  0.00    +0.000 A 
ENDBRANCH  19  21
ENDBRANCH  14  15
ENDBRANCH   1  14
TORSDOF 5
ENDMDL
MODEL 7
REMARK VINA RESULT:    -7.309      2.351      7.302
REMARK INTER + INTRA:         -10.331
REMARK INTER:                  -9.563
REMARK INTRA:                  -0.768
REMARK UNBOUND:                -0.886
REMARK  Name = 
REMARK  5 active torsions:
REMARK  status: ('A' for Active; 'I' for Inactive)
REMARK    1  A    between atoms: C_2  and  C_4
REMARK    2  A    between atoms: C_8  and  N_9
REMARK    3  A    between atoms: N_9  and  C_10
REMARK    4  A    between atoms: C_10  and  C_11
REMARK    5  A    between atoms: C_15  and  C_16
REMARK                            x       y       z     vdW  Elec       q    Type
REMARK                         _______ _______ _______ _____ _____    ______ ____
ROOT
ATOM      1  N   UNL     1      44.907   5.671   9.911  0.00  0.00    +0.000 N 
ATOM      2  H   UNL     1      45.595   6.326   9.544  0.00  0.00    +0.000 HD
ENDROOT
BRANCH   1   7
ATOM      3  C   UNL     1      46.253   2.879   7.859  0.00  0.00    +0.000 A 
ATOM      4  C   UNL     1      45.550   1.784   8.366  0.00  0.00    +0.000 A 
ATOM      5  C   UNL     1      44.617   1.979   9.379  0.00  0.00    +0.000 A 
ATOM      6  C   UNL     1      44.403   3.258   9.901  0.00  0.00    +0.000 A 
ATOM      7  C   UNL     1      45.136   4.364   9.450  0.00  0.00    +0.000 A 
ATOM      8  C   UNL     1      46.038   4.160   8.395  0.00  0.00    +0.000 A 
BRANCH   3  10
ATOM      9  N   UNL     1      47.056   3.427   5.624  0.00  0.00    +0.000 N 
ATOM     10  C   UNL     1      47.258   2.719   6.776  0.00  0.00    +0.000 C 
ATOM     11  O   UNL     1      48.243   2.003   6.915  0.00  0.00    +0.000 OA
ATOM     12  H   UNL     1      47.798   3.383   4.936  0.00  0.00    +0.000 HD
ATOM     13  H   UNL     1      46.411   4.201   5.569  0.00  0.00    +0.000 HD
ENDBRANCH   3  10
ENDBRANCH   1   7
BRANCH   1  14
ATOM     14  C   UNL     1      44.669   5.860  11.339  0.00  0.00    +0.000 C 
BRANCH  14  15
ATOM     15  C   UNL     1      45.970   6.069  12.061  0.00  0.00    +0.000 A 
ATOM     16  C   UNL     1      46.960   6.873  11.514  0.00  0.00    +0.000 A 
ATOM     17  N   UNL     1      48.138   7.130  12.118  0.00  0.00    +0.000 NA
ATOM     18  C   UNL     1      48.348   6.540  13.321  0.00  0.00    +0.000 A 
ATOM     19  C   UNL     1      47.442   5.702  13.980  0.00  0.00    +0.000 A 
ATOM     20  C   UNL     1      46.232   5.475  13.305  0.00  0.00    +0.000 A 
BRANCH  19  21
ATOM     21  C   UNL     1      47.736   5.106  15.303  0.00  0.00    +0.000 A 
ATOM     22  C   UNL     1      47.272   3.830  15.655  0.00  0.00    +0.000 A 
ATOM     23  C   UNL     1      47.575   3.310  16.907  0.00  0.00    +0.000 A 
ATOM     24  N   UNL     1      48.310   3.960  17.830  0.00  0.00    +0.000 NA
ATOM     25  C   UNL     1      48.756   5.184  17.488  0.00  0.00    +0.000 A 
ATOM     26  C   UNL     1      48.496   5.788  16.265  0.00  0.00    +0.000 A 
ENDBRANCH  19  21
ENDBRANCH  14  15
ENDBRANCH   1  14
TORSDOF 5
ENDMDL
MODEL 8
REMARK VINA RESULT:    -7.172      3.219      6.913
REMARK INTER + INTRA:         -10.154
REMARK INTER:                  -9.394
REMARK INTRA:                  -0.761
REMARK UNBOUND:                -0.886
REMARK  Name = 
REMARK  5 active torsions:
REMARK  status: ('A' for Active; 'I' for Inactive)
REMARK    1  A    between atoms: C_2  and  C_4
REMARK    2  A    between atoms: C_8  and  N_9
REMARK    3  A    between atoms: N_9  and  C_10
REMARK    4  A    between atoms: C_10  and  C_11
REMARK    5  A    between atoms: C_15  and  C_16
REMARK                            x       y       z     vdW  Elec       q    Type
REMARK                         _______ _______ _______ _____ _____    ______ ____
ROOT
ATOM      1  N   UNL     1      45.100   5.520   9.710  0.00  0.00    +0.000 N 
ATOM      2  H   UNL     1      45.858   6.076   9.319  0.00  0.00    +0.000 HD
ENDROOT
BRANCH   1   7
ATOM      3  C   UNL     1      46.245   2.458   7.941  0.00  0.00    +0.000 A 
ATOM      4  C   UNL     1      45.406   1.481   8.484  0.00  0.00    +0.000 A 
ATOM      5  C   UNL     1      44.450   1.846   9.425  0.00  0.00    +0.000 A 
ATOM      6  C   UNL     1      44.346   3.177   9.842  0.00  0.00    +0.000 A 
ATOM      7  C   UNL     1      45.212   4.165   9.356  0.00  0.00    +0.000 A 
ATOM      8  C   UNL     1      46.139   3.791   8.373  0.00  0.00    +0.000 A 
BRANCH   3  10
ATOM      9  N   UNL     1      48.069   3.133   6.473  0.00  0.00    +0.000 N 
ATOM     10  C   UNL     1      47.280   2.115   6.932  0.00  0.00    +0.000 C 
ATOM     11  O   UNL     1      47.441   0.964   6.543  0.00  0.00    +0.000 OA
ATOM     12  H   UNL     1      48.831   2.866   5.862  0.00  0.00    +0.000 HD
ATOM     13  H   UNL     1      48.136   4.022   6.944  0.00  0.00    +0.000 HD
ENDBRANCH   3  10
ENDBRANCH   1   7
BRANCH   1  14
ATOM     14  C   UNL     1      44.841   5.842  11.110  0.00  0.00    +0.000 C 
BRANCH  14  15
ATOM     15  C   UNL     1      46.135   6.078  11.837  0.00  0.00    +0.000 A 
ATOM     16  C   UNL     1      46.471   5.314  12.946  0.00  0.00    +0.000 A 
ATOM     17  N   UNL     1      47.627   5.448  13.628  0.00  0.00    +0.000 NA
ATOM     18  C   UNL     1      48.484   6.405  13.194  0.00  0.00    +0.000 A 
ATOM     19  C   UNL     1      48.268   7.247  12.099  0.00  0.00    +0.000 A 
ATOM     20  C   UNL     1      47.051   7.059  11.424  0.00  0.00    +0.000 A 
BRANCH  19  21
ATOM     21  C   UNL     1      49.261   8.261  11.673  0.00  0.00    +0.000 A 
ATOM     22  C   UNL     1      50.587   7.912  11.376  0.00  0.00    +0.000 A 
ATOM     23  C   UNL     1      51.482   8.897  10.978  0.00  0.00    +0.000 A 
ATOM     24  N   UNL     1      51.156  10.196  10.845  0.00  0.00    +0.000 NA
ATOM     25  C   UNL     1      49.882  10.527  11.129  0.00  0.00    +0.000 A 
ATOM     26  C   UNL     1      48.920   9.615  11.542  0.00  0.00    +0.000 A 
ENDBRANCH  19  21
ENDBRANCH  14  15
ENDBRANCH   1  14
TORSDOF 5
ENDMDL
MODEL 9
REMARK VINA RESULT:    -7.013      2.633      3.723
REMARK INTER + INTRA:          -9.949
REMARK INTER:                  -9.173
REMARK INTRA:                  -0.776
REMARK UNBOUND:                -0.886
REMARK  Name = 
REMARK  5 active torsions:
REMARK  status: ('A' for Active; 'I' for Inactive)
REMARK    1  A    between atoms: C_2  and  C_4
REMARK    2  A    between atoms: C_8  and  N_9
REMARK    3  A    between atoms: N_9  and  C_10
REMARK    4  A    between atoms: C_10  and  C_11
REMARK    5  A    between atoms: C_15  and  C_16
REMARK                            x       y       z     vdW  Elec       q    Type
REMARK                         _______ _______ _______ _____ _____    ______ ____
ROOT
ATOM      1  N   UNL     1      46.269   5.918  12.767  0.00  0.00    +0.000 N 
ATOM      2  H   UNL     1      46.742   5.433  12.007  0.00  0.00    +0.000 HD
ENDROOT
BRANCH   1   7
ATOM      3  C   UNL     1      44.863   9.118  11.501  0.00  0.00    +0.000 A 
ATOM      4  C   UNL     1      45.876  10.024  11.823  0.00  0.00    +0.000 A 
ATOM      5  C   UNL     1      47.032   9.567  12.446  0.00  0.00    +0.000 A 
ATOM      6  C   UNL     1      47.168   8.213  12.768  0.00  0.00    +0.000 A 
ATOM      7  C   UNL     1      46.144   7.293  12.508  0.00  0.00    +0.000 A 
ATOM      8  C   UNL     1      45.005   7.761  11.837  0.00  0.00    +0.000 A 
BRANCH   3  10
ATOM      9  N   UNL     1      42.541   8.712  10.884  0.00  0.00    +0.000 N 
ATOM     10  C   UNL     1      43.612   9.561  10.835  0.00  0.00    +0.000 C 
ATOM     11  O   UNL     1      43.529  10.653  10.284  0.00  0.00    +0.000 OA
ATOM     12  H   UNL     1      41.670   9.069  10.511  0.00  0.00    +0.000 HD
ATOM     13  H   UNL     1      42.492   7.937  11.528  0.00  0.00    +0.000 HD
ENDBRANCH   3  10
ENDBRANCH   1   7
BRANCH   1  14
ATOM     14  C   UNL     1      45.086   5.200  13.232  0.00  0.00    +0.000 C 
BRANCH  14  15
ATOM     15  C   UNL     1      44.670   4.172  12.217  0.00  0.00    +0.000 A 
ATOM     16  C   UNL     1      43.548   3.383  12.430  0.00  0.00    +0.000 A 
ATOM     17  N   UNL     1      43.097   2.465  11.551  0.00  0.00    +0.000 NA
ATOM     18  C   UNL     1      43.812   2.312  10.410  0.00  0.00    +0.000 A 
ATOM     19  C   UNL     1      44.962   3.032  10.073  0.00  0.00    +0.000 A 
ATOM     20  C   UNL     1      45.381   3.977  11.023  0.00  0.00    +0.000 A 
BRANCH  19  21
ATOM     21  C   UNL     1      45.682   2.821   8.795  0.00  0.00    +0.000 A 
ATOM     22  C   UNL     1      46.121   1.548   8.400  0.00  0.00    +0.000 A 
ATOM     23  C   UNL     1      46.790   1.398   7.192  0.00  0.00    +0.000 A 
ATOM     24  N   UNL     1      47.046   2.413   6.346  0.00  0.00    +0.000 NA
ATOM     25  C   UNL     1      46.621   3.633   6.727  0.00  0.00    +0.000 A 
ATOM     26  C   UNL     1      45.954   3.882   7.919  0.00  0.00    +0.000 A 
ENDBRANCH  19  21
ENDBRANCH  14  15
ENDBRANCH   1  14
TORSDOF 5
ENDMDL
