MODEL 1
REMARK VINA RESULT:    -8.061      0.000      0.000
REMARK INTER + INTRA:         -13.493
REMARK INTER:                 -12.302
REMARK INTRA:                  -1.191
REMARK UNBOUND:                -1.191
REMARK  Name = 
REMARK  11 active torsions:
REMARK  status: ('A' for Active; 'I' for Inactive)
REMARK    1  A    between atoms: C_1  and  C_2
REMARK    2  A    between atoms: C_2  and  C_3
REMARK    3  A    between atoms: C_2  and  O_4
REMARK    4  A    between atoms: O_4  and  C_5
REMARK    5  A    between atoms: C_7  and  C_8
REMARK    6  A    between atoms: C_8  and  C_9
REMARK    7  A    between atoms: C_9  and  O_10
REMARK    8  A    between atoms: O_10  and  C_11
REMARK    9  A    between atoms: C_14  and  C_15
REMARK   10  A    between atoms: C_21  and  N_22
REMARK   11  A    between atoms: N_22  and  C_23
REMARK                            x       y       z     vdW  Elec       q    Type
REMARK                         _______ _______ _______ _____ _____    ______ ____
ROOT
ATOM      1  C   UNL     1      47.205   6.186  12.327  0.00  0.00    +0.000 A 
ATOM      2  C   UNL     1      45.886   6.182  11.893  0.00  0.00    +0.000 A 
ATOM      3  C   UNL     1      44.959   5.428  12.602  0.00  0.00    +0.000 A 
ATOM      4  C   UNL     1      45.413   4.713  13.713  0.00  0.00    +0.000 A 
ATOM      5  C   UNL     1      46.775   4.670  14.010  0.00  0.00    +0.000 A 
ATOM      6  N   UNL     1      47.669   5.425  13.342  0.00  0.00    +0.000 NA
ENDROOT
BRANCH   5   7
ATOM      7  N   UNL     1      47.294   3.837  14.994  0.00  0.00    +0.000 N 
ATOM      8  H   UNL     1      47.038   2.882  14.752  0.00  0.00    +0.000 HD
BRANCH   7   9
ATOM      9  C   UNL     1      47.188   4.215  16.408  0.00  0.00    +0.000 C 
ATOM     10  C   UNL     1      48.355   5.088  16.820  0.00  0.00    +0.000 C 
ATOM     11  C   UNL     1      49.363   4.113  17.389  0.00  0.00    +0.000 C 
ATOM     12  O   UNL     1      48.642   2.983  17.882  0.00  0.00    +0.000 OA
ATOM     13  C   UNL     1      47.297   3.044  17.387  0.00  0.00    +0.000 C 
ENDBRANCH   7   9
ENDBRANCH   5   7
BRANCH   1  14
ATOM     14  O   UNL     1      48.029   7.096  11.696  0.00  0.00    +0.000 OA
BRANCH  14  16
ATOM     15  C   UNL     1      49.772   8.676  11.827  0.00  0.00    +0.000 C 
ATOM     16  C   UNL     1      48.465   8.214  12.475  0.00  0.00    +0.000 C 
ATOM     17  C   UNL     1      47.457   9.361  12.438  0.00  0.00    +0.000 C 
ENDBRANCH  14  16
ENDBRANCH   1  14
BRANCH   3  18
ATOM     18  C   UNL     1      43.526   5.292  12.150  0.00  0.00    +0.000 C 
BRANCH  18  19
ATOM     19  C   UNL     1      43.475   5.022  10.644  0.00  0.00    +0.000 C 
BRANCH  19  20
ATOM     20  O   UNL     1      43.565   3.619  10.379  0.00  0.00    +0.000 OA
BRANCH  20  21
ATOM     21  C   UNL     1      44.519   3.263   9.467  0.00  0.00    +0.000 A 
ATOM     22  C   UNL     1      44.996   1.994   9.208  0.00  0.00    +0.000 A 
ATOM     23  N   UNL     1      45.943   1.705   8.289  0.00  0.00    +0.000 NA
ATOM     24  C   UNL     1      46.427   2.770   7.602  0.00  0.00    +0.000 A 
ATOM     25  N   UNL     1      46.044   4.046   7.766  0.00  0.00    +0.000 NA
ATOM     26  C   UNL     1      45.093   4.259   8.701  0.00  0.00    +0.000 A 
BRANCH  24  27
ATOM     27  C   UNL     1      47.491   2.450   6.574  0.00  0.00    +0.000 C 
ATOM     28  N   UNL     1      47.395   3.145   5.393  0.00  0.00    +0.000 N 
ATOM     29  O   UNL     1      48.385   1.633   6.751  0.00  0.00    +0.000 OA
ATOM     30  H   UNL     1      46.645   3.811   5.255  0.00  0.00    +0.000 HD
ATOM     31  H   UNL     1      48.075   2.967   4.666  0.00  0.00    +0.000 HD
ENDBRANCH  24  27
ENDBRANCH  20  21
ENDBRANCH  19  20
ENDBRANCH  18  19
ENDBRANCH   3  18
TORSDOF 9
ENDMDL
MODEL 2
REMARK VINA RESULT:    -7.909      1.143      4.349
REMARK INTER + INTRA:         -13.262
REMARK INTER:                 -12.227
REMARK INTRA:                  -1.035
REMARK UNBOUND:                -1.191
REMARK  Name = 
REMARK  11 active torsions:
REMARK  status: ('A' for Active; 'I' for Inactive)
REMARK    1  A    between atoms: C_1  and  C_2
REMARK    2  A    between atoms: C_2  and  C_3
REMARK    3  A    between atoms: C_2  and  O_4
REMARK    4  A    between atoms: O_4  and  C_5
REMARK    5  A    between atoms: C_7  and  C_8
REMARK    6  A    between atoms: C_8  and  C_9
REMARK    7  A    between atoms: C_9  and  O_10
REMARK    8  A    between atoms: O_10  and  C_11
REMARK    9  A    between atoms: C_14  and  C_15
REMARK   10  A    between atoms: C_21  and  N_22
REMARK   11  A    between atoms: N_22  and  C_23
REMARK                            x       y       z     vdW  Elec       q    Type
REMARK                         _______ _______ _______ _____ _____    ______ ____
ROOT
ATOM      1  C   UNL     1      46.969   4.584  13.929  0.00  0.00    +0.000 A 
ATOM      2  C   UNL     1      45.622   4.433  13.628  0.00  0.00    +0.000 A 
ATOM      3  C   UNL     1      45.085   5.196  12.596  0.00  0.00    +0.000 A 
ATOM      4  C   UNL     1      45.938   6.074  11.923  0.00  0.00    +0.000 A 
ATOM      5  C   UNL     1      47.247   6.259  12.368  0.00  0.00    +0.000 A 
ATOM      6  N   UNL     1      47.776   5.499  13.347  0.00  0.00    +0.000 NA
ENDROOT
BRANCH   5   7
ATOM      7  N   UNL     1      48.077   7.244  11.846  0.00  0.00    +0.000 N 
ATOM      8  H   UNL     1      48.906   6.781  11.480  0.00  0.00    +0.000 HD
BRANCH   7   9
ATOM      9  C   UNL     1      48.284   8.496  12.581  0.00  0.00    +0.000 C 
ATOM     10  C   UNL     1      47.012   8.926  13.281  0.00  0.00    +0.000 C 
ATOM     11  C   UNL     1      46.354   9.874  12.302  0.00  0.00    +0.000 C 
ATOM     12  O   UNL     1      47.384  10.451  11.499  0.00  0.00    +0.000 OA
ATOM     13  C   UNL     1      48.594   9.707  11.697  0.00  0.00    +0.000 C 
ENDBRANCH   7   9
ENDBRANCH   5   7
BRANCH   1  14
ATOM     14  O   UNL     1      47.475   3.670  14.831  0.00  0.00    +0.000 OA
BRANCH  14  16
ATOM     15  C   UNL     1      47.857   2.775  16.977  0.00  0.00    +0.000 C 
ATOM     16  C   UNL     1      47.363   4.008  16.216  0.00  0.00    +0.000 C 
ATOM     17  C   UNL     1      48.240   5.204  16.582  0.00  0.00    +0.000 C 
ENDBRANCH  14  16
ENDBRANCH   1  14
BRANCH   3  18
ATOM     18  C   UNL     1      43.615   5.163  12.260  0.00  0.00    +0.000 C 
BRANCH  18  19
ATOM     19  C   UNL     1      43.427   4.967  10.753  0.00  0.00    +0.000 C 
BRANCH  19  20
ATOM     20  O   UNL     1      43.607   3.592  10.397  0.00  0.00    +0.000 OA
BRANCH  20  21
ATOM     21  C   UNL     1      44.544   3.364   9.428  0.00  0.00    +0.000 A 
ATOM     22  C   UNL     1      45.101   4.289   8.568  0.00  0.00    +0.000 A 
ATOM     23  N   UNL     1      46.028   4.001   7.630  0.00  0.00    +0.000 NA
ATOM     24  C   UNL     1      46.403   2.698   7.567  0.00  0.00    +0.000 A 
ATOM     25  N   UNL     1      45.933   1.711   8.347  0.00  0.00    +0.000 NA
ATOM     26  C   UNL     1      45.010   2.074   9.263  0.00  0.00    +0.000 A 
BRANCH  24  27
ATOM     27  C   UNL     1      47.439   2.371   6.513  0.00  0.00    +0.000 C 
ATOM     28  N   UNL     1      47.335   3.085   5.344  0.00  0.00    +0.000 N 
ATOM     29  O   UNL     1      48.318   1.531   6.660  0.00  0.00    +0.000 OA
ATOM     30  H   UNL     1      46.597   3.770   5.232  0.00  0.00    +0.000 HD
ATOM     31  H   UNL     1      47.995   2.903   4.601  0.00  0.00    +0.000 HD
ENDBRANCH  24  27
ENDBRANCH  20  21
ENDBRANCH  19  20
ENDBRANCH  18  19
ENDBRANCH   3  18
TORSDOF 9
ENDMDL
MODEL 3
REMARK VINA RESULT:    -7.363      2.375      4.853
REMARK INTER + INTRA:         -12.428
REMARK INTER:                 -11.339
REMARK INTRA:                  -1.089
REMARK UNBOUND:                -1.191
REMARK  Name = 
REMARK  11 active torsions:
REMARK  status: ('A' for Active; 'I' for Inactive)
REMARK    1  A    between atoms: C_1  and  C_2
REMARK    2  A    between atoms: C_2  and  C_3
REMARK    3  A    between atoms: C_2  and  O_4
REMARK    4  A    between atoms: O_4  and  C_5
REMARK    5  A    between atoms: C_7  and  C_8
REMARK    6  A    between atoms: C_8  and  C_9
REMARK    7  A    between atoms: C_9  and  O_10
REMARK    8  A    between atoms: O_10  and  C_11
REMARK    9  A    between atoms: C_14  and  C_15
REMARK   10  A    between atoms: C_21  and  N_22
REMARK   11  A    between atoms: N_22  and  C_23
REMARK                            x       y       z     vdW  Elec       q    Type
REMARK                         _______ _______ _______ _____ _____    ______ ____
ROOT
ATOM      1  C   UNL     1      46.734   6.374  12.591  0.00  0.00    +0.000 A 
ATOM      2  C   UNL     1      45.935   5.277  12.884  0.00  0.00    +0.000 A 
ATOM      3  C   UNL     1      44.617   5.281  12.442  0.00  0.00    +0.000 A 
ATOM      4  C   UNL     1      44.173   6.397  11.728  0.00  0.00    +0.000 A 
ATOM      5  C   UNL     1      45.000   7.511  11.583  0.00  0.00    +0.000 A 
ATOM      6  N   UNL     1      46.286   7.495  11.984  0.00  0.00    +0.000 NA
ENDROOT
BRANCH   5   7
ATOM      7  N   UNL     1      44.546   8.705  11.036  0.00  0.00    +0.000 N 
ATOM      8  H   UNL     1      44.914   8.767  10.090  0.00  0.00    +0.000 HD
BRANCH   7   9
ATOM      9  C   UNL     1      44.565   9.935  11.838  0.00  0.00    +0.000 C 
ATOM     10  C   UNL     1      43.373  10.809  11.509  0.00  0.00    +0.000 C 
ATOM     11  C   UNL     1      43.892  11.759  10.452  0.00  0.00    +0.000 C 
ATOM     12  O   UNL     1      45.301  11.893  10.645  0.00  0.00    +0.000 OA
ATOM     13  C   UNL     1      45.742  10.866  11.543  0.00  0.00    +0.000 C 
ENDBRANCH   7   9
ENDBRANCH   5   7
BRANCH   1  14
ATOM     14  O   UNL     1      48.072   6.223  12.894  0.00  0.00    +0.000 OA
BRANCH  14  16
ATOM     15  C   UNL     1      49.308   7.187  14.653  0.00  0.00    +0.000 C 
ATOM     16  C   UNL     1      48.790   7.414  13.231  0.00  0.00    +0.000 C 
ATOM     17  C   UNL     1      49.978   7.646  12.299  0.00  0.00    +0.000 C 
ENDBRANCH  14  16
ENDBRANCH   1  14
BRANCH   3  18
ATOM     18  C   UNL     1      43.653   4.175  12.792  0.00  0.00    +0.000 C 
BRANCH  18  19
ATOM     19  C   UNL     1      43.847   2.991  11.840  0.00  0.00    +0.000 C 
BRANCH  19  20
ATOM     20  O   UNL     1      43.422   3.332  10.517  0.00  0.00    +0.000 OA
BRANCH  20  21
ATOM     21  C   UNL     1      44.372   3.176   9.547  0.00  0.00    +0.000 A 
ATOM     22  C   UNL     1      44.885   4.150   8.714  0.00  0.00    +0.000 A 
ATOM     23  N   UNL     1      45.828   3.933   7.772  0.00  0.00    +0.000 NA
ATOM     24  C   UNL     1      46.267   2.652   7.677  0.00  0.00    +0.000 A 
ATOM     25  N   UNL     1      45.844   1.622   8.427  0.00  0.00    +0.000 NA
ATOM     26  C   UNL     1      44.902   1.915   9.349  0.00  0.00    +0.000 A 
BRANCH  24  27
ATOM     27  C   UNL     1      47.321   2.405   6.619  0.00  0.00    +0.000 C 
ATOM     28  N   UNL     1      47.174   3.129   5.461  0.00  0.00    +0.000 N 
ATOM     29  O   UNL     1      48.249   1.617   6.753  0.00  0.00    +0.000 OA
ATOM     30  H   UNL     1      46.396   3.770   5.359  0.00  0.00    +0.000 HD
ATOM     31  H   UNL     1      47.844   2.999   4.715  0.00  0.00    +0.000 HD
ENDBRANCH  24  27
ENDBRANCH  20  21
ENDBRANCH  19  20
ENDBRANCH  18  19
ENDBRANCH   3  18
TORSDOF 9
ENDMDL
MODEL 4
REMARK VINA RESULT:    -6.635      2.820      3.883
REMARK INTER + INTRA:         -11.317
REMARK INTER:                 -10.381
REMARK INTRA:                  -0.936
REMARK UNBOUND:                -1.191
REMARK  Name = 
REMARK  11 active torsions:
REMARK  status: ('A' for Active; 'I' for Inactive)
REMARK    1  A    between atoms: C_1  and  C_2
REMARK    2  A    between atoms: C_2  and  C_3
REMARK    3  A    between atoms: C_2  and  O_4
REMARK    4  A    between atoms: O_4  and  C_5
REMARK    5  A    between atoms: C_7  and  C_8
REMARK    6  A    between atoms: C_8  and  C_9
REMARK    7  A    between atoms: C_9  and  O_10
REMARK    8  A    between atoms: O_10  and  C_11
REMARK    9  A    between atoms: C_14  and  C_15
REMARK   10  A    between atoms: C_21  and  N_22
REMARK   11  A    between atoms: N_22  and  C_23
REMARK                            x       y       z     vdW  Elec       q    Type
REMARK                         _______ _______ _______ _____ _____    ______ ____
ROOT
ATOM      1  C   UNL     1      45.840   8.198  12.648  0.00  0.00    +0.000 A 
ATOM      2  C   UNL     1      45.148   7.012  12.441  0.00  0.00    +0.000 A 
ATOM      3  C   UNL     1      45.832   5.811  12.595  0.00  0.00    +0.000 A 
ATOM      4  C   UNL     1      47.183   5.871  12.948  0.00  0.00    +0.000 A 
ATOM      5  C   UNL     1      47.836   7.102  13.015  0.00  0.00    +0.000 A 
ATOM      6  N   UNL     1      47.167   8.266  12.896  0.00  0.00    +0.000 NA
ENDROOT
BRANCH   5   7
ATOM      7  N   UNL     1      49.211   7.204  13.189  0.00  0.00    +0.000 N 
ATOM      8  H   UNL     1      49.442   6.744  14.067  0.00  0.00    +0.000 HD
BRANCH   7   9
ATOM      9  C   UNL     1      49.897   8.469  12.901  0.00  0.00    +0.000 C 
ATOM     10  C   UNL     1      50.102   8.642  11.410  0.00  0.00    +0.000 C 
ATOM     11  C   UNL     1      51.491   8.094  11.163  0.00  0.00    +0.000 C 
ATOM     12  O   UNL     1      52.235   8.239  12.373  0.00  0.00    +0.000 OA
ATOM     13  C   UNL     1      51.327   8.551  13.438  0.00  0.00    +0.000 C 
ENDBRANCH   7   9
ENDBRANCH   5   7
BRANCH   1  14
ATOM     14  O   UNL     1      45.062   9.337  12.662  0.00  0.00    +0.000 OA
BRANCH  14  16
ATOM     15  C   UNL     1      43.384  10.465  11.453  0.00  0.00    +0.000 C 
ATOM     16  C   UNL     1      44.831   9.971  11.400  0.00  0.00    +0.000 C 
ATOM     17  C   UNL     1      45.758  11.165  11.185  0.00  0.00    +0.000 C 
ENDBRANCH  14  16
ENDBRANCH   1  14
BRANCH   3  18
ATOM     18  C   UNL     1      45.186   4.480  12.303  0.00  0.00    +0.000 C 
BRANCH  18  19
ATOM     19  C   UNL     1      44.081   4.653  11.257  0.00  0.00    +0.000 C 
BRANCH  19  20
ATOM     20  O   UNL     1      43.855   3.427  10.553  0.00  0.00    +0.000 OA
BRANCH  20  21
ATOM     21  C   UNL     1      44.698   3.201   9.501  0.00  0.00    +0.000 A 
ATOM     22  C   UNL     1      45.253   1.997   9.118  0.00  0.00    +0.000 A 
ATOM     23  N   UNL     1      46.081   1.837   8.063  0.00  0.00    +0.000 NA
ATOM     24  C   UNL     1      46.356   2.968   7.366  0.00  0.00    +0.000 A 
ATOM     25  N   UNL     1      45.878   4.192   7.642  0.00  0.00    +0.000 NA
ATOM     26  C   UNL     1      45.056   4.275   8.710  0.00  0.00    +0.000 A 
BRANCH  24  27
ATOM     27  C   UNL     1      47.287   2.793   6.186  0.00  0.00    +0.000 C 
ATOM     28  N   UNL     1      48.585   2.474   6.502  0.00  0.00    +0.000 N 
ATOM     29  O   UNL     1      46.939   2.924   5.019  0.00  0.00    +0.000 OA
ATOM     30  H   UNL     1      48.862   2.378   7.472  0.00  0.00    +0.000 HD
ATOM     31  H   UNL     1      49.254   2.352   5.754  0.00  0.00    +0.000 HD
ENDBRANCH  24  27
ENDBRANCH  20  21
ENDBRANCH  19  20
ENDBRANCH  18  19
ENDBRANCH   3  18
TORSDOF 9
ENDMDL
MODEL 5
REMARK VINA RESULT:    -6.474      2.780      7.532
REMARK INTER + INTRA:         -11.071
REMARK INTER:                  -9.849
REMARK INTRA:                  -1.223
REMARK UNBOUND:                -1.191
REMARK  Name = 
REMARK  11 active torsions:
REMARK  status: ('A' for Active; 'I' for Inactive)
REMARK    1  A    between atoms: C_1  and  C_2
REMARK    2  A    between atoms: C_2  and  C_3
REMARK    3  A    between atoms: C_2  and  O_4
REMARK    4  A    between atoms: O_4  and  C_5
REMARK    5  A    between atoms: C_7  and  C_8
REMARK    6  A    between atoms: C_8  and  C_9
REMARK    7  A    between atoms: C_9  and  O_10
REMARK    8  A    between atoms: O_10  and  C_11
REMARK    9  A    between atoms: C_14  and  C_15
REMARK   10  A    between atoms: C_21  and  N_22
REMARK   11  A    between atoms: N_22  and  C_23
REMARK                            x       y       z     vdW  Elec       q    Type
REMARK                         _______ _______ _______ _____ _____    ______ ____
ROOT
ATOM      1  C   UNL     1      45.443   8.837  12.185  0.00  0.00    +0.000 A 
ATOM      2  C   UNL     1      46.786   9.172  12.302  0.00  0.00    +0.000 A 
ATOM      3  C   UNL     1      47.736   8.181  12.080  0.00  0.00    +0.000 A 
ATOM      4  C   UNL     1      47.279   6.901  11.754  0.00  0.00    +0.000 A 
ATOM      5  C   UNL     1      45.914   6.617  11.779  0.00  0.00    +0.000 A 
ATOM      6  N   UNL     1      44.993   7.583  11.964  0.00  0.00    +0.000 NA
ENDROOT
BRANCH   5   7
ATOM      7  N   UNL     1      45.423   5.325  11.635  0.00  0.00    +0.000 N 
ATOM      8  H   UNL     1      46.190   4.741  11.312  0.00  0.00    +0.000 HD
BRANCH   7   9
ATOM      9  C   UNL     1      44.111   5.102  11.015  0.00  0.00    +0.000 C 
ATOM     10  C   UNL     1      43.170   4.411  11.980  0.00  0.00    +0.000 C 
ATOM     11  C   UNL     1      43.322   2.941  11.655  0.00  0.00    +0.000 C 
ATOM     12  O   UNL     1      43.722   2.839  10.288  0.00  0.00    +0.000 OA
ATOM     13  C   UNL     1      44.127   4.135   9.828  0.00  0.00    +0.000 C 
ENDBRANCH   7   9
ENDBRANCH   5   7
BRANCH   1  14
ATOM     14  O   UNL     1      44.566   9.902  12.234  0.00  0.00    +0.000 OA
BRANCH  14  16
ATOM     15  C   UNL     1      42.922  10.226  10.578  0.00  0.00    +0.000 C 
ATOM     16  C   UNL     1      44.341  10.603  11.007  0.00  0.00    +0.000 C 
ATOM     17  C   UNL     1      44.420  12.117  11.194  0.00  0.00    +0.000 C 
ENDBRANCH  14  16
ENDBRANCH   1  14
BRANCH   3  18
ATOM     18  C   UNL     1      49.211   8.431  12.273  0.00  0.00    +0.000 C 
BRANCH  18  19
ATOM     19  C   UNL     1      49.750   7.541  13.397  0.00  0.00    +0.000 C 
BRANCH  19  20
ATOM     20  O   UNL     1      49.187   7.922  14.656  0.00  0.00    +0.000 OA
BRANCH  20  21
ATOM     21  C   UNL     1      48.834   6.883  15.470  0.00  0.00    +0.000 A 
ATOM     22  C   UNL     1      49.119   6.737  16.813  0.00  0.00    +0.000 A 
ATOM     23  N   UNL     1      48.740   5.682  17.566  0.00  0.00    +0.000 NA
ATOM     24  C   UNL     1      48.033   4.727  16.910  0.00  0.00    +0.000 A 
ATOM     25  N   UNL     1      47.698   4.756  15.610  0.00  0.00    +0.000 NA
ATOM     26  C   UNL     1      48.110   5.842  14.921  0.00  0.00    +0.000 A 
BRANCH  24  27
ATOM     27  C   UNL     1      47.610   3.541  17.750  0.00  0.00    +0.000 C 
ATOM     28  N   UNL     1      48.371   3.313  18.871  0.00  0.00    +0.000 N 
ATOM     29  O   UNL     1      46.663   2.815  17.475  0.00  0.00    +0.000 OA
ATOM     30  H   UNL     1      49.158   3.915  19.082  0.00  0.00    +0.000 HD
ATOM     31  H   UNL     1      48.139   2.529  19.467  0.00  0.00    +0.000 HD
ENDBRANCH  24  27
ENDBRANCH  20  21
ENDBRANCH  19  20
ENDBRANCH  18  19
ENDBRANCH   3  18
TORSDOF 9
ENDMDL
MODEL 6
REMARK VINA RESULT:    -6.228      3.288      8.400
REMARK INTER + INTRA:         -10.696
REMARK INTER:                  -9.533
REMARK INTRA:                  -1.163
REMARK UNBOUND:                -1.191
REMARK  Name = 
REMARK  11 active torsions:
REMARK  status: ('A' for Active; 'I' for Inactive)
REMARK    1  A    between atoms: C_1  and  C_2
REMARK    2  A    between atoms: C_2  and  C_3
REMARK    3  A    between atoms: C_2  and  O_4
REMARK    4  A    between atoms: O_4  and  C_5
REMARK    5  A    between atoms: C_7  and  C_8
REMARK    6  A    between atoms: C_8  and  C_9
REMARK    7  A    between atoms: C_9  and  O_10
REMARK    8  A    between atoms: O_10  and  C_11
REMARK    9  A    between atoms: C_14  and  C_15
REMARK   10  A    between atoms: C_21  and  N_22
REMARK   11  A    between atoms: N_22  and  C_23
REMARK                            x       y       z     vdW  Elec       q    Type
REMARK                         _______ _______ _______ _____ _____    ______ ____
ROOT
ATOM      1  C   UNL     1      45.578   6.508  11.362  0.00  0.00    +0.000 A 
ATOM      2  C   UNL     1      46.914   6.789  11.613  0.00  0.00    +0.000 A 
ATOM      3  C   UNL     1      47.253   8.069  12.036  0.00  0.00    +0.000 A 
ATOM      4  C   UNL     1      46.222   9.002  12.182  0.00  0.00    +0.000 A 
ATOM      5  C   UNL     1      44.923   8.677  11.791  0.00  0.00    +0.000 A 
ATOM      6  N   UNL     1      44.590   7.429  11.410  0.00  0.00    +0.000 NA
ENDROOT
BRANCH   5   7
ATOM      7  N   UNL     1      43.903   9.620  11.752  0.00  0.00    +0.000 N 
ATOM      8  H   UNL     1      43.399   9.560  12.634  0.00  0.00    +0.000 HD
BRANCH   7   9
ATOM      9  C   UNL     1      43.098   9.782  10.536  0.00  0.00    +0.000 C 
ATOM     10  C   UNL     1      43.700  10.834   9.628  0.00  0.00    +0.000 C 
ATOM     11  C   UNL     1      42.975  12.107  10.006  0.00  0.00    +0.000 C 
ATOM     12  O   UNL     1      41.695  11.740  10.521  0.00  0.00    +0.000 OA
ATOM     13  C   UNL     1      41.689  10.329  10.776  0.00  0.00    +0.000 C 
ENDBRANCH   7   9
ENDBRANCH   5   7
BRANCH   1  14
ATOM     14  O   UNL     1      45.291   5.178  11.128  0.00  0.00    +0.000 OA
BRANCH  14  16
ATOM     15  C   UNL     1      44.295   4.147   9.258  0.00  0.00    +0.000 C 
ATOM     16  C   UNL     1      44.008   4.889  10.566  0.00  0.00    +0.000 C 
ATOM     17  C   UNL     1      43.177   3.989  11.478  0.00  0.00    +0.000 C 
ENDBRANCH  14  16
ENDBRANCH   1  14
BRANCH   3  18
ATOM     18  C   UNL     1      48.687   8.489  12.244  0.00  0.00    +0.000 C 
BRANCH  18  19
ATOM     19  C   UNL     1      49.440   7.410  13.027  0.00  0.00    +0.000 C 
BRANCH  19  20
ATOM     20  O   UNL     1      49.359   7.658  14.435  0.00  0.00    +0.000 OA
BRANCH  20  21
ATOM     21  C   UNL     1      48.886   6.615  15.180  0.00  0.00    +0.000 A 
ATOM     22  C   UNL     1      47.993   5.641  14.782  0.00  0.00    +0.000 A 
ATOM     23  N   UNL     1      47.563   4.630  15.567  0.00  0.00    +0.000 NA
ATOM     24  C   UNL     1      48.072   4.617  16.825  0.00  0.00    +0.000 A 
ATOM     25  N   UNL     1      48.943   5.508  17.325  0.00  0.00    +0.000 NA
ATOM     26  C   UNL     1      49.329   6.489  16.482  0.00  0.00    +0.000 A 
BRANCH  24  27
ATOM     27  C   UNL     1      47.588   3.488  17.709  0.00  0.00    +0.000 C 
ATOM     28  N   UNL     1      48.382   3.211  18.796  0.00  0.00    +0.000 N 
ATOM     29  O   UNL     1      46.569   2.844  17.497  0.00  0.00    +0.000 OA
ATOM     30  H   UNL     1      49.228   3.744  18.955  0.00  0.00    +0.000 HD
ATOM     31  H   UNL     1      48.113   2.461  19.419  0.00  0.00    +0.000 HD
ENDBRANCH  24  27
ENDBRANCH  20  21
ENDBRANCH  19  20
ENDBRANCH  18  19
ENDBRANCH   3  18
TORSDOF 9
ENDMDL
MODEL 7
REMARK VINA RESULT:    -6.065      2.552      6.919
REMARK INTER + INTRA:         -10.447
REMARK INTER:                  -9.742
REMARK INTRA:                  -0.705
REMARK UNBOUND:                -1.191
REMARK  Name = 
REMARK  11 active torsions:
REMARK  status: ('A' for Active; 'I' for Inactive)
REMARK    1  A    between atoms: C_1  and  C_2
REMARK    2  A    between atoms: C_2  and  C_3
REMARK    3  A    between atoms: C_2  and  O_4
REMARK    4  A    between atoms: O_4  and  C_5
REMARK    5  A    between atoms: C_7  and  C_8
REMARK    6  A    between atoms: C_8  and  C_9
REMARK    7  A    between atoms: C_9  and  O_10
REMARK    8  A    between atoms: O_10  and  C_11
REMARK    9  A    between atoms: C_14  and  C_15
REMARK   10  A    between atoms: C_21  and  N_22
REMARK   11  A    between atoms: N_22  and  C_23
REMARK                            x       y       z     vdW  Elec       q    Type
REMARK                         _______ _______ _______ _____ _____    ______ ____
ROOT
ATOM      1  C   UNL     1      46.853   4.217  13.896  0.00  0.00    +0.000 A 
ATOM      2  C   UNL     1      46.593   5.576  13.784  0.00  0.00    +0.000 A 
ATOM      3  C   UNL     1      45.588   5.987  12.916  0.00  0.00    +0.000 A 
ATOM      4  C   UNL     1      44.899   5.003  12.202  0.00  0.00    +0.000 A 
ATOM      5  C   UNL     1      45.305   3.670  12.277  0.00  0.00    +0.000 A 
ATOM      6  N   UNL     1      46.258   3.268  13.141  0.00  0.00    +0.000 NA
ENDROOT
BRANCH   5   7
ATOM      7  N   UNL     1      44.769   2.684  11.457  0.00  0.00    +0.000 N 
ATOM      8  H   UNL     1      45.359   1.860  11.545  0.00  0.00    +0.000 HD
BRANCH   7   9
ATOM      9  C   UNL     1      44.299   3.024  10.109  0.00  0.00    +0.000 C 
ATOM     10  C   UNL     1      44.345   1.812   9.202  0.00  0.00    +0.000 C 
ATOM     11  C   UNL     1      45.689   1.916   8.515  0.00  0.00    +0.000 C 
ATOM     12  O   UNL     1      46.052   3.297   8.480  0.00  0.00    +0.000 OA
ATOM     13  C   UNL     1      45.185   4.024   9.362  0.00  0.00    +0.000 C 
ENDBRANCH   7   9
ENDBRANCH   5   7
BRANCH   1  14
ATOM     14  O   UNL     1      47.727   3.868  14.906  0.00  0.00    +0.000 OA
BRANCH  14  16
ATOM     15  C   UNL     1      47.353   3.183  17.129  0.00  0.00    +0.000 C 
ATOM     16  C   UNL     1      47.450   4.399  16.205  0.00  0.00    +0.000 C 
ATOM     17  C   UNL     1      48.571   5.312  16.697  0.00  0.00    +0.000 C 
ENDBRANCH  14  16
ENDBRANCH   1  14
BRANCH   3  18
ATOM     18  C   UNL     1      45.298   7.446  12.663  0.00  0.00    +0.000 C 
BRANCH  18  19
ATOM     19  C   UNL     1      46.446   8.308  13.195  0.00  0.00    +0.000 C 
BRANCH  19  20
ATOM     20  O   UNL     1      47.018   9.092  12.143  0.00  0.00    +0.000 OA
BRANCH  20  21
ATOM     21  C   UNL     1      48.374   8.983  12.013  0.00  0.00    +0.000 A 
ATOM     22  C   UNL     1      49.323   9.935  12.327  0.00  0.00    +0.000 A 
ATOM     23  N   UNL     1      50.655   9.766  12.177  0.00  0.00    +0.000 NA
ATOM     24  C   UNL     1      51.034   8.563  11.678  0.00  0.00    +0.000 A 
ATOM     25  N   UNL     1      50.205   7.563  11.335  0.00  0.00    +0.000 NA
ATOM     26  C   UNL     1      48.889   7.802  11.514  0.00  0.00    +0.000 A 
BRANCH  24  27
ATOM     27  C   UNL     1      52.525   8.372  11.504  0.00  0.00    +0.000 C 
ATOM     28  N   UNL     1      52.913   7.124  11.079  0.00  0.00    +0.000 N 
ATOM     29  O   UNL     1      53.354   9.246  11.723  0.00  0.00    +0.000 OA
ATOM     30  H   UNL     1      52.218   6.407  10.911  0.00  0.00    +0.000 HD
ATOM     31  H   UNL     1      53.898   6.936  10.953  0.00  0.00    +0.000 HD
ENDBRANCH  24  27
ENDBRANCH  20  21
ENDBRANCH  19  20
ENDBRANCH  18  19
ENDBRANCH   3  18
TORSDOF 9
ENDMDL
MODEL 8
REMARK VINA RESULT:    -5.669      3.408      9.050
REMARK INTER + INTRA:          -9.843
REMARK INTER:                  -8.925
REMARK INTRA:                  -0.918
REMARK UNBOUND:                -1.191
REMARK  Name = 
REMARK  11 active torsions:
REMARK  status: ('A' for Active; 'I' for Inactive)
REMARK    1  A    between atoms: C_1  and  C_2
REMARK    2  A    between atoms: C_2  and  C_3
REMARK    3  A    between atoms: C_2  and  O_4
REMARK    4  A    between atoms: O_4  and  C_5
REMARK    5  A    between atoms: C_7  and  C_8
REMARK    6  A    between atoms: C_8  and  C_9
REMARK    7  A    between atoms: C_9  and  O_10
REMARK    8  A    between atoms: O_10  and  C_11
REMARK    9  A    between atoms: C_14  and  C_15
REMARK   10  A    between atoms: C_21  and  N_22
REMARK   11  A    between atoms: N_22  and  C_23
REMARK                            x       y       z     vdW  Elec       q    Type
REMARK                         _______ _______ _______ _____ _____    ______ ____
ROOT
ATOM      1  C   UNL     1      44.888   6.269  11.364  0.00  0.00    +0.000 A 
ATOM      2  C   UNL     1      46.084   5.782  11.873  0.00  0.00    +0.000 A 
ATOM      3  C   UNL     1      46.811   6.588  12.742  0.00  0.00    +0.000 A 
ATOM      4  C   UNL     1      46.291   7.848  13.051  0.00  0.00    +0.000 A 
ATOM      5  C   UNL     1      45.147   8.312  12.402  0.00  0.00    +0.000 A 
ATOM      6  N   UNL     1      44.427   7.521  11.583  0.00  0.00    +0.000 NA
ENDROOT
BRANCH   5   7
ATOM      7  N   UNL     1      44.693   9.618  12.543  0.00  0.00    +0.000 N 
ATOM      8  H   UNL     1      43.940   9.607  13.227  0.00  0.00    +0.000 HD
BRANCH   7   9
ATOM      9  C   UNL     1      44.500  10.462  11.358  0.00  0.00    +0.000 C 
ATOM     10  C   UNL     1      45.700  11.358  11.134  0.00  0.00    +0.000 C 
ATOM     11  C   UNL     1      45.332  12.648  11.834  0.00  0.00    +0.000 C 
ATOM     12  O   UNL     1      43.907  12.745  11.843  0.00  0.00    +0.000 OA
ATOM     13  C   UNL     1      43.357  11.472  11.478  0.00  0.00    +0.000 C 
ENDBRANCH   7   9
ENDBRANCH   5   7
BRANCH   1  14
ATOM     14  O   UNL     1      44.132   5.353  10.662  0.00  0.00    +0.000 OA
BRANCH  14  16
ATOM     15  C   UNL     1      43.553   3.197  11.415  0.00  0.00    +0.000 C 
ATOM     16  C   UNL     1      44.607   4.004  10.653  0.00  0.00    +0.000 C 
ATOM     17  C   UNL     1      44.727   3.452   9.233  0.00  0.00    +0.000 C 
ENDBRANCH  14  16
ENDBRANCH   1  14
BRANCH   3  18
ATOM     18  C   UNL     1      48.163   6.178  13.271  0.00  0.00    +0.000 C 
BRANCH  18  19
ATOM     19  C   UNL     1      48.475   6.943  14.559  0.00  0.00    +0.000 C 
BRANCH  19  20
ATOM     20  O   UNL     1      49.506   6.284  15.302  0.00  0.00    +0.000 OA
BRANCH  20  21
ATOM     21  C   UNL     1      49.159   5.914  16.571  0.00  0.00    +0.000 A 
ATOM     22  C   UNL     1      48.856   4.645  17.019  0.00  0.00    +0.000 A 
ATOM     23  N   UNL     1      48.520   4.342  18.292  0.00  0.00    +0.000 NA
ATOM     24  C   UNL     1      48.491   5.394  19.149  0.00  0.00    +0.000 A 
ATOM     25  N   UNL     1      48.763   6.670  18.830  0.00  0.00    +0.000 NA
ATOM     26  C   UNL     1      49.093   6.896  17.541  0.00  0.00    +0.000 A 
BRANCH  24  27
ATOM     27  C   UNL     1      48.111   5.059  20.575  0.00  0.00    +0.000 C 
ATOM     28  N   UNL     1      47.035   5.752  21.075  0.00  0.00    +0.000 N 
ATOM     29  O   UNL     1      48.703   4.237  21.263  0.00  0.00    +0.000 OA
ATOM     30  H   UNL     1      46.560   6.437  20.499  0.00  0.00    +0.000 HD
ATOM     31  H   UNL     1      46.740   5.576  22.026  0.00  0.00    +0.000 HD
ENDBRANCH  24  27
ENDBRANCH  20  21
ENDBRANCH  19  20
ENDBRANCH  18  19
ENDBRANCH   3  18
TORSDOF 9
ENDMDL
MODEL 9
REMARK VINA RESULT:    -5.633      3.223      5.497
REMARK INTER + INTRA:          -9.788
REMARK INTER:                  -8.568
REMARK INTRA:                  -1.220
REMARK UNBOUND:                -1.191
REMARK  Name = 
REMARK  11 active torsions:
REMARK  status: ('A' for Active; 'I' for Inactive)
REMARK    1  A    between atoms: C_1  and  C_2
REMARK    2  A    between atoms: C_2  and  C_3
REMARK    3  A    between atoms: C_2  and  O_4
REMARK    4  A    between atoms: O_4  and  C_5
REMARK    5  A    between atoms: C_7  and  C_8
REMARK    6  A    between atoms: C_8  and  C_9
REMARK    7  A    between atoms: C_9  and  O_10
REMARK    8  A    between atoms: O_10  and  C_11
REMARK    9  A    between atoms: C_14  and  C_15
REMARK   10  A    between atoms: C_21  and  N_22
REMARK   11  A    between atoms: N_22  and  C_23
REMARK                            x       y       z     vdW  Elec       q    Type
REMARK                         _______ _______ _______ _____ _____    ______ ____
ROOT
ATOM      1  C   UNL     1      49.224   8.494  17.607  0.00  0.00    +0.000 A 
ATOM      2  C   UNL     1      49.123   8.957  16.302  0.00  0.00    +0.000 A 
ATOM      3  C   UNL     1      49.203   8.035  15.265  0.00  0.00    +0.000 A 
ATOM      4  C   UNL     1      49.384   6.691  15.599  0.00  0.00    +0.000 A 
ATOM      5  C   UNL     1      49.602   6.323  16.927  0.00  0.00    +0.000 A 
ATOM      6  N   UNL     1      49.494   7.211  17.935  0.00  0.00    +0.000 NA
ENDROOT
BRANCH   5   7
ATOM      7  N   UNL     1      49.959   5.030  17.290  0.00  0.00    +0.000 N 
ATOM      8  H   UNL     1      50.499   4.636  16.523  0.00  0.00    +0.000 HD
BRANCH   7   9
ATOM      9  C   UNL     1      48.977   4.148  17.932  0.00  0.00    +0.000 C 
ATOM     10  C   UNL     1      49.179   2.711  17.499  0.00  0.00    +0.000 C 
ATOM     11  C   UNL     1      48.232   2.541  16.332  0.00  0.00    +0.000 C 
ATOM     12  O   UNL     1      47.160   3.469  16.505  0.00  0.00    +0.000 OA
ATOM     13  C   UNL     1      47.526   4.410  17.523  0.00  0.00    +0.000 C 
ENDBRANCH   7   9
ENDBRANCH   5   7
BRANCH   1  14
ATOM     14  O   UNL     1      48.951   9.429  18.585  0.00  0.00    +0.000 OA
BRANCH  14  16
ATOM     15  C   UNL     1      47.333   9.106  20.267  0.00  0.00    +0.000 C 
ATOM     16  C   UNL     1      47.571   9.676  18.867  0.00  0.00    +0.000 C 
ATOM     17  C   UNL     1      47.251  11.170  18.876  0.00  0.00    +0.000 C 
ENDBRANCH  14  16
ENDBRANCH   1  14
BRANCH   3  18
ATOM     18  C   UNL     1      49.194   8.458  13.817  0.00  0.00    +0.000 C 
BRANCH  18  19
ATOM     19  C   UNL     1      48.386   7.460  12.984  0.00  0.00    +0.000 C 
BRANCH  19  20
ATOM     20  O   UNL     1      47.006   7.485  13.364  0.00  0.00    +0.000 OA
BRANCH  20  21
ATOM     21  C   UNL     1      46.250   6.463  12.863  0.00  0.00    +0.000 A 
ATOM     22  C   UNL     1      45.507   6.465  11.700  0.00  0.00    +0.000 A 
ATOM     23  N   UNL     1      44.778   5.418  11.255  0.00  0.00    +0.000 NA
ATOM     24  C   UNL     1      44.811   4.314  12.043  0.00  0.00    +0.000 A 
ATOM     25  N   UNL     1      45.493   4.194  13.194  0.00  0.00    +0.000 NA
ATOM     26  C   UNL     1      46.199   5.280  13.574  0.00  0.00    +0.000 A 
BRANCH  24  27
ATOM     27  C   UNL     1      43.992   3.141  11.550  0.00  0.00    +0.000 C 
ATOM     28  N   UNL     1      43.677   2.201  12.502  0.00  0.00    +0.000 N 
ATOM     29  O   UNL     1      43.623   3.006  10.390  0.00  0.00    +0.000 OA
ATOM     30  H   UNL     1      43.997   2.319  13.456  0.00  0.00    +0.000 HD
ATOM     31  H   UNL     1      43.138   1.391  12.229  0.00  0.00    +0.000 HD
ENDBRANCH  24  27
ENDBRANCH  20  21
ENDBRANCH  19  20
ENDBRANCH  18  19
ENDBRANCH   3  18
TORSDOF 9
ENDMDL
