MODEL 1
REMARK VINA RESULT:    -8.427      0.000      0.000
REMARK INTER + INTRA:         -11.835
REMARK INTER:                 -11.382
REMARK INTRA:                  -0.452
REMARK UNBOUND:                -0.452
REMARK  Name = 
REMARK  8 active torsions:
REMARK  status: ('A' for Active; 'I' for Inactive)
REMARK    1  A    between atoms: C_1  and  C_2
REMARK    2  A    between atoms: C_2  and  O_3
REMARK    3  A    between atoms: C_2  and  C_14
REMARK    4  A    between atoms: O_3  and  C_4
REMARK    5  A    between atoms: C_7  and  C_8
REMARK    6  A    between atoms: C_19  and  O_20
REMARK    7  A    between atoms: O_20  and  C_21
REMARK    8  A    between atoms: N_25  and  C_26
REMARK                            x       y       z     vdW  Elec       q    Type
REMARK                         _______ _______ _______ _____ _____    ______ ____
ROOT
ATOM      1  C   UNL     1      43.429   4.566  12.687  0.00  0.00    +0.000 C 
ATOM      2  C   UNL     1      44.528   4.957  11.756  0.00  0.00    +0.000 C 
ENDROOT
BRANCH   2   3
ATOM      3  C   UNL     1      45.683   5.766  12.184  0.00  0.00    +0.000 A 
ATOM      4  C   UNL     1      45.969   7.028  11.648  0.00  0.00    +0.000 A 
ATOM      5  C   UNL     1      47.042   7.773  12.134  0.00  0.00    +0.000 A 
ATOM      6  F   UNL     1      47.277   8.989  11.621  0.00  0.00    +0.000 F 
ATOM      7  C   UNL     1      47.864   7.290  13.143  0.00  0.00    +0.000 A 
ATOM      8  C   UNL     1      47.614   6.025  13.661  0.00  0.00    +0.000 A 
ATOM      9  C   UNL     1      46.520   5.284  13.201  0.00  0.00    +0.000 A 
BRANCH   8  10
ATOM     10  O   UNL     1      48.423   5.577  14.681  0.00  0.00    +0.000 OA
BRANCH  10  11
ATOM     11  C   UNL     1      47.891   4.945  15.731  0.00  0.00    +0.000 A 
ATOM     12  C   UNL     1      47.148   3.791  15.895  0.00  0.00    +0.000 A 
ATOM     13  N   UNL     1      46.814   3.598  17.211  0.00  0.00    +0.000 NA
ATOM     14  C   UNL     1      47.360   4.604  17.855  0.00  0.00    +0.000 A 
ATOM     15  N   UNL     1      48.035   5.433  17.005  0.00  0.00    +0.000 N 
ATOM     16  C   UNL     1      48.725   6.640  17.383  0.00  0.00    +0.000 C 
ENDBRANCH  10  11
ENDBRANCH   8  10
ENDBRANCH   2   3
BRANCH   2  17
ATOM     17  O   UNL     1      44.220   4.983  10.401  0.00  0.00    +0.000 OA
BRANCH  17  18
ATOM     18  C   UNL     1      45.025   4.277   9.528  0.00  0.00    +0.000 A 
ATOM     19  C   UNL     1      45.865   4.904   8.600  0.00  0.00    +0.000 A 
ATOM     20  C   UNL     1      46.632   4.145   7.708  0.00  0.00    +0.000 A 
ATOM     21  C   UNL     1      46.576   2.748   7.737  0.00  0.00    +0.000 A 
ATOM     22  C   UNL     1      45.720   2.119   8.651  0.00  0.00    +0.000 A 
ATOM     23  C   UNL     1      44.935   2.881   9.531  0.00  0.00    +0.000 A 
ATOM     24 CL   UNL     1      43.854   2.045  10.584  0.00  0.00    +0.000 Cl
BRANCH  21  25
ATOM     25  C   UNL     1      47.392   1.879   6.842  0.00  0.00    +0.000 C 
ATOM     26  N   UNL     1      48.504   2.409   6.240  0.00  0.00    +0.000 N 
ATOM     27  O   UNL     1      47.090   0.709   6.635  0.00  0.00    +0.000 OA
ATOM     28  H   UNL     1      48.797   3.370   6.293  0.00  0.00    +0.000 HD
ATOM     29  H   UNL     1      49.018   1.792   5.624  0.00  0.00    +0.000 HD
ENDBRANCH  21  25
ENDBRANCH  17  18
ENDBRANCH   2  17
TORSDOF 6
ENDMDL
MODEL 2
REMARK VINA RESULT:    -8.080      2.683      7.669
REMARK INTER + INTRA:         -11.366
REMARK INTER:                 -10.476
REMARK INTRA:                  -0.891
REMARK UNBOUND:                -0.452
REMARK  Name = 
REMARK  8 active torsions:
REMARK  status: ('A' for Active; 'I' for Inactive)
REMARK    1  A    between atoms: C_1  and  C_2
REMARK    2  A    between atoms: C_2  and  O_3
REMARK    3  A    between atoms: C_2  and  C_14
REMARK    4  A    between atoms: O_3  and  C_4
REMARK    5  A    between atoms: C_7  and  C_8
REMARK    6  A    between atoms: C_19  and  O_20
REMARK    7  A    between atoms: O_20  and  C_21
REMARK    8  A    between atoms: N_25  and  C_26
REMARK                            x       y       z     vdW  Elec       q    Type
REMARK                         _______ _______ _______ _____ _____    ______ ____
ROOT
ATOM      1  C   UNL     1      46.164   8.349  12.639  0.00  0.00    +0.000 C 
ATOM      2  C   UNL     1      46.527   7.057  11.986  0.00  0.00    +0.000 C 
ENDROOT
BRANCH   2   3
ATOM      3  C   UNL     1      45.535   6.199  11.315  0.00  0.00    +0.000 A 
ATOM      4  C   UNL     1      44.255   5.968  11.831  0.00  0.00    +0.000 A 
ATOM      5  C   UNL     1      43.337   5.194  11.121  0.00  0.00    +0.000 A 
ATOM      6  F   UNL     1      42.109   5.011  11.627  0.00  0.00    +0.000 F 
ATOM      7  C   UNL     1      43.663   4.620   9.900  0.00  0.00    +0.000 A 
ATOM      8  C   UNL     1      44.942   4.811   9.391  0.00  0.00    +0.000 A 
ATOM      9  C   UNL     1      45.857   5.613  10.082  0.00  0.00    +0.000 A 
BRANCH   8  10
ATOM     10  O   UNL     1      45.235   4.257   8.165  0.00  0.00    +0.000 OA
BRANCH  10  11
ATOM     11  C   UNL     1      45.678   2.999   8.086  0.00  0.00    +0.000 A 
ATOM     12  C   UNL     1      45.478   1.851   8.830  0.00  0.00    +0.000 A 
ATOM     13  N   UNL     1      46.212   0.804   8.334  0.00  0.00    +0.000 NA
ATOM     14  C   UNL     1      46.837   1.289   7.286  0.00  0.00    +0.000 A 
ATOM     15  N   UNL     1      46.533   2.605   7.088  0.00  0.00    +0.000 N 
ATOM     16  C   UNL     1      47.067   3.442   6.043  0.00  0.00    +0.000 C 
ENDBRANCH  10  11
ENDBRANCH   8  10
ENDBRANCH   2   3
BRANCH   2  17
ATOM     17  O   UNL     1      47.684   6.432  12.437  0.00  0.00    +0.000 OA
BRANCH  17  18
ATOM     18  C   UNL     1      47.625   5.695  13.602  0.00  0.00    +0.000 A 
ATOM     19  C   UNL     1      46.970   4.460  13.682  0.00  0.00    +0.000 A 
ATOM     20  C   UNL     1      46.901   3.767  14.897  0.00  0.00    +0.000 A 
ATOM     21  C   UNL     1      47.494   4.297  16.048  0.00  0.00    +0.000 A 
ATOM     22  C   UNL     1      48.131   5.543  15.975  0.00  0.00    +0.000 A 
ATOM     23  C   UNL     1      48.181   6.246  14.762  0.00  0.00    +0.000 A 
ATOM     24 CL   UNL     1      48.924   7.804  14.757  0.00  0.00    +0.000 Cl
BRANCH  21  25
ATOM     25  C   UNL     1      47.491   3.597  17.364  0.00  0.00    +0.000 C 
ATOM     26  N   UNL     1      48.452   3.919  18.287  0.00  0.00    +0.000 N 
ATOM     27  O   UNL     1      46.652   2.744  17.634  0.00  0.00    +0.000 OA
ATOM     28  H   UNL     1      49.219   4.552  18.137  0.00  0.00    +0.000 HD
ATOM     29  H   UNL     1      48.426   3.406  19.159  0.00  0.00    +0.000 HD
ENDBRANCH  21  25
ENDBRANCH  17  18
ENDBRANCH   2  17
TORSDOF 6
ENDMDL
MODEL 3
REMARK VINA RESULT:    -7.678      1.953      2.465
REMARK INTER + INTRA:         -10.824
REMARK INTER:                  -9.902
REMARK INTRA:                  -0.922
REMARK UNBOUND:                -0.452
REMARK  Name = 
REMARK  8 active torsions:
REMARK  status: ('A' for Active; 'I' for Inactive)
REMARK    1  A    between atoms: C_1  and  C_2
REMARK    2  A    between atoms: C_2  and  O_3
REMARK    3  A    between atoms: C_2  and  C_14
REMARK    4  A    between atoms: O_3  and  C_4
REMARK    5  A    between atoms: C_7  and  C_8
REMARK    6  A    between atoms: C_19  and  O_20
REMARK    7  A    between atoms: O_20  and  C_21
REMARK    8  A    between atoms: N_25  and  C_26
REMARK                            x       y       z     vdW  Elec       q    Type
REMARK                         _______ _______ _______ _____ _____    ______ ____
ROOT
ATOM      1  C   UNL     1      43.397   4.923  12.813  0.00  0.00    +0.000 C 
ATOM      2  C   UNL     1      44.301   5.319  11.693  0.00  0.00    +0.000 C 
ENDROOT
BRANCH   2   3
ATOM      3  C   UNL     1      45.296   6.398  11.817  0.00  0.00    +0.000 A 
ATOM      4  C   UNL     1      44.977   7.751  11.648  0.00  0.00    +0.000 A 
ATOM      5  C   UNL     1      45.949   8.733  11.837  0.00  0.00    +0.000 A 
ATOM      6  F   UNL     1      45.609  10.022  11.694  0.00  0.00    +0.000 F 
ATOM      7  C   UNL     1      47.254   8.407  12.179  0.00  0.00    +0.000 A 
ATOM      8  C   UNL     1      47.595   7.067  12.317  0.00  0.00    +0.000 A 
ATOM      9  C   UNL     1      46.618   6.077  12.161  0.00  0.00    +0.000 A 
BRANCH   8  10
ATOM     10  O   UNL     1      48.886   6.766  12.685  0.00  0.00    +0.000 OA
BRANCH  10  11
ATOM     11  C   UNL     1      49.337   7.112  13.895  0.00  0.00    +0.000 A 
ATOM     12  C   UNL     1      48.963   6.814  15.192  0.00  0.00    +0.000 A 
ATOM     13  N   UNL     1      49.752   7.470  16.100  0.00  0.00    +0.000 NA
ATOM     14  C   UNL     1      50.617   8.146  15.378  0.00  0.00    +0.000 A 
ATOM     15  N   UNL     1      50.415   7.947  14.043  0.00  0.00    +0.000 N 
ATOM     16  C   UNL     1      51.173   8.559  12.980  0.00  0.00    +0.000 C 
ENDBRANCH  10  11
ENDBRANCH   8  10
ENDBRANCH   2   3
BRANCH   2  17
ATOM     17  O   UNL     1      43.872   5.016  10.406  0.00  0.00    +0.000 OA
BRANCH  17  18
ATOM     18  C   UNL     1      44.638   4.159   9.640  0.00  0.00    +0.000 A 
ATOM     19  C   UNL     1      45.464   4.608   8.603  0.00  0.00    +0.000 A 
ATOM     20  C   UNL     1      46.191   3.696   7.827  0.00  0.00    +0.000 A 
ATOM     21  C   UNL     1      46.108   2.325   8.083  0.00  0.00    +0.000 A 
ATOM     22  C   UNL     1      45.264   1.871   9.107  0.00  0.00    +0.000 A 
ATOM     23  C   UNL     1      44.520   2.784   9.870  0.00  0.00    +0.000 A 
ATOM     24 CL   UNL     1      43.452   2.155  11.071  0.00  0.00    +0.000 Cl
BRANCH  21  25
ATOM     25  C   UNL     1      46.882   1.303   7.321  0.00  0.00    +0.000 C 
ATOM     26  N   UNL     1      46.752  -0.018   7.666  0.00  0.00    +0.000 N 
ATOM     27  O   UNL     1      47.626   1.619   6.400  0.00  0.00    +0.000 OA
ATOM     28  H   UNL     1      46.222  -0.370   8.444  0.00  0.00    +0.000 HD
ATOM     29  H   UNL     1      47.310  -0.676   7.137  0.00  0.00    +0.000 HD
ENDBRANCH  21  25
ENDBRANCH  17  18
ENDBRANCH   2  17
TORSDOF 6
ENDMDL
MODEL 4
REMARK VINA RESULT:    -7.582      3.487      7.237
REMARK INTER + INTRA:         -10.694
REMARK INTER:                  -9.580
REMARK INTRA:                  -1.114
REMARK UNBOUND:                -0.452
REMARK  Name = 
REMARK  8 active torsions:
REMARK  status: ('A' for Active; 'I' for Inactive)
REMARK    1  A    between atoms: C_1  and  C_2
REMARK    2  A    between atoms: C_2  and  O_3
REMARK    3  A    between atoms: C_2  and  C_14
REMARK    4  A    between atoms: O_3  and  C_4
REMARK    5  A    between atoms: C_7  and  C_8
REMARK    6  A    between atoms: C_19  and  O_20
REMARK    7  A    between atoms: O_20  and  C_21
REMARK    8  A    between atoms: N_25  and  C_26
REMARK                            x       y       z     vdW  Elec       q    Type
REMARK                         _______ _______ _______ _____ _____    ______ ____
ROOT
ATOM      1  C   UNL     1      47.255   3.922  14.129  0.00  0.00    +0.000 C 
ATOM      2  C   UNL     1      46.198   4.917  13.781  0.00  0.00    +0.000 C 
ENDROOT
BRANCH   2   3
ATOM      3  C   UNL     1      45.147   4.645  12.785  0.00  0.00    +0.000 A 
ATOM      4  C   UNL     1      43.888   5.256  12.821  0.00  0.00    +0.000 A 
ATOM      5  C   UNL     1      42.953   5.005  11.817  0.00  0.00    +0.000 A 
ATOM      6  F   UNL     1      41.765   5.624  11.863  0.00  0.00    +0.000 F 
ATOM      7  C   UNL     1      43.229   4.138  10.769  0.00  0.00    +0.000 A 
ATOM      8  C   UNL     1      44.461   3.496  10.738  0.00  0.00    +0.000 A 
ATOM      9  C   UNL     1      45.416   3.768  11.724  0.00  0.00    +0.000 A 
BRANCH   8  10
ATOM     10  O   UNL     1      44.725   2.663   9.675  0.00  0.00    +0.000 OA
BRANCH  10  11
ATOM     11  C   UNL     1      45.470   3.093   8.653  0.00  0.00    +0.000 A 
ATOM     12  C   UNL     1      45.719   4.330   8.087  0.00  0.00    +0.000 A 
ATOM     13  N   UNL     1      46.554   4.222   7.004  0.00  0.00    +0.000 NA
ATOM     14  C   UNL     1      46.835   2.943   6.915  0.00  0.00    +0.000 A 
ATOM     15  N   UNL     1      46.217   2.225   7.898  0.00  0.00    +0.000 N 
ATOM     16  C   UNL     1      46.297   0.796   8.071  0.00  0.00    +0.000 C 
ENDBRANCH  10  11
ENDBRANCH   8  10
ENDBRANCH   2   3
BRANCH   2  17
ATOM     17  O   UNL     1      46.494   6.254  14.021  0.00  0.00    +0.000 OA
BRANCH  17  18
ATOM     18  C   UNL     1      47.598   6.806  13.403  0.00  0.00    +0.000 A 
ATOM     19  C   UNL     1      47.644   7.062  12.028  0.00  0.00    +0.000 A 
ATOM     20  C   UNL     1      48.803   7.586  11.440  0.00  0.00    +0.000 A 
ATOM     21  C   UNL     1      49.927   7.870  12.222  0.00  0.00    +0.000 A 
ATOM     22  C   UNL     1      49.890   7.594  13.595  0.00  0.00    +0.000 A 
ATOM     23  C   UNL     1      48.736   7.049  14.180  0.00  0.00    +0.000 A 
ATOM     24 CL   UNL     1      48.780   6.673  15.864  0.00  0.00    +0.000 Cl
BRANCH  21  25
ATOM     25  C   UNL     1      51.178   8.462  11.668  0.00  0.00    +0.000 C 
ATOM     26  N   UNL     1      52.385   7.951  12.069  0.00  0.00    +0.000 N 
ATOM     27  O   UNL     1      51.148   9.391  10.869  0.00  0.00    +0.000 OA
ATOM     28  H   UNL     1      52.517   7.239  12.767  0.00  0.00    +0.000 HD
ATOM     29  H   UNL     1      53.210   8.395  11.685  0.00  0.00    +0.000 HD
ENDBRANCH  21  25
ENDBRANCH  17  18
ENDBRANCH   2  17
TORSDOF 6
ENDMDL
MODEL 5
REMARK VINA RESULT:    -7.502      3.781      4.880
REMARK INTER + INTRA:         -10.586
REMARK INTER:                  -9.146
REMARK INTRA:                  -1.439
REMARK UNBOUND:                -0.452
REMARK  Name = 
REMARK  8 active torsions:
REMARK  status: ('A' for Active; 'I' for Inactive)
REMARK    1  A    between atoms: C_1  and  C_2
REMARK    2  A    between atoms: C_2  and  O_3
REMARK    3  A    between atoms: C_2  and  C_14
REMARK    4  A    between atoms: O_3  and  C_4
REMARK    5  A    between atoms: C_7  and  C_8
REMARK    6  A    between atoms: C_19  and  O_20
REMARK    7  A    between atoms: O_20  and  C_21
REMARK    8  A    between atoms: N_25  and  C_26
REMARK                            x       y       z     vdW  Elec       q    Type
REMARK                         _______ _______ _______ _____ _____    ______ ____
ROOT
ATOM      1  C   UNL     1      49.957   8.074  12.345  0.00  0.00    +0.000 C 
ATOM      2  C   UNL     1      48.967   7.407  13.241  0.00  0.00    +0.000 C 
ENDROOT
BRANCH   2   3
ATOM      3  C   UNL     1      48.841   7.736  14.671  0.00  0.00    +0.000 A 
ATOM      4  C   UNL     1      48.555   9.027  15.133  0.00  0.00    +0.000 A 
ATOM      5  C   UNL     1      48.389   9.268  16.496  0.00  0.00    +0.000 A 
ATOM      6  F   UNL     1      48.090  10.508  16.907  0.00  0.00    +0.000 F 
ATOM      7  C   UNL     1      48.514   8.251  17.433  0.00  0.00    +0.000 A 
ATOM      8  C   UNL     1      48.831   6.971  16.994  0.00  0.00    +0.000 A 
ATOM      9  C   UNL     1      48.968   6.716  15.625  0.00  0.00    +0.000 A 
BRANCH   8  10
ATOM     10  O   UNL     1      48.923   5.973  17.936  0.00  0.00    +0.000 OA
BRANCH  10  11
ATOM     11  C   UNL     1      48.337   4.791  17.722  0.00  0.00    +0.000 A 
ATOM     12  C   UNL     1      47.028   4.368  17.584  0.00  0.00    +0.000 A 
ATOM     13  N   UNL     1      46.960   3.010  17.408  0.00  0.00    +0.000 NA
ATOM     14  C   UNL     1      48.208   2.601  17.414  0.00  0.00    +0.000 A 
ATOM     15  N   UNL     1      49.075   3.643  17.584  0.00  0.00    +0.000 N 
ATOM     16  C   UNL     1      50.509   3.537  17.660  0.00  0.00    +0.000 C 
ENDBRANCH  10  11
ENDBRANCH   8  10
ENDBRANCH   2   3
BRANCH   2  17
ATOM     17  O   UNL     1      48.518   6.150  12.851  0.00  0.00    +0.000 OA
BRANCH  17  18
ATOM     18  C   UNL     1      47.188   6.001  12.512  0.00  0.00    +0.000 A 
ATOM     19  C   UNL     1      46.490   6.950  11.754  0.00  0.00    +0.000 A 
ATOM     20  C   UNL     1      45.131   6.774  11.470  0.00  0.00    +0.000 A 
ATOM     21  C   UNL     1      44.451   5.643  11.932  0.00  0.00    +0.000 A 
ATOM     22  C   UNL     1      45.141   4.703  12.710  0.00  0.00    +0.000 A 
ATOM     23  C   UNL     1      46.499   4.890  13.012  0.00  0.00    +0.000 A 
ATOM     24 CL   UNL     1      47.272   3.728  14.028  0.00  0.00    +0.000 Cl
BRANCH  21  25
ATOM     25  C   UNL     1      43.015   5.375  11.636  0.00  0.00    +0.000 C 
ATOM     26  N   UNL     1      42.121   6.412  11.704  0.00  0.00    +0.000 N 
ATOM     27  O   UNL     1      42.621   4.253  11.336  0.00  0.00    +0.000 OA
ATOM     28  H   UNL     1      42.332   7.348  12.005  0.00  0.00    +0.000 HD
ATOM     29  H   UNL     1      41.153   6.183  11.517  0.00  0.00    +0.000 HD
ENDBRANCH  21  25
ENDBRANCH  17  18
ENDBRANCH   2  17
TORSDOF 6
ENDMDL
MODEL 6
REMARK VINA RESULT:    -7.352      3.627      7.665
REMARK INTER + INTRA:         -10.383
REMARK INTER:                  -9.342
REMARK INTRA:                  -1.041
REMARK UNBOUND:                -0.452
REMARK  Name = 
REMARK  8 active torsions:
REMARK  status: ('A' for Active; 'I' for Inactive)
REMARK    1  A    between atoms: C_1  and  C_2
REMARK    2  A    between atoms: C_2  and  O_3
REMARK    3  A    between atoms: C_2  and  C_14
REMARK    4  A    between atoms: O_3  and  C_4
REMARK    5  A    between atoms: C_7  and  C_8
REMARK    6  A    between atoms: C_19  and  O_20
REMARK    7  A    between atoms: O_20  and  C_21
REMARK    8  A    between atoms: N_25  and  C_26
REMARK                            x       y       z     vdW  Elec       q    Type
REMARK                         _______ _______ _______ _____ _____    ______ ____
ROOT
ATOM      1  C   UNL     1      49.365   8.109  16.658  0.00  0.00    +0.000 C 
ATOM      2  C   UNL     1      48.930   6.805  16.077  0.00  0.00    +0.000 C 
ENDROOT
BRANCH   2   3
ATOM      3  C   UNL     1      48.356   6.688  14.725  0.00  0.00    +0.000 A 
ATOM      4  C   UNL     1      48.682   7.563  13.682  0.00  0.00    +0.000 A 
ATOM      5  C   UNL     1      48.153   7.368  12.407  0.00  0.00    +0.000 A 
ATOM      6  F   UNL     1      48.503   8.206  11.420  0.00  0.00    +0.000 F 
ATOM      7  C   UNL     1      47.283   6.322  12.134  0.00  0.00    +0.000 A 
ATOM      8  C   UNL     1      46.922   5.465  13.167  0.00  0.00    +0.000 A 
ATOM      9  C   UNL     1      47.475   5.635  14.442  0.00  0.00    +0.000 A 
BRANCH   8  10
ATOM     10  O   UNL     1      46.081   4.417  12.869  0.00  0.00    +0.000 OA
BRANCH  10  11
ATOM     11  C   UNL     1      44.812   4.651  12.525  0.00  0.00    +0.000 A 
ATOM     12  C   UNL     1      43.795   5.433  13.041  0.00  0.00    +0.000 A 
ATOM     13  N   UNL     1      42.641   5.290  12.315  0.00  0.00    +0.000 NA
ATOM     14  C   UNL     1      42.944   4.450  11.352  0.00  0.00    +0.000 A 
ATOM     15  N   UNL     1      44.248   4.051  11.428  0.00  0.00    +0.000 N 
ATOM     16  C   UNL     1      44.893   3.118  10.540  0.00  0.00    +0.000 C 
ENDBRANCH  10  11
ENDBRANCH   8  10
ENDBRANCH   2   3
BRANCH   2  17
ATOM     17  O   UNL     1      48.609   5.795  16.977  0.00  0.00    +0.000 OA
BRANCH  17  18
ATOM     18  C   UNL     1      49.522   4.780  17.183  0.00  0.00    +0.000 A 
ATOM     19  C   UNL     1      50.897   5.015  17.309  0.00  0.00    +0.000 A 
ATOM     20  C   UNL     1      51.788   3.948  17.476  0.00  0.00    +0.000 A 
ATOM     21  C   UNL     1      51.316   2.633  17.528  0.00  0.00    +0.000 A 
ATOM     22  C   UNL     1      49.943   2.394  17.381  0.00  0.00    +0.000 A 
ATOM     23  C   UNL     1      49.052   3.462  17.192  0.00  0.00    +0.000 A 
ATOM     24 CL   UNL     1      47.384   3.094  16.952  0.00  0.00    +0.000 Cl
BRANCH  21  25
ATOM     25  C   UNL     1      52.204   1.454  17.741  0.00  0.00    +0.000 C 
ATOM     26  N   UNL     1      51.643   0.263  18.122  0.00  0.00    +0.000 N 
ATOM     27  O   UNL     1      53.418   1.530  17.583  0.00  0.00    +0.000 OA
ATOM     28  H   UNL     1      50.672   0.117  18.341  0.00  0.00    +0.000 HD
ATOM     29  H   UNL     1      52.283  -0.506  18.275  0.00  0.00    +0.000 HD
ENDBRANCH  21  25
ENDBRANCH  17  18
ENDBRANCH   2  17
TORSDOF 6
ENDMDL
MODEL 7
REMARK VINA RESULT:    -7.192      3.251      4.432
REMARK INTER + INTRA:         -10.167
REMARK INTER:                  -9.248
REMARK INTRA:                  -0.919
REMARK UNBOUND:                -0.452
REMARK  Name = 
REMARK  8 active torsions:
REMARK  status: ('A' for Active; 'I' for Inactive)
REMARK    1  A    between atoms: C_1  and  C_2
REMARK    2  A    between atoms: C_2  and  O_3
REMARK    3  A    between atoms: C_2  and  C_14
REMARK    4  A    between atoms: O_3  and  C_4
REMARK    5  A    between atoms: C_7  and  C_8
REMARK    6  A    between atoms: C_19  and  O_20
REMARK    7  A    between atoms: O_20  and  C_21
REMARK    8  A    between atoms: N_25  and  C_26
REMARK                            x       y       z     vdW  Elec       q    Type
REMARK                         _______ _______ _______ _____ _____    ______ ____
ROOT
ATOM      1  C   UNL     1      48.437   7.399  11.617  0.00  0.00    +0.000 C 
ATOM      2  C   UNL     1      48.086   7.505  13.064  0.00  0.00    +0.000 C 
ENDROOT
BRANCH   2   3
ATOM      3  C   UNL     1      49.075   7.306  14.138  0.00  0.00    +0.000 A 
ATOM      4  C   UNL     1      50.381   7.806  14.072  0.00  0.00    +0.000 A 
ATOM      5  C   UNL     1      51.255   7.637  15.146  0.00  0.00    +0.000 A 
ATOM      6  F   UNL     1      52.492   8.149  15.066  0.00  0.00    +0.000 F 
ATOM      7  C   UNL     1      50.870   6.963  16.296  0.00  0.00    +0.000 A 
ATOM      8  C   UNL     1      49.588   6.431  16.363  0.00  0.00    +0.000 A 
ATOM      9  C   UNL     1      48.695   6.624  15.303  0.00  0.00    +0.000 A 
BRANCH   8  10
ATOM     10  O   UNL     1      49.217   5.791  17.524  0.00  0.00    +0.000 OA
BRANCH  10  11
ATOM     11  C   UNL     1      48.424   4.717  17.475  0.00  0.00    +0.000 A 
ATOM     12  C   UNL     1      47.056   4.522  17.436  0.00  0.00    +0.000 A 
ATOM     13  N   UNL     1      46.744   3.187  17.428  0.00  0.00    +0.000 NA
ATOM     14  C   UNL     1      47.900   2.565  17.438  0.00  0.00    +0.000 A 
ATOM     15  N   UNL     1      48.942   3.447  17.450  0.00  0.00    +0.000 N 
ATOM     16  C   UNL     1      50.339   3.096  17.487  0.00  0.00    +0.000 C 
ENDBRANCH  10  11
ENDBRANCH   8  10
ENDBRANCH   2   3
BRANCH   2  17
ATOM     17  O   UNL     1      46.753   7.301  13.401  0.00  0.00    +0.000 OA
BRANCH  17  18
ATOM     18  C   UNL     1      46.103   6.199  12.883  0.00  0.00    +0.000 A 
ATOM     19  C   UNL     1      46.421   4.888  13.259  0.00  0.00    +0.000 A 
ATOM     20  C   UNL     1      45.761   3.800  12.675  0.00  0.00    +0.000 A 
ATOM     21  C   UNL     1      44.768   4.008  11.713  0.00  0.00    +0.000 A 
ATOM     22  C   UNL     1      44.463   5.318  11.319  0.00  0.00    +0.000 A 
ATOM     23  C   UNL     1      45.140   6.407  11.889  0.00  0.00    +0.000 A 
ATOM     24 CL   UNL     1      44.762   7.989  11.313  0.00  0.00    +0.000 Cl
BRANCH  21  25
ATOM     25  C   UNL     1      44.001   2.898  11.078  0.00  0.00    +0.000 C 
ATOM     26  N   UNL     1      44.530   2.273   9.978  0.00  0.00    +0.000 N 
ATOM     27  O   UNL     1      42.914   2.538  11.516  0.00  0.00    +0.000 OA
ATOM     28  H   UNL     1      45.377   2.538   9.505  0.00  0.00    +0.000 HD
ATOM     29  H   UNL     1      43.968   1.540   9.565  0.00  0.00    +0.000 HD
ENDBRANCH  21  25
ENDBRANCH  17  18
ENDBRANCH   2  17
TORSDOF 6
ENDMDL
MODEL 8
REMARK VINA RESULT:    -7.109      2.765      3.765
REMARK INTER + INTRA:         -10.055
REMARK INTER:                  -9.280
REMARK INTRA:                  -0.775
REMARK UNBOUND:                -0.452
REMARK  Name = 
REMARK  8 active torsions:
REMARK  status: ('A' for Active; 'I' for Inactive)
REMARK    1  A    between atoms: C_1  and  C_2
REMARK    2  A    between atoms: C_2  and  O_3
REMARK    3  A    between atoms: C_2  and  C_14
REMARK    4  A    between atoms: O_3  and  C_4
REMARK    5  A    between atoms: C_7  and  C_8
REMARK    6  A    between atoms: C_19  and  O_20
REMARK    7  A    between atoms: O_20  and  C_21
REMARK    8  A    between atoms: N_25  and  C_26
REMARK                            x       y       z     vdW  Elec       q    Type
REMARK                         _______ _______ _______ _____ _____    ______ ____
ROOT
ATOM      1  C   UNL     1      44.101   7.721  11.060  0.00  0.00    +0.000 C 
ATOM      2  C   UNL     1      44.296   6.417  11.761  0.00  0.00    +0.000 C 
ENDROOT
BRANCH   2   3
ATOM      3  C   UNL     1      45.455   6.148  12.630  0.00  0.00    +0.000 A 
ATOM      4  C   UNL     1      45.702   4.894  13.202  0.00  0.00    +0.000 A 
ATOM      5  C   UNL     1      46.848   4.683  13.969  0.00  0.00    +0.000 A 
ATOM      6  F   UNL     1      47.072   3.465  14.483  0.00  0.00    +0.000 F 
ATOM      7  C   UNL     1      47.763   5.700  14.202  0.00  0.00    +0.000 A 
ATOM      8  C   UNL     1      47.514   6.959  13.670  0.00  0.00    +0.000 A 
ATOM      9  C   UNL     1      46.384   7.171  12.873  0.00  0.00    +0.000 A 
BRANCH   8  10
ATOM     10  O   UNL     1      48.448   7.946  13.889  0.00  0.00    +0.000 OA
BRANCH  10  11
ATOM     11  C   UNL     1      49.289   8.303  12.914  0.00  0.00    +0.000 A 
ATOM     12  C   UNL     1      49.895   7.640  11.864  0.00  0.00    +0.000 A 
ATOM     13  N   UNL     1      50.717   8.478  11.155  0.00  0.00    +0.000 NA
ATOM     14  C   UNL     1      50.604   9.647  11.742  0.00  0.00    +0.000 A 
ATOM     15  N   UNL     1      49.740   9.594  12.798  0.00  0.00    +0.000 N 
ATOM     16  C   UNL     1      49.410  10.694  13.668  0.00  0.00    +0.000 C 
ENDBRANCH  10  11
ENDBRANCH   8  10
ENDBRANCH   2   3
BRANCH   2  17
ATOM     17  O   UNL     1      43.664   5.310  11.209  0.00  0.00    +0.000 OA
BRANCH  17  18
ATOM     18  C   UNL     1      44.375   4.512  10.335  0.00  0.00    +0.000 A 
ATOM     19  C   UNL     1      45.153   5.036   9.295  0.00  0.00    +0.000 A 
ATOM     20  C   UNL     1      45.823   4.184   8.409  0.00  0.00    +0.000 A 
ATOM     21  C   UNL     1      45.734   2.797   8.556  0.00  0.00    +0.000 A 
ATOM     22  C   UNL     1      44.938   2.269   9.582  0.00  0.00    +0.000 A 
ATOM     23  C   UNL     1      44.249   3.123  10.457  0.00  0.00    +0.000 A 
ATOM     24 CL   UNL     1      43.237   2.409  11.658  0.00  0.00    +0.000 Cl
BRANCH  21  25
ATOM     25  C   UNL     1      46.450   1.834   7.671  0.00  0.00    +0.000 C 
ATOM     26  N   UNL     1      46.942   2.278   6.471  0.00  0.00    +0.000 N 
ATOM     27  O   UNL     1      46.606   0.662   7.994  0.00  0.00    +0.000 OA
ATOM     28  H   UNL     1      46.808   3.198   6.088  0.00  0.00    +0.000 HD
ATOM     29  H   UNL     1      47.403   1.588   5.892  0.00  0.00    +0.000 HD
ENDBRANCH  21  25
ENDBRANCH  17  18
ENDBRANCH   2  17
TORSDOF 6
ENDMDL
MODEL 9
REMARK VINA RESULT:    -6.912      2.057      3.008
REMARK INTER + INTRA:          -9.789
REMARK INTER:                  -9.057
REMARK INTRA:                  -0.732
REMARK UNBOUND:                -0.452
REMARK  Name = 
REMARK  8 active torsions:
REMARK  status: ('A' for Active; 'I' for Inactive)
REMARK    1  A    between atoms: C_1  and  C_2
REMARK    2  A    between atoms: C_2  and  O_3
REMARK    3  A    between atoms: C_2  and  C_14
REMARK    4  A    between atoms: O_3  and  C_4
REMARK    5  A    between atoms: C_7  and  C_8
REMARK    6  A    between atoms: C_19  and  O_20
REMARK    7  A    between atoms: O_20  and  C_21
REMARK    8  A    between atoms: N_25  and  C_26
REMARK                            x       y       z     vdW  Elec       q    Type
REMARK                         _______ _______ _______ _____ _____    ______ ____
ROOT
ATOM      1  C   UNL     1      45.082   9.193  11.932  0.00  0.00    +0.000 C 
ATOM      2  C   UNL     1      45.658   8.060  12.715  0.00  0.00    +0.000 C 
ENDROOT
BRANCH   2   3
ATOM      3  C   UNL     1      47.107   7.889  12.918  0.00  0.00    +0.000 A 
ATOM      4  C   UNL     1      48.067   8.537  12.131  0.00  0.00    +0.000 A 
ATOM      5  C   UNL     1      49.425   8.383  12.408  0.00  0.00    +0.000 A 
ATOM      6  F   UNL     1      50.322   9.037  11.655  0.00  0.00    +0.000 F 
ATOM      7  C   UNL     1      49.867   7.580  13.450  0.00  0.00    +0.000 A 
ATOM      8  C   UNL     1      48.928   6.903  14.218  0.00  0.00    +0.000 A 
ATOM      9  C   UNL     1      47.562   7.078  13.967  0.00  0.00    +0.000 A 
BRANCH   8  10
ATOM     10  O   UNL     1      49.386   6.135  15.264  0.00  0.00    +0.000 OA
BRANCH  10  11
ATOM     11  C   UNL     1      48.839   6.257  16.477  0.00  0.00    +0.000 A 
ATOM     12  C   UNL     1      48.843   7.241  17.448  0.00  0.00    +0.000 A 
ATOM     13  N   UNL     1      48.137   6.849  18.557  0.00  0.00    +0.000 NA
ATOM     14  C   UNL     1      47.684   5.651  18.268  0.00  0.00    +0.000 A 
ATOM     15  N   UNL     1      48.068   5.259  17.017  0.00  0.00    +0.000 N 
ATOM     16  C   UNL     1      47.760   3.993  16.403  0.00  0.00    +0.000 C 
ENDBRANCH  10  11
ENDBRANCH   8  10
ENDBRANCH   2   3
BRANCH   2  17
ATOM     17  O   UNL     1      44.876   6.917  12.827  0.00  0.00    +0.000 OA
BRANCH  17  18
ATOM     18  C   UNL     1      44.922   5.984  11.810  0.00  0.00    +0.000 A 
ATOM     19  C   UNL     1      45.701   6.158  10.660  0.00  0.00    +0.000 A 
ATOM     20  C   UNL     1      45.684   5.202   9.637  0.00  0.00    +0.000 A 
ATOM     21  C   UNL     1      44.894   4.055   9.754  0.00  0.00    +0.000 A 
ATOM     22  C   UNL     1      44.097   3.888  10.894  0.00  0.00    +0.000 A 
ATOM     23  C   UNL     1      44.098   4.857  11.910  0.00  0.00    +0.000 A 
ATOM     24 CL   UNL     1      43.045   4.622  13.256  0.00  0.00    +0.000 Cl
BRANCH  21  25
ATOM     25  C   UNL     1      44.856   2.981   8.721  0.00  0.00    +0.000 C 
ATOM     26  N   UNL     1      44.673   1.682   9.122  0.00  0.00    +0.000 N 
ATOM     27  O   UNL     1      44.986   3.234   7.528  0.00  0.00    +0.000 OA
ATOM     28  H   UNL     1      44.624   1.366  10.076  0.00  0.00    +0.000 HD
ATOM     29  H   UNL     1      44.674   0.982   8.391  0.00  0.00    +0.000 HD
ENDBRANCH  21  25
ENDBRANCH  17  18
ENDBRANCH   2  17
TORSDOF 6
ENDMDL
