MODEL 1
REMARK VINA RESULT:    -8.230      0.000      0.000
REMARK INTER + INTRA:         -11.743
REMARK INTER:                 -11.117
REMARK INTRA:                  -0.626
REMARK UNBOUND:                -0.626
REMARK  Name = 
REMARK  8 active torsions:
REMARK  status: ('A' for Active; 'I' for Inactive)
REMARK    1  A    between atoms: C_1  and  C_2
REMARK    2  A    between atoms: N_4  and  C_5
REMARK    3  A    between atoms: C_5  and  C_6
REMARK    4  A    between atoms: C_6  and  C_7
REMARK    5  A    between atoms: C_11  and  O_12
REMARK    6  A    between atoms: O_12  and  C_13
REMARK    7  A    between atoms: N_15  and  C_16
REMARK    8  A    between atoms: C_21  and  C_22
REMARK                            x       y       z     vdW  Elec       q    Type
REMARK                         _______ _______ _______ _____ _____    ______ ____
ROOT
ATOM      1  C   UNL     1      44.015   3.168  10.609  0.00  0.00    +0.000 C 
ENDROOT
BRANCH   1   5
ATOM      2  C   UNL     1      46.587   0.218   7.831  0.00  0.00    +0.000 C 
ATOM      3  C   UNL     1      46.154   1.654   8.031  0.00  0.00    +0.000 C 
ATOM      4  N   UNL     1      45.340   1.712   9.129  0.00  0.00    +0.000 NA
ATOM      5  N   UNL     1      44.880   3.074   9.437  0.00  0.00    +0.000 N 
ATOM      6  C   UNL     1      45.271   4.144   8.666  0.00  0.00    +0.000 C 
ATOM      7  C   UNL     1      46.071   4.017   7.606  0.00  0.00    +0.000 C 
ATOM      8  C   UNL     1      46.565   2.686   7.227  0.00  0.00    +0.000 C 
BRANCH   8   9
ATOM      9  C   UNL     1      47.490   2.678   6.029  0.00  0.00    +0.000 C 
ATOM     10  N   UNL     1      48.816   2.444   6.203  0.00  0.00    +0.000 N 
ATOM     11  O   UNL     1      47.085   2.820   4.872  0.00  0.00    +0.000 OA
ATOM     12  H   UNL     1      49.206   2.198   7.094  0.00  0.00    +0.000 HD
ATOM     13  H   UNL     1      49.385   2.384   5.375  0.00  0.00    +0.000 HD
ENDBRANCH   8   9
ENDBRANCH   1   5
BRANCH   1  14
ATOM     14  C   UNL     1      43.977   4.598  11.168  0.00  0.00    +0.000 C 
BRANCH  14  15
ATOM     15  C   UNL     1      45.145   4.970  12.065  0.00  0.00    +0.000 A 
ATOM     16  C   UNL     1      45.986   6.031  11.702  0.00  0.00    +0.000 A 
ATOM     17  C   UNL     1      47.054   6.404  12.524  0.00  0.00    +0.000 A 
ATOM     18  C   UNL     1      47.311   5.718  13.718  0.00  0.00    +0.000 A 
ATOM     19  C   UNL     1      46.506   4.635  14.066  0.00  0.00    +0.000 A 
ATOM     20  C   UNL     1      45.442   4.264  13.235  0.00  0.00    +0.000 A 
BRANCH  19  21
ATOM     21  O   UNL     1      46.593   3.881  15.207  0.00  0.00    +0.000 OA
BRANCH  21  22
ATOM     22  C   UNL     1      47.666   4.090  16.141  0.00  0.00    +0.000 C 
ATOM     23  C   UNL     1      48.331   2.859  16.798  0.00  0.00    +0.000 C 
ATOM     24  N   UNL     1      48.212   3.497  18.133  0.00  0.00    +0.000 NA
ATOM     25  C   UNL     1      49.434   4.224  18.472  0.00  0.00    +0.000 C 
ATOM     26  C   UNL     1      47.201   4.427  17.584  0.00  0.00    +0.000 C 
ENDBRANCH  21  22
ENDBRANCH  19  21
ENDBRANCH  14  15
ENDBRANCH   1  14
TORSDOF 6
ENDMDL
MODEL 2
REMARK VINA RESULT:    -7.139      2.754      4.023
REMARK INTER + INTRA:         -10.269
REMARK INTER:                  -9.659
REMARK INTRA:                  -0.610
REMARK UNBOUND:                -0.626
REMARK  Name = 
REMARK  8 active torsions:
REMARK  status: ('A' for Active; 'I' for Inactive)
REMARK    1  A    between atoms: C_1  and  C_2
REMARK    2  A    between atoms: N_4  and  C_5
REMARK    3  A    between atoms: C_5  and  C_6
REMARK    4  A    between atoms: C_6  and  C_7
REMARK    5  A    between atoms: C_11  and  O_12
REMARK    6  A    between atoms: O_12  and  C_13
REMARK    7  A    between atoms: N_15  and  C_16
REMARK    8  A    between atoms: C_21  and  C_22
REMARK                            x       y       z     vdW  Elec       q    Type
REMARK                         _______ _______ _______ _____ _____    ______ ____
ROOT
ATOM      1  C   UNL     1      43.985   3.584  10.551  0.00  0.00    +0.000 C 
ENDROOT
BRANCH   1   5
ATOM      2  C   UNL     1      46.389   0.358   7.935  0.00  0.00    +0.000 C 
ATOM      3  C   UNL     1      46.075   1.829   8.087  0.00  0.00    +0.000 C 
ATOM      4  N   UNL     1      45.231   1.984   9.153  0.00  0.00    +0.000 NA
ATOM      5  N   UNL     1      44.879   3.388   9.415  0.00  0.00    +0.000 N 
ATOM      6  C   UNL     1      45.390   4.401   8.636  0.00  0.00    +0.000 C 
ATOM      7  C   UNL     1      46.212   4.180   7.609  0.00  0.00    +0.000 C 
ATOM      8  C   UNL     1      46.602   2.803   7.278  0.00  0.00    +0.000 C 
BRANCH   8   9
ATOM      9  C   UNL     1      47.565   2.686   6.115  0.00  0.00    +0.000 C 
ATOM     10  N   UNL     1      48.872   2.402   6.350  0.00  0.00    +0.000 N 
ATOM     11  O   UNL     1      47.205   2.781   4.939  0.00  0.00    +0.000 OA
ATOM     12  H   UNL     1      49.220   2.188   7.266  0.00  0.00    +0.000 HD
ATOM     13  H   UNL     1      49.465   2.271   5.547  0.00  0.00    +0.000 HD
ENDBRANCH   8   9
ENDBRANCH   1   5
BRANCH   1  14
ATOM     14  C   UNL     1      44.066   5.020  11.091  0.00  0.00    +0.000 C 
BRANCH  14  15
ATOM     15  C   UNL     1      45.317   5.337  11.892  0.00  0.00    +0.000 A 
ATOM     16  C   UNL     1      45.590   4.618  13.063  0.00  0.00    +0.000 A 
ATOM     17  C   UNL     1      46.746   4.878  13.804  0.00  0.00    +0.000 A 
ATOM     18  C   UNL     1      47.648   5.870  13.398  0.00  0.00    +0.000 A 
ATOM     19  C   UNL     1      47.364   6.620  12.258  0.00  0.00    +0.000 A 
ATOM     20  C   UNL     1      46.201   6.357  11.524  0.00  0.00    +0.000 A 
BRANCH  19  21
ATOM     21  O   UNL     1      48.148   7.596  11.701  0.00  0.00    +0.000 OA
BRANCH  21  22
ATOM     22  C   UNL     1      48.059   8.956  12.159  0.00  0.00    +0.000 C 
ATOM     23  C   UNL     1      48.768  10.064  11.346  0.00  0.00    +0.000 C 
ATOM     24  N   UNL     1      49.368  10.604  12.591  0.00  0.00    +0.000 NA
ATOM     25  C   UNL     1      48.537  11.670  13.148  0.00  0.00    +0.000 C 
ATOM     26  C   UNL     1      49.077   9.323  13.273  0.00  0.00    +0.000 C 
ENDBRANCH  21  22
ENDBRANCH  19  21
ENDBRANCH  14  15
ENDBRANCH   1  14
TORSDOF 6
ENDMDL
MODEL 3
REMARK VINA RESULT:    -6.873      2.448      2.881
REMARK INTER + INTRA:          -9.910
REMARK INTER:                  -9.621
REMARK INTRA:                  -0.288
REMARK UNBOUND:                -0.626
REMARK  Name = 
REMARK  8 active torsions:
REMARK  status: ('A' for Active; 'I' for Inactive)
REMARK    1  A    between atoms: C_1  and  C_2
REMARK    2  A    between atoms: N_4  and  C_5
REMARK    3  A    between atoms: C_5  and  C_6
REMARK    4  A    between atoms: C_6  and  C_7
REMARK    5  A    between atoms: C_11  and  O_12
REMARK    6  A    between atoms: O_12  and  C_13
REMARK    7  A    between atoms: N_15  and  C_16
REMARK    8  A    between atoms: C_21  and  C_22
REMARK                            x       y       z     vdW  Elec       q    Type
REMARK                         _______ _______ _______ _____ _____    ______ ____
ROOT
ATOM      1  C   UNL     1      44.030   2.825  10.485  0.00  0.00    +0.000 C 
ENDROOT
BRANCH   1   5
ATOM      2  C   UNL     1      46.658  -0.098   7.732  0.00  0.00    +0.000 C 
ATOM      3  C   UNL     1      46.220   1.335   7.935  0.00  0.00    +0.000 C 
ATOM      4  N   UNL     1      45.385   1.383   9.018  0.00  0.00    +0.000 NA
ATOM      5  N   UNL     1      44.918   2.742   9.329  0.00  0.00    +0.000 N 
ATOM      6  C   UNL     1      45.324   3.820   8.575  0.00  0.00    +0.000 C 
ATOM      7  C   UNL     1      46.144   3.703   7.529  0.00  0.00    +0.000 C 
ATOM      8  C   UNL     1      46.647   2.375   7.149  0.00  0.00    +0.000 C 
BRANCH   8   9
ATOM      9  C   UNL     1      47.595   2.379   5.969  0.00  0.00    +0.000 C 
ATOM     10  N   UNL     1      47.449   3.309   4.991  0.00  0.00    +0.000 N 
ATOM     11  O   UNL     1      48.547   1.600   5.876  0.00  0.00    +0.000 OA
ATOM     12  H   UNL     1      46.778   4.053   5.052  0.00  0.00    +0.000 HD
ATOM     13  H   UNL     1      48.138   3.317   4.257  0.00  0.00    +0.000 HD
ENDBRANCH   8   9
ENDBRANCH   1   5
BRANCH   1  14
ATOM     14  C   UNL     1      44.759   3.381  11.717  0.00  0.00    +0.000 C 
BRANCH  14  15
ATOM     15  C   UNL     1      45.018   4.877  11.691  0.00  0.00    +0.000 A 
ATOM     16  C   UNL     1      43.936   5.768  11.654  0.00  0.00    +0.000 A 
ATOM     17  C   UNL     1      44.152   7.149  11.652  0.00  0.00    +0.000 A 
ATOM     18  C   UNL     1      45.453   7.670  11.674  0.00  0.00    +0.000 A 
ATOM     19  C   UNL     1      46.536   6.793  11.668  0.00  0.00    +0.000 A 
ATOM     20  C   UNL     1      46.311   5.411  11.665  0.00  0.00    +0.000 A 
BRANCH  19  21
ATOM     21  O   UNL     1      47.863   7.128  11.726  0.00  0.00    +0.000 OA
BRANCH  21  22
ATOM     22  C   UNL     1      48.635   6.855  12.909  0.00  0.00    +0.000 C 
ATOM     23  C   UNL     1      47.919   6.848  14.279  0.00  0.00    +0.000 C 
ATOM     24  N   UNL     1      48.980   7.717  14.846  0.00  0.00    +0.000 NA
ATOM     25  C   UNL     1      50.021   6.916  15.487  0.00  0.00    +0.000 C 
ATOM     26  C   UNL     1      49.394   8.086  13.474  0.00  0.00    +0.000 C 
ENDBRANCH  21  22
ENDBRANCH  19  21
ENDBRANCH  14  15
ENDBRANCH   1  14
TORSDOF 6
ENDMDL
MODEL 4
REMARK VINA RESULT:    -6.573      2.300      8.584
REMARK INTER + INTRA:          -9.504
REMARK INTER:                  -8.825
REMARK INTRA:                  -0.679
REMARK UNBOUND:                -0.626
REMARK  Name = 
REMARK  8 active torsions:
REMARK  status: ('A' for Active; 'I' for Inactive)
REMARK    1  A    between atoms: C_1  and  C_2
REMARK    2  A    between atoms: N_4  and  C_5
REMARK    3  A    between atoms: C_5  and  C_6
REMARK    4  A    between atoms: C_6  and  C_7
REMARK    5  A    between atoms: C_11  and  O_12
REMARK    6  A    between atoms: O_12  and  C_13
REMARK    7  A    between atoms: N_15  and  C_16
REMARK    8  A    between atoms: C_21  and  C_22
REMARK                            x       y       z     vdW  Elec       q    Type
REMARK                         _______ _______ _______ _____ _____    ______ ____
ROOT
ATOM      1  C   UNL     1      47.624   5.630  13.024  0.00  0.00    +0.000 C 
ENDROOT
BRANCH   1   5
ATOM      2  C   UNL     1      49.758   6.818  17.155  0.00  0.00    +0.000 C 
ATOM      3  C   UNL     1      48.733   5.907  16.519  0.00  0.00    +0.000 C 
ATOM      4  N   UNL     1      48.665   6.198  15.184  0.00  0.00    +0.000 NA
ATOM      5  N   UNL     1      47.713   5.347  14.453  0.00  0.00    +0.000 N 
ATOM      6  C   UNL     1      47.000   4.366  15.103  0.00  0.00    +0.000 C 
ATOM      7  C   UNL     1      47.115   4.133  16.411  0.00  0.00    +0.000 C 
ATOM      8  C   UNL     1      48.039   4.949  17.212  0.00  0.00    +0.000 C 
BRANCH   8   9
ATOM      9  C   UNL     1      48.106   4.566  18.675  0.00  0.00    +0.000 C 
ATOM     10  N   UNL     1      48.509   3.318  19.026  0.00  0.00    +0.000 N 
ATOM     11  O   UNL     1      47.863   5.362  19.585  0.00  0.00    +0.000 OA
ATOM     12  H   UNL     1      48.841   2.651  18.355  0.00  0.00    +0.000 HD
ATOM     13  H   UNL     1      48.600   3.124  20.010  0.00  0.00    +0.000 HD
ENDBRANCH   8   9
ENDBRANCH   1   5
BRANCH   1  14
ATOM     14  C   UNL     1      46.376   6.460  12.690  0.00  0.00    +0.000 C 
BRANCH  14  15
ATOM     15  C   UNL     1      45.165   5.655  12.253  0.00  0.00    +0.000 A 
ATOM     16  C   UNL     1      43.900   5.973  12.766  0.00  0.00    +0.000 A 
ATOM     17  C   UNL     1      42.769   5.259  12.360  0.00  0.00    +0.000 A 
ATOM     18  C   UNL     1      42.879   4.204  11.444  0.00  0.00    +0.000 A 
ATOM     19  C   UNL     1      44.138   3.853  10.961  0.00  0.00    +0.000 A 
ATOM     20  C   UNL     1      45.267   4.570  11.376  0.00  0.00    +0.000 A 
BRANCH  19  21
ATOM     21  O   UNL     1      44.422   2.881  10.038  0.00  0.00    +0.000 OA
BRANCH  21  22
ATOM     22  C   UNL     1      45.562   3.007   9.170  0.00  0.00    +0.000 C 
ATOM     23  C   UNL     1      45.361   3.611   7.761  0.00  0.00    +0.000 C 
ATOM     24  N   UNL     1      46.128   2.490   7.163  0.00  0.00    +0.000 NA
ATOM     25  C   UNL     1      47.538   2.845   7.016  0.00  0.00    +0.000 C 
ATOM     26  C   UNL     1      45.926   1.707   8.402  0.00  0.00    +0.000 C 
ENDBRANCH  21  22
ENDBRANCH  19  21
ENDBRANCH  14  15
ENDBRANCH   1  14
TORSDOF 6
ENDMDL
MODEL 5
REMARK VINA RESULT:    -6.384      2.618      8.676
REMARK INTER + INTRA:          -9.248
REMARK INTER:                  -8.522
REMARK INTRA:                  -0.726
REMARK UNBOUND:                -0.626
REMARK  Name = 
REMARK  8 active torsions:
REMARK  status: ('A' for Active; 'I' for Inactive)
REMARK    1  A    between atoms: C_1  and  C_2
REMARK    2  A    between atoms: N_4  and  C_5
REMARK    3  A    between atoms: C_5  and  C_6
REMARK    4  A    between atoms: C_6  and  C_7
REMARK    5  A    between atoms: C_11  and  O_12
REMARK    6  A    between atoms: O_12  and  C_13
REMARK    7  A    between atoms: N_15  and  C_16
REMARK    8  A    between atoms: C_21  and  C_22
REMARK                            x       y       z     vdW  Elec       q    Type
REMARK                         _______ _______ _______ _____ _____    ______ ____
ROOT
ATOM      1  C   UNL     1      49.253   7.414  14.021  0.00  0.00    +0.000 C 
ENDROOT
BRANCH   1   5
ATOM      2  C   UNL     1      47.667   3.611  16.483  0.00  0.00    +0.000 C 
ATOM      3  C   UNL     1      48.219   5.014  16.608  0.00  0.00    +0.000 C 
ATOM      4  N   UNL     1      48.468   5.495  15.351  0.00  0.00    +0.000 NA
ATOM      5  N   UNL     1      48.984   6.872  15.349  0.00  0.00    +0.000 N 
ATOM      6  C   UNL     1      49.165   7.560  16.527  0.00  0.00    +0.000 C 
ATOM      7  C   UNL     1      48.899   7.031  17.722  0.00  0.00    +0.000 C 
ATOM      8  C   UNL     1      48.390   5.655  17.807  0.00  0.00    +0.000 C 
BRANCH   8   9
ATOM      9  C   UNL     1      48.094   5.182  19.215  0.00  0.00    +0.000 C 
ATOM     10  N   UNL     1      46.959   5.592  19.839  0.00  0.00    +0.000 N 
ATOM     11  O   UNL     1      48.816   4.383  19.816  0.00  0.00    +0.000 OA
ATOM     12  H   UNL     1      46.260   6.142  19.376  0.00  0.00    +0.000 HD
ATOM     13  H   UNL     1      46.770   5.205  20.748  0.00  0.00    +0.000 HD
ENDBRANCH   8   9
ENDBRANCH   1   5
BRANCH   1  14
ATOM     14  C   UNL     1      48.672   6.517  12.918  0.00  0.00    +0.000 C 
BRANCH  14  15
ATOM     15  C   UNL     1      47.286   6.906  12.436  0.00  0.00    +0.000 A 
ATOM     16  C   UNL     1      46.904   8.254  12.438  0.00  0.00    +0.000 A 
ATOM     17  C   UNL     1      45.640   8.636  11.977  0.00  0.00    +0.000 A 
ATOM     18  C   UNL     1      44.727   7.678  11.518  0.00  0.00    +0.000 A 
ATOM     19  C   UNL     1      45.081   6.331  11.551  0.00  0.00    +0.000 A 
ATOM     20  C   UNL     1      46.347   5.956  12.018  0.00  0.00    +0.000 A 
BRANCH  19  21
ATOM     21  O   UNL     1      44.331   5.274  11.108  0.00  0.00    +0.000 OA
BRANCH  21  22
ATOM     22  C   UNL     1      44.948   4.184  10.401  0.00  0.00    +0.000 C 
ATOM     23  C   UNL     1      44.856   4.151   8.858  0.00  0.00    +0.000 C 
ATOM     24  N   UNL     1      44.432   2.730   8.906  0.00  0.00    +0.000 NA
ATOM     25  C   UNL     1      45.582   1.839   8.767  0.00  0.00    +0.000 C 
ATOM     26  C   UNL     1      44.085   2.895  10.336  0.00  0.00    +0.000 C 
ENDBRANCH  21  22
ENDBRANCH  19  21
ENDBRANCH  14  15
ENDBRANCH   1  14
TORSDOF 6
ENDMDL
MODEL 6
REMARK VINA RESULT:    -6.369      3.719      7.613
REMARK INTER + INTRA:          -9.229
REMARK INTER:                  -8.427
REMARK INTRA:                  -0.802
REMARK UNBOUND:                -0.626
REMARK  Name = 
REMARK  8 active torsions:
REMARK  status: ('A' for Active; 'I' for Inactive)
REMARK    1  A    between atoms: C_1  and  C_2
REMARK    2  A    between atoms: N_4  and  C_5
REMARK    3  A    between atoms: C_5  and  C_6
REMARK    4  A    between atoms: C_6  and  C_7
REMARK    5  A    between atoms: C_11  and  O_12
REMARK    6  A    between atoms: O_12  and  C_13
REMARK    7  A    between atoms: N_15  and  C_16
REMARK    8  A    between atoms: C_21  and  C_22
REMARK                            x       y       z     vdW  Elec       q    Type
REMARK                         _______ _______ _______ _____ _____    ______ ____
ROOT
ATOM      1  C   UNL     1      48.730   8.136  13.918  0.00  0.00    +0.000 C 
ENDROOT
BRANCH   1   5
ATOM      2  C   UNL     1      46.834   3.728  13.788  0.00  0.00    +0.000 C 
ATOM      3  C   UNL     1      47.560   4.729  14.659  0.00  0.00    +0.000 C 
ATOM      4  N   UNL     1      47.794   5.857  13.920  0.00  0.00    +0.000 NA
ATOM      5  N   UNL     1      48.473   6.917  14.680  0.00  0.00    +0.000 N 
ATOM      6  C   UNL     1      48.805   6.736  16.003  0.00  0.00    +0.000 C 
ATOM      7  C   UNL     1      48.546   5.608  16.666  0.00  0.00    +0.000 C 
ATOM      8  C   UNL     1      47.877   4.498  15.972  0.00  0.00    +0.000 C 
BRANCH   8   9
ATOM      9  C   UNL     1      47.608   3.288  16.841  0.00  0.00    +0.000 C 
ATOM     10  N   UNL     1      48.606   2.400  17.087  0.00  0.00    +0.000 N 
ATOM     11  O   UNL     1      46.523   3.092  17.395  0.00  0.00    +0.000 OA
ATOM     12  H   UNL     1      49.548   2.551  16.776  0.00  0.00    +0.000 HD
ATOM     13  H   UNL     1      48.403   1.644  17.720  0.00  0.00    +0.000 HD
ENDBRANCH   8   9
ENDBRANCH   1   5
BRANCH   1  14
ATOM     14  C   UNL     1      48.315   7.979  12.448  0.00  0.00    +0.000 C 
BRANCH  14  15
ATOM     15  C   UNL     1      46.942   8.529  12.105  0.00  0.00    +0.000 A 
ATOM     16  C   UNL     1      46.725   9.914  12.127  0.00  0.00    +0.000 A 
ATOM     17  C   UNL     1      45.474  10.443  11.792  0.00  0.00    +0.000 A 
ATOM     18  C   UNL     1      44.412   9.599  11.442  0.00  0.00    +0.000 A 
ATOM     19  C   UNL     1      44.606   8.219  11.458  0.00  0.00    +0.000 A 
ATOM     20  C   UNL     1      45.859   7.698  11.799  0.00  0.00    +0.000 A 
BRANCH  19  21
ATOM     21  O   UNL     1      43.694   7.258  11.109  0.00  0.00    +0.000 OA
BRANCH  21  22
ATOM     22  C   UNL     1      43.873   5.894  11.528  0.00  0.00    +0.000 C 
ATOM     23  C   UNL     1      43.769   4.771  10.470  0.00  0.00    +0.000 C 
ATOM     24  N   UNL     1      42.860   4.007  11.360  0.00  0.00    +0.000 NA
ATOM     25  C   UNL     1      43.610   3.050  12.172  0.00  0.00    +0.000 C 
ATOM     26  C   UNL     1      42.602   5.240  12.136  0.00  0.00    +0.000 C 
ENDBRANCH  21  22
ENDBRANCH  19  21
ENDBRANCH  14  15
ENDBRANCH   1  14
TORSDOF 6
ENDMDL
MODEL 7
REMARK VINA RESULT:    -6.051      4.738      7.889
REMARK INTER + INTRA:          -8.800
REMARK INTER:                  -7.879
REMARK INTRA:                  -0.920
REMARK UNBOUND:                -0.626
REMARK  Name = 
REMARK  8 active torsions:
REMARK  status: ('A' for Active; 'I' for Inactive)
REMARK    1  A    between atoms: C_1  and  C_2
REMARK    2  A    between atoms: N_4  and  C_5
REMARK    3  A    between atoms: C_5  and  C_6
REMARK    4  A    between atoms: C_6  and  C_7
REMARK    5  A    between atoms: C_11  and  O_12
REMARK    6  A    between atoms: O_12  and  C_13
REMARK    7  A    between atoms: N_15  and  C_16
REMARK    8  A    between atoms: C_21  and  C_22
REMARK                            x       y       z     vdW  Elec       q    Type
REMARK                         _______ _______ _______ _____ _____    ______ ____
ROOT
ATOM      1  C   UNL     1      48.405   7.361  11.895  0.00  0.00    +0.000 C 
ENDROOT
BRANCH   1   5
ATOM      2  C   UNL     1      44.695   5.048   9.914  0.00  0.00    +0.000 C 
ATOM      3  C   UNL     1      45.419   5.327  11.212  0.00  0.00    +0.000 C 
ATOM      4  N   UNL     1      46.492   6.133  10.946  0.00  0.00    +0.000 NA
ATOM      5  N   UNL     1      47.257   6.495  12.148  0.00  0.00    +0.000 N 
ATOM      6  C   UNL     1      46.875   6.046  13.391  0.00  0.00    +0.000 C 
ATOM      7  C   UNL     1      45.813   5.261  13.582  0.00  0.00    +0.000 C 
ATOM      8  C   UNL     1      45.003   4.848  12.428  0.00  0.00    +0.000 C 
BRANCH   8   9
ATOM      9  C   UNL     1      43.806   3.988  12.778  0.00  0.00    +0.000 C 
ATOM     10  N   UNL     1      43.856   2.648  12.564  0.00  0.00    +0.000 N 
ATOM     11  O   UNL     1      42.791   4.443  13.310  0.00  0.00    +0.000 OA
ATOM     12  H   UNL     1      44.687   2.183  12.250  0.00  0.00    +0.000 HD
ATOM     13  H   UNL     1      43.065   2.105  12.869  0.00  0.00    +0.000 HD
ENDBRANCH   8   9
ENDBRANCH   1   5
BRANCH   1  14
ATOM     14  C   UNL     1      48.319   8.663  12.705  0.00  0.00    +0.000 C 
BRANCH  14  15
ATOM     15  C   UNL     1      47.414   9.729  12.115  0.00  0.00    +0.000 A 
ATOM     16  C   UNL     1      47.960  10.725  11.294  0.00  0.00    +0.000 A 
ATOM     17  C   UNL     1      47.141  11.703  10.722  0.00  0.00    +0.000 A 
ATOM     18  C   UNL     1      45.762  11.715  10.969  0.00  0.00    +0.000 A 
ATOM     19  C   UNL     1      45.216  10.755  11.819  0.00  0.00    +0.000 A 
ATOM     20  C   UNL     1      46.043   9.782  12.391  0.00  0.00    +0.000 A 
BRANCH  19  21
ATOM     21  O   UNL     1      43.892  10.598  12.137  0.00  0.00    +0.000 OA
BRANCH  21  22
ATOM     22  C   UNL     1      42.868  11.173  11.307  0.00  0.00    +0.000 C 
ATOM     23  C   UNL     1      41.439  11.319  11.881  0.00  0.00    +0.000 C 
ATOM     24  N   UNL     1      40.875  10.713  10.649  0.00  0.00    +0.000 NA
ATOM     25  C   UNL     1      40.497  11.746   9.688  0.00  0.00    +0.000 C 
ATOM     26  C   UNL     1      42.212  10.172  10.317  0.00  0.00    +0.000 C 
ENDBRANCH  21  22
ENDBRANCH  19  21
ENDBRANCH  14  15
ENDBRANCH   1  14
TORSDOF 6
ENDMDL
MODEL 8
REMARK VINA RESULT:    -5.893      3.163      5.134
REMARK INTER + INTRA:          -8.586
REMARK INTER:                  -7.783
REMARK INTRA:                  -0.803
REMARK UNBOUND:                -0.626
REMARK  Name = 
REMARK  8 active torsions:
REMARK  status: ('A' for Active; 'I' for Inactive)
REMARK    1  A    between atoms: C_1  and  C_2
REMARK    2  A    between atoms: N_4  and  C_5
REMARK    3  A    between atoms: C_5  and  C_6
REMARK    4  A    between atoms: C_6  and  C_7
REMARK    5  A    between atoms: C_11  and  O_12
REMARK    6  A    between atoms: O_12  and  C_13
REMARK    7  A    between atoms: N_15  and  C_16
REMARK    8  A    between atoms: C_21  and  C_22
REMARK                            x       y       z     vdW  Elec       q    Type
REMARK                         _______ _______ _______ _____ _____    ______ ____
ROOT
ATOM      1  C   UNL     1      47.397   7.962  12.335  0.00  0.00    +0.000 C 
ENDROOT
BRANCH   1   5
ATOM      2  C   UNL     1      45.336   4.821   9.349  0.00  0.00    +0.000 C 
ATOM      3  C   UNL     1      45.470   5.235  10.797  0.00  0.00    +0.000 C 
ATOM      4  N   UNL     1      46.319   6.306  10.865  0.00  0.00    +0.000 NA
ATOM      5  N   UNL     1      46.501   6.815  12.233  0.00  0.00    +0.000 N 
ATOM      6  C   UNL     1      45.847   6.235  13.296  0.00  0.00    +0.000 C 
ATOM      7  C   UNL     1      45.029   5.190  13.159  0.00  0.00    +0.000 C 
ATOM      8  C   UNL     1      44.802   4.619  11.824  0.00  0.00    +0.000 C 
BRANCH   8   9
ATOM      9  C   UNL     1      43.828   3.460  11.796  0.00  0.00    +0.000 C 
ATOM     10  N   UNL     1      44.051   2.374  12.581  0.00  0.00    +0.000 N 
ATOM     11  O   UNL     1      42.792   3.475  11.126  0.00  0.00    +0.000 OA
ATOM     12  H   UNL     1      44.802   2.335  13.244  0.00  0.00    +0.000 HD
ATOM     13  H   UNL     1      43.347   1.655  12.579  0.00  0.00    +0.000 HD
ENDBRANCH   8   9
ENDBRANCH   1   5
BRANCH   1  14
ATOM     14  C   UNL     1      48.865   7.551  12.144  0.00  0.00    +0.000 C 
BRANCH  14  15
ATOM     15  C   UNL     1      49.728   7.649  13.389  0.00  0.00    +0.000 A 
ATOM     16  C   UNL     1      51.016   8.195  13.298  0.00  0.00    +0.000 A 
ATOM     17  C   UNL     1      51.819   8.315  14.436  0.00  0.00    +0.000 A 
ATOM     18  C   UNL     1      51.358   7.881  15.686  0.00  0.00    +0.000 A 
ATOM     19  C   UNL     1      50.096   7.299  15.779  0.00  0.00    +0.000 A 
ATOM     20  C   UNL     1      49.300   7.177  14.634  0.00  0.00    +0.000 A 
BRANCH  19  21
ATOM     21  O   UNL     1      49.478   6.858  16.920  0.00  0.00    +0.000 OA
BRANCH  21  22
ATOM     22  C   UNL     1      48.670   5.669  16.901  0.00  0.00    +0.000 C 
ATOM     23  C   UNL     1      47.722   5.394  18.091  0.00  0.00    +0.000 C 
ATOM     24  N   UNL     1      48.223   3.999  18.178  0.00  0.00    +0.000 NA
ATOM     25  C   UNL     1      47.372   3.093  17.408  0.00  0.00    +0.000 C 
ATOM     26  C   UNL     1      49.407   4.388  17.380  0.00  0.00    +0.000 C 
ENDBRANCH  21  22
ENDBRANCH  19  21
ENDBRANCH  14  15
ENDBRANCH   1  14
TORSDOF 6
ENDMDL
MODEL 9
REMARK VINA RESULT:    -5.856      3.393      4.816
REMARK INTER + INTRA:          -8.536
REMARK INTER:                  -7.822
REMARK INTRA:                  -0.714
REMARK UNBOUND:                -0.626
REMARK  Name = 
REMARK  8 active torsions:
REMARK  status: ('A' for Active; 'I' for Inactive)
REMARK    1  A    between atoms: C_1  and  C_2
REMARK    2  A    between atoms: N_4  and  C_5
REMARK    3  A    between atoms: C_5  and  C_6
REMARK    4  A    between atoms: C_6  and  C_7
REMARK    5  A    between atoms: C_11  and  O_12
REMARK    6  A    between atoms: O_12  and  C_13
REMARK    7  A    between atoms: N_15  and  C_16
REMARK    8  A    between atoms: C_21  and  C_22
REMARK                            x       y       z     vdW  Elec       q    Type
REMARK                         _______ _______ _______ _____ _____    ______ ____
ROOT
ATOM      1  C   UNL     1      45.649   8.186  12.905  0.00  0.00    +0.000 C 
ENDROOT
BRANCH   1   5
ATOM      2  C   UNL     1      46.229   3.435  13.260  0.00  0.00    +0.000 C 
ATOM      3  C   UNL     1      45.425   4.529  12.594  0.00  0.00    +0.000 C 
ATOM      4  N   UNL     1      45.877   5.737  13.050  0.00  0.00    +0.000 NA
ATOM      5  N   UNL     1      45.182   6.882  12.443  0.00  0.00    +0.000 N 
ATOM      6  C   UNL     1      44.190   6.693  11.508  0.00  0.00    +0.000 C 
ATOM      7  C   UNL     1      43.797   5.483  11.106  0.00  0.00    +0.000 C 
ATOM      8  C   UNL     1      44.437   4.288  11.674  0.00  0.00    +0.000 C 
BRANCH   8   9
ATOM      9  C   UNL     1      43.928   2.978  11.112  0.00  0.00    +0.000 C 
ATOM     10  N   UNL     1      44.604   2.370  10.104  0.00  0.00    +0.000 N 
ATOM     11  O   UNL     1      42.943   2.393  11.571  0.00  0.00    +0.000 OA
ATOM     12  H   UNL     1      45.480   2.715   9.758  0.00  0.00    +0.000 HD
ATOM     13  H   UNL     1      44.268   1.470   9.803  0.00  0.00    +0.000 HD
ENDBRANCH   8   9
ENDBRANCH   1   5
BRANCH   1  14
ATOM     14  C   UNL     1      46.874   8.660  12.109  0.00  0.00    +0.000 C 
BRANCH  14  15
ATOM     15  C   UNL     1      48.185   8.648  12.875  0.00  0.00    +0.000 A 
ATOM     16  C   UNL     1      49.096   9.699  12.707  0.00  0.00    +0.000 A 
ATOM     17  C   UNL     1      50.298   9.719  13.420  0.00  0.00    +0.000 A 
ATOM     18  C   UNL     1      50.622   8.682  14.305  0.00  0.00    +0.000 A 
ATOM     19  C   UNL     1      49.742   7.611  14.447  0.00  0.00    +0.000 A 
ATOM     20  C   UNL     1      48.542   7.597  13.726  0.00  0.00    +0.000 A 
BRANCH  19  21
ATOM     21  O   UNL     1      49.881   6.540  15.291  0.00  0.00    +0.000 OA
BRANCH  21  22
ATOM     22  C   UNL     1      48.995   6.372  16.411  0.00  0.00    +0.000 C 
ATOM     23  C   UNL     1      49.553   5.759  17.716  0.00  0.00    +0.000 C 
ATOM     24  N   UNL     1      48.399   4.828  17.781  0.00  0.00    +0.000 NA
ATOM     25  C   UNL     1      47.329   5.384  18.607  0.00  0.00    +0.000 C 
ATOM     26  C   UNL     1      48.126   5.087  16.350  0.00  0.00    +0.000 C 
ENDBRANCH  21  22
ENDBRANCH  19  21
ENDBRANCH  14  15
ENDBRANCH   1  14
TORSDOF 6
ENDMDL
