MODEL 1
REMARK VINA RESULT:    -8.580      0.000      0.000
REMARK INTER + INTRA:         -12.166
REMARK INTER:                 -11.087
REMARK INTRA:                  -1.079
REMARK UNBOUND:                -1.079
REMARK  Name = 
REMARK  5 active torsions:
REMARK  status: ('A' for Active; 'I' for Inactive)
REMARK    1  A    between atoms: C_2  and  C_4
REMARK    2  A    between atoms: C_7  and  C_8
REMARK    3  A    between atoms: C_8  and  C_9
REMARK    4  A    between atoms: C_9  and  C_10
REMARK    5  A    between atoms: C_14  and  C_15
REMARK                            x       y       z     vdW  Elec       q    Type
REMARK                         _______ _______ _______ _____ _____    ______ ____
ROOT
ATOM      1  C   UNL     1      44.100   4.126  11.871  0.00  0.00    +0.000 C 
ENDROOT
BRANCH   1   2
ATOM      2  C   UNL     1      45.364   4.747  12.402  0.00  0.00    +0.000 A 
ATOM      3  C   UNL     1      46.213   4.052  13.252  0.00  0.00    +0.000 A 
ATOM      4  N   UNL     1      47.358   4.559  13.750  0.00  0.00    +0.000 NA
ATOM      5  C   UNL     1      47.671   5.829  13.387  0.00  0.00    +0.000 A 
ATOM      6  C   UNL     1      46.915   6.634  12.532  0.00  0.00    +0.000 A 
ATOM      7  C   UNL     1      45.742   6.045  12.033  0.00  0.00    +0.000 A 
BRANCH   6   8
ATOM      8  C   UNL     1      47.315   8.016  12.178  0.00  0.00    +0.000 A 
ATOM      9  C   UNL     1      48.632   8.330  11.795  0.00  0.00    +0.000 A 
ATOM     10  C   UNL     1      49.006   9.637  11.466  0.00  0.00    +0.000 A 
ATOM     11  C   UNL     1      48.066  10.662  11.500  0.00  0.00    +0.000 A 
ATOM     12  C   UNL     1      46.757  10.383  11.871  0.00  0.00    +0.000 A 
ATOM     13  C   UNL     1      46.389   9.077  12.213  0.00  0.00    +0.000 A 
ENDBRANCH   6   8
ENDBRANCH   1   2
BRANCH   1  14
ATOM     14  C   UNL     1      43.836   4.532  10.419  0.00  0.00    +0.000 C 
BRANCH  14  18
ATOM     15  C   UNL     1      46.501   2.505   7.686  0.00  0.00    +0.000 A 
ATOM     16  C   UNL     1      46.405   3.901   7.666  0.00  0.00    +0.000 A 
ATOM     17  C   UNL     1      45.532   4.556   8.540  0.00  0.00    +0.000 A 
ATOM     18  C   UNL     1      44.749   3.826   9.445  0.00  0.00    +0.000 A 
ATOM     19  C   UNL     1      44.823   2.426   9.432  0.00  0.00    +0.000 A 
ATOM     20  C   UNL     1      45.691   1.768   8.557  0.00  0.00    +0.000 A 
BRANCH  15  22
ATOM     21  N   UNL     1      48.504   2.474   6.302  0.00  0.00    +0.000 N 
ATOM     22  C   UNL     1      47.437   1.772   6.796  0.00  0.00    +0.000 C 
ATOM     23  O   UNL     1      47.294   0.582   6.546  0.00  0.00    +0.000 OA
ATOM     24  H   UNL     1      49.196   1.937   5.797  0.00  0.00    +0.000 HD
ATOM     25  H   UNL     1      48.794   3.357   6.699  0.00  0.00    +0.000 HD
ENDBRANCH  15  22
ENDBRANCH  14  18
ENDBRANCH   1  14
TORSDOF 5
ENDMDL
MODEL 2
REMARK VINA RESULT:    -8.418      1.392      1.971
REMARK INTER + INTRA:         -11.957
REMARK INTER:                 -10.940
REMARK INTRA:                  -1.017
REMARK UNBOUND:                -1.079
REMARK  Name = 
REMARK  5 active torsions:
REMARK  status: ('A' for Active; 'I' for Inactive)
REMARK    1  A    between atoms: C_2  and  C_4
REMARK    2  A    between atoms: C_7  and  C_8
REMARK    3  A    between atoms: C_8  and  C_9
REMARK    4  A    between atoms: C_9  and  C_10
REMARK    5  A    between atoms: C_14  and  C_15
REMARK                            x       y       z     vdW  Elec       q    Type
REMARK                         _______ _______ _______ _____ _____    ______ ____
ROOT
ATOM      1  C   UNL     1      43.975   5.391  10.935  0.00  0.00    +0.000 C 
ENDROOT
BRANCH   1   2
ATOM      2  C   UNL     1      45.072   5.326  11.964  0.00  0.00    +0.000 A 
ATOM      3  C   UNL     1      45.016   4.439  13.030  0.00  0.00    +0.000 A 
ATOM      4  N   UNL     1      45.972   4.336  13.974  0.00  0.00    +0.000 NA
ATOM      5  C   UNL     1      47.039   5.167  13.853  0.00  0.00    +0.000 A 
ATOM      6  C   UNL     1      47.228   6.096  12.827  0.00  0.00    +0.000 A 
ATOM      7  C   UNL     1      46.205   6.145  11.866  0.00  0.00    +0.000 A 
BRANCH   6   8
ATOM      8  C   UNL     1      48.417   6.975  12.756  0.00  0.00    +0.000 A 
ATOM      9  C   UNL     1      48.775   7.641  11.570  0.00  0.00    +0.000 A 
ATOM     10  C   UNL     1      49.902   8.468  11.507  0.00  0.00    +0.000 A 
ATOM     11  C   UNL     1      50.693   8.659  12.635  0.00  0.00    +0.000 A 
ATOM     12  C   UNL     1      50.363   8.017  13.822  0.00  0.00    +0.000 A 
ATOM     13  C   UNL     1      49.244   7.180  13.878  0.00  0.00    +0.000 A 
ENDBRANCH   6   8
ENDBRANCH   1   2
BRANCH   1  14
ATOM     14  C   UNL     1      43.646   4.007  10.370  0.00  0.00    +0.000 C 
BRANCH  14  18
ATOM     15  C   UNL     1      46.573   2.609   7.515  0.00  0.00    +0.000 A 
ATOM     16  C   UNL     1      45.977   1.709   8.406  0.00  0.00    +0.000 A 
ATOM     17  C   UNL     1      45.041   2.164   9.340  0.00  0.00    +0.000 A 
ATOM     18  C   UNL     1      44.687   3.520   9.391  0.00  0.00    +0.000 A 
ATOM     19  C   UNL     1      45.316   4.420   8.519  0.00  0.00    +0.000 A 
ATOM     20  C   UNL     1      46.255   3.969   7.589  0.00  0.00    +0.000 A 
BRANCH  15  22
ATOM     21  N   UNL     1      47.848   3.046   5.487  0.00  0.00    +0.000 N 
ATOM     22  C   UNL     1      47.549   2.161   6.488  0.00  0.00    +0.000 C 
ATOM     23  O   UNL     1      48.101   1.070   6.554  0.00  0.00    +0.000 OA
ATOM     24  H   UNL     1      48.600   2.777   4.865  0.00  0.00    +0.000 HD
ATOM     25  H   UNL     1      47.626   4.029   5.556  0.00  0.00    +0.000 HD
ENDBRANCH  15  22
ENDBRANCH  14  18
ENDBRANCH   1  14
TORSDOF 5
ENDMDL
MODEL 3
REMARK VINA RESULT:    -8.098      2.034      3.846
REMARK INTER + INTRA:         -11.544
REMARK INTER:                 -10.855
REMARK INTRA:                  -0.688
REMARK UNBOUND:                -1.079
REMARK  Name = 
REMARK  5 active torsions:
REMARK  status: ('A' for Active; 'I' for Inactive)
REMARK    1  A    between atoms: C_2  and  C_4
REMARK    2  A    between atoms: C_7  and  C_8
REMARK    3  A    between atoms: C_8  and  C_9
REMARK    4  A    between atoms: C_9  and  C_10
REMARK    5  A    between atoms: C_14  and  C_15
REMARK                            x       y       z     vdW  Elec       q    Type
REMARK                         _______ _______ _______ _____ _____    ______ ____
ROOT
ATOM      1  C   UNL     1      44.091   4.196  11.872  0.00  0.00    +0.000 C 
ENDROOT
BRANCH   1   2
ATOM      2  C   UNL     1      45.287   4.918  12.434  0.00  0.00    +0.000 A 
ATOM      3  C   UNL     1      45.849   6.007  11.782  0.00  0.00    +0.000 A 
ATOM      4  N   UNL     1      46.915   6.691  12.244  0.00  0.00    +0.000 NA
ATOM      5  C   UNL     1      47.452   6.263  13.414  0.00  0.00    +0.000 A 
ATOM      6  C   UNL     1      46.979   5.193  14.178  0.00  0.00    +0.000 A 
ATOM      7  C   UNL     1      45.859   4.530  13.653  0.00  0.00    +0.000 A 
BRANCH   6   8
ATOM      8  C   UNL     1      47.616   4.778  15.449  0.00  0.00    +0.000 A 
ATOM      9  C   UNL     1      48.473   5.636  16.162  0.00  0.00    +0.000 A 
ATOM     10  C   UNL     1      49.076   5.239  17.361  0.00  0.00    +0.000 A 
ATOM     11  C   UNL     1      48.826   3.973  17.882  0.00  0.00    +0.000 A 
ATOM     12  C   UNL     1      47.982   3.104  17.202  0.00  0.00    +0.000 A 
ATOM     13  C   UNL     1      47.392   3.499  15.997  0.00  0.00    +0.000 A 
ENDBRANCH   6   8
ENDBRANCH   1   2
BRANCH   1  14
ATOM     14  C   UNL     1      43.830   4.581  10.414  0.00  0.00    +0.000 C 
BRANCH  14  18
ATOM     15  C   UNL     1      46.466   2.478   7.712  0.00  0.00    +0.000 A 
ATOM     16  C   UNL     1      46.360   3.872   7.645  0.00  0.00    +0.000 A 
ATOM     17  C   UNL     1      45.497   4.551   8.509  0.00  0.00    +0.000 A 
ATOM     18  C   UNL     1      44.733   3.847   9.451  0.00  0.00    +0.000 A 
ATOM     19  C   UNL     1      44.817   2.448   9.486  0.00  0.00    +0.000 A 
ATOM     20  C   UNL     1      45.675   1.767   8.620  0.00  0.00    +0.000 A 
BRANCH  15  22
ATOM     21  N   UNL     1      48.507   2.381   6.388  0.00  0.00    +0.000 N 
ATOM     22  C   UNL     1      47.393   1.721   6.832  0.00  0.00    +0.000 C 
ATOM     23  O   UNL     1      47.201   0.545   6.550  0.00  0.00    +0.000 OA
ATOM     24  H   UNL     1      49.188   1.822   5.891  0.00  0.00    +0.000 HD
ATOM     25  H   UNL     1      48.827   3.239   6.814  0.00  0.00    +0.000 HD
ENDBRANCH  15  22
ENDBRANCH  14  18
ENDBRANCH   1  14
TORSDOF 5
ENDMDL
MODEL 4
REMARK VINA RESULT:    -7.951      3.179      6.737
REMARK INTER + INTRA:         -11.355
REMARK INTER:                 -10.344
REMARK INTRA:                  -1.010
REMARK UNBOUND:                -1.079
REMARK  Name = 
REMARK  5 active torsions:
REMARK  status: ('A' for Active; 'I' for Inactive)
REMARK    1  A    between atoms: C_2  and  C_4
REMARK    2  A    between atoms: C_7  and  C_8
REMARK    3  A    between atoms: C_8  and  C_9
REMARK    4  A    between atoms: C_9  and  C_10
REMARK    5  A    between atoms: C_14  and  C_15
REMARK                            x       y       z     vdW  Elec       q    Type
REMARK                         _______ _______ _______ _____ _____    ______ ____
ROOT
ATOM      1  C   UNL     1      43.969   6.322  11.509  0.00  0.00    +0.000 C 
ENDROOT
BRANCH   1   2
ATOM      2  C   UNL     1      44.018   4.896  11.027  0.00  0.00    +0.000 A 
ATOM      3  C   UNL     1      43.266   3.899  11.632  0.00  0.00    +0.000 A 
ATOM      4  N   UNL     1      43.270   2.610  11.236  0.00  0.00    +0.000 NA
ATOM      5  C   UNL     1      44.070   2.298  10.185  0.00  0.00    +0.000 A 
ATOM      6  C   UNL     1      44.866   3.203   9.479  0.00  0.00    +0.000 A 
ATOM      7  C   UNL     1      44.808   4.532   9.929  0.00  0.00    +0.000 A 
BRANCH   6   8
ATOM      8  C   UNL     1      45.720   2.793   8.340  0.00  0.00    +0.000 A 
ATOM      9  C   UNL     1      46.267   1.500   8.253  0.00  0.00    +0.000 A 
ATOM     10  C   UNL     1      47.076   1.118   7.178  0.00  0.00    +0.000 A 
ATOM     11  C   UNL     1      47.348   2.019   6.154  0.00  0.00    +0.000 A 
ATOM     12  C   UNL     1      46.820   3.303   6.210  0.00  0.00    +0.000 A 
ATOM     13  C   UNL     1      46.023   3.686   7.293  0.00  0.00    +0.000 A 
ENDBRANCH   6   8
ENDBRANCH   1   2
BRANCH   1  14
ATOM     14  C   UNL     1      44.731   6.501  12.824  0.00  0.00    +0.000 C 
BRANCH  14  18
ATOM     15  C   UNL     1      48.851   7.686  12.279  0.00  0.00    +0.000 A 
ATOM     16  C   UNL     1      47.818   8.581  11.976  0.00  0.00    +0.000 A 
ATOM     17  C   UNL     1      46.485   8.192  12.138  0.00  0.00    +0.000 A 
ATOM     18  C   UNL     1      46.169   6.909  12.609  0.00  0.00    +0.000 A 
ATOM     19  C   UNL     1      47.209   6.008  12.874  0.00  0.00    +0.000 A 
ATOM     20  C   UNL     1      48.541   6.391  12.707  0.00  0.00    +0.000 A 
BRANCH  15  22
ATOM     21  N   UNL     1      51.047   7.330  11.289  0.00  0.00    +0.000 N 
ATOM     22  C   UNL     1      50.280   8.069  12.149  0.00  0.00    +0.000 C 
ATOM     23  O   UNL     1      50.748   9.030  12.747  0.00  0.00    +0.000 OA
ATOM     24  H   UNL     1      51.983   7.674  11.119  0.00  0.00    +0.000 HD
ATOM     25  H   UNL     1      50.638   6.724  10.593  0.00  0.00    +0.000 HD
ENDBRANCH  15  22
ENDBRANCH  14  18
ENDBRANCH   1  14
TORSDOF 5
ENDMDL
MODEL 5
REMARK VINA RESULT:    -7.918      3.155      6.870
REMARK INTER + INTRA:         -11.311
REMARK INTER:                 -10.326
REMARK INTRA:                  -0.985
REMARK UNBOUND:                -1.079
REMARK  Name = 
REMARK  5 active torsions:
REMARK  status: ('A' for Active; 'I' for Inactive)
REMARK    1  A    between atoms: C_2  and  C_4
REMARK    2  A    between atoms: C_7  and  C_8
REMARK    3  A    between atoms: C_8  and  C_9
REMARK    4  A    between atoms: C_9  and  C_10
REMARK    5  A    between atoms: C_14  and  C_15
REMARK                            x       y       z     vdW  Elec       q    Type
REMARK                         _______ _______ _______ _____ _____    ______ ____
ROOT
ATOM      1  C   UNL     1      44.042   6.441  11.450  0.00  0.00    +0.000 C 
ENDROOT
BRANCH   1   2
ATOM      2  C   UNL     1      44.054   5.005  10.994  0.00  0.00    +0.000 A 
ATOM      3  C   UNL     1      43.281   4.038  11.621  0.00  0.00    +0.000 A 
ATOM      4  N   UNL     1      43.251   2.743  11.249  0.00  0.00    +0.000 NA
ATOM      5  C   UNL     1      44.040   2.392  10.202  0.00  0.00    +0.000 A 
ATOM      6  C   UNL     1      44.855   3.263   9.475  0.00  0.00    +0.000 A 
ATOM      7  C   UNL     1      44.831   4.601   9.900  0.00  0.00    +0.000 A 
BRANCH   6   8
ATOM      8  C   UNL     1      45.693   2.812   8.342  0.00  0.00    +0.000 A 
ATOM      9  C   UNL     1      46.021   3.670   7.276  0.00  0.00    +0.000 A 
ATOM     10  C   UNL     1      46.811   3.238   6.204  0.00  0.00    +0.000 A 
ATOM     11  C   UNL     1      47.303   1.938   6.180  0.00  0.00    +0.000 A 
ATOM     12  C   UNL     1      47.000   1.068   7.219  0.00  0.00    +0.000 A 
ATOM     13  C   UNL     1      46.198   1.498   8.281  0.00  0.00    +0.000 A 
ENDBRANCH   6   8
ENDBRANCH   1   2
BRANCH   1  14
ATOM     14  C   UNL     1      44.798   6.623  12.768  0.00  0.00    +0.000 C 
BRANCH  14  18
ATOM     15  C   UNL     1      48.850   7.969  12.099  0.00  0.00    +0.000 A 
ATOM     16  C   UNL     1      48.603   6.637  12.452  0.00  0.00    +0.000 A 
ATOM     17  C   UNL     1      47.293   6.205  12.682  0.00  0.00    +0.000 A 
ATOM     18  C   UNL     1      46.217   7.096  12.560  0.00  0.00    +0.000 A 
ATOM     19  C   UNL     1      46.478   8.436  12.243  0.00  0.00    +0.000 A 
ATOM     20  C   UNL     1      47.785   8.872  12.018  0.00  0.00    +0.000 A 
BRANCH  15  22
ATOM     21  N   UNL     1      51.180   7.518  11.555  0.00  0.00    +0.000 N 
ATOM     22  C   UNL     1      50.223   8.461  11.816  0.00  0.00    +0.000 C 
ATOM     23  O   UNL     1      50.485   9.656  11.772  0.00  0.00    +0.000 OA
ATOM     24  H   UNL     1      52.078   7.867  11.248  0.00  0.00    +0.000 HD
ATOM     25  H   UNL     1      50.943   6.565  11.319  0.00  0.00    +0.000 HD
ENDBRANCH  15  22
ENDBRANCH  14  18
ENDBRANCH   1  14
TORSDOF 5
ENDMDL
MODEL 6
REMARK VINA RESULT:    -7.732      3.427      7.324
REMARK INTER + INTRA:         -11.071
REMARK INTER:                 -10.446
REMARK INTRA:                  -0.625
REMARK UNBOUND:                -1.079
REMARK  Name = 
REMARK  5 active torsions:
REMARK  status: ('A' for Active; 'I' for Inactive)
REMARK    1  A    between atoms: C_2  and  C_4
REMARK    2  A    between atoms: C_7  and  C_8
REMARK    3  A    between atoms: C_8  and  C_9
REMARK    4  A    between atoms: C_9  and  C_10
REMARK    5  A    between atoms: C_14  and  C_15
REMARK                            x       y       z     vdW  Elec       q    Type
REMARK                         _______ _______ _______ _____ _____    ______ ____
ROOT
ATOM      1  C   UNL     1      44.898   6.542  11.737  0.00  0.00    +0.000 C 
ENDROOT
BRANCH   1   2
ATOM      2  C   UNL     1      44.584   5.195  11.143  0.00  0.00    +0.000 A 
ATOM      3  C   UNL     1      43.553   4.407  11.635  0.00  0.00    +0.000 A 
ATOM      4  N   UNL     1      43.228   3.197  11.136  0.00  0.00    +0.000 NA
ATOM      5  C   UNL     1      43.973   2.747  10.095  0.00  0.00    +0.000 A 
ATOM      6  C   UNL     1      45.026   3.441   9.496  0.00  0.00    +0.000 A 
ATOM      7  C   UNL     1      45.308   4.700  10.050  0.00  0.00    +0.000 A 
BRANCH   6   8
ATOM      8  C   UNL     1      45.801   2.889   8.361  0.00  0.00    +0.000 A 
ATOM      9  C   UNL     1      46.178   3.687   7.265  0.00  0.00    +0.000 A 
ATOM     10  C   UNL     1      46.907   3.160   6.193  0.00  0.00    +0.000 A 
ATOM     11  C   UNL     1      47.288   1.822   6.197  0.00  0.00    +0.000 A 
ATOM     12  C   UNL     1      46.933   1.010   7.267  0.00  0.00    +0.000 A 
ATOM     13  C   UNL     1      46.192   1.536   8.330  0.00  0.00    +0.000 A 
ENDBRANCH   6   8
ENDBRANCH   1   2
BRANCH   1  14
ATOM     14  C   UNL     1      46.407   6.770  11.858  0.00  0.00    +0.000 C 
BRANCH  14  18
ATOM     15  C   UNL     1      47.967   5.248  15.590  0.00  0.00    +0.000 A 
ATOM     16  C   UNL     1      48.470   6.439  15.053  0.00  0.00    +0.000 A 
ATOM     17  C   UNL     1      47.975   6.924  13.839  0.00  0.00    +0.000 A 
ATOM     18  C   UNL     1      46.972   6.228  13.149  0.00  0.00    +0.000 A 
ATOM     19  C   UNL     1      46.502   5.016  13.675  0.00  0.00    +0.000 A 
ATOM     20  C   UNL     1      46.998   4.527  14.886  0.00  0.00    +0.000 A 
BRANCH  15  22
ATOM     21  N   UNL     1      47.592   4.823  17.958  0.00  0.00    +0.000 N 
ATOM     22  C   UNL     1      48.444   4.715  16.892  0.00  0.00    +0.000 C 
ATOM     23  O   UNL     1      49.530   4.161  17.005  0.00  0.00    +0.000 OA
ATOM     24  H   UNL     1      47.878   4.351  18.806  0.00  0.00    +0.000 HD
ATOM     25  H   UNL     1      46.608   5.019  17.840  0.00  0.00    +0.000 HD
ENDBRANCH  15  22
ENDBRANCH  14  18
ENDBRANCH   1  14
TORSDOF 5
ENDMDL
MODEL 7
REMARK VINA RESULT:    -7.689      2.671      3.355
REMARK INTER + INTRA:         -11.015
REMARK INTER:                 -10.174
REMARK INTRA:                  -0.841
REMARK UNBOUND:                -1.079
REMARK  Name = 
REMARK  5 active torsions:
REMARK  status: ('A' for Active; 'I' for Inactive)
REMARK    1  A    between atoms: C_2  and  C_4
REMARK    2  A    between atoms: C_7  and  C_8
REMARK    3  A    between atoms: C_8  and  C_9
REMARK    4  A    between atoms: C_9  and  C_10
REMARK    5  A    between atoms: C_14  and  C_15
REMARK                            x       y       z     vdW  Elec       q    Type
REMARK                         _______ _______ _______ _____ _____    ______ ____
ROOT
ATOM      1  C   UNL     1      44.575   4.999  11.737  0.00  0.00    +0.000 C 
ENDROOT
BRANCH   1   2
ATOM      2  C   UNL     1      44.798   6.477  11.918  0.00  0.00    +0.000 A 
ATOM      3  C   UNL     1      45.759   6.964  12.793  0.00  0.00    +0.000 A 
ATOM      4  N   UNL     1      46.003   8.276  12.987  0.00  0.00    +0.000 NA
ATOM      5  C   UNL     1      45.244   9.148  12.276  0.00  0.00    +0.000 A 
ATOM      6  C   UNL     1      44.256   8.795  11.355  0.00  0.00    +0.000 A 
ATOM      7  C   UNL     1      44.059   7.415  11.185  0.00  0.00    +0.000 A 
BRANCH   6   8
ATOM      8  C   UNL     1      43.462   9.801  10.612  0.00  0.00    +0.000 A 
ATOM      9  C   UNL     1      44.062  10.692   9.703  0.00  0.00    +0.000 A 
ATOM     10  C   UNL     1      43.309  11.644   9.007  0.00  0.00    +0.000 A 
ATOM     11  C   UNL     1      41.932  11.719   9.194  0.00  0.00    +0.000 A 
ATOM     12  C   UNL     1      41.311  10.850  10.082  0.00  0.00    +0.000 A 
ATOM     13  C   UNL     1      42.068   9.909  10.788  0.00  0.00    +0.000 A 
ENDBRANCH   6   8
ENDBRANCH   1   2
BRANCH   1  14
ATOM     14  C   UNL     1      43.879   4.690  10.410  0.00  0.00    +0.000 C 
BRANCH  14  18
ATOM     15  C   UNL     1      46.477   2.519   7.724  0.00  0.00    +0.000 A 
ATOM     16  C   UNL     1      46.382   3.913   7.634  0.00  0.00    +0.000 A 
ATOM     17  C   UNL     1      45.531   4.614   8.493  0.00  0.00    +0.000 A 
ATOM     18  C   UNL     1      44.768   3.932   9.453  0.00  0.00    +0.000 A 
ATOM     19  C   UNL     1      44.841   2.534   9.510  0.00  0.00    +0.000 A 
ATOM     20  C   UNL     1      45.687   1.830   8.649  0.00  0.00    +0.000 A 
BRANCH  15  22
ATOM     21  N   UNL     1      48.521   2.375   6.409  0.00  0.00    +0.000 N 
ATOM     22  C   UNL     1      47.391   1.740   6.850  0.00  0.00    +0.000 C 
ATOM     23  O   UNL     1      47.175   0.568   6.571  0.00  0.00    +0.000 OA
ATOM     24  H   UNL     1      49.192   1.800   5.916  0.00  0.00    +0.000 HD
ATOM     25  H   UNL     1      48.858   3.227   6.834  0.00  0.00    +0.000 HD
ENDBRANCH  15  22
ENDBRANCH  14  18
ENDBRANCH   1  14
TORSDOF 5
ENDMDL
MODEL 8
REMARK VINA RESULT:    -7.074      3.437      7.370
REMARK INTER + INTRA:         -10.221
REMARK INTER:                  -9.472
REMARK INTRA:                  -0.749
REMARK UNBOUND:                -1.079
REMARK  Name = 
REMARK  5 active torsions:
REMARK  status: ('A' for Active; 'I' for Inactive)
REMARK    1  A    between atoms: C_2  and  C_4
REMARK    2  A    between atoms: C_7  and  C_8
REMARK    3  A    between atoms: C_8  and  C_9
REMARK    4  A    between atoms: C_9  and  C_10
REMARK    5  A    between atoms: C_14  and  C_15
REMARK                            x       y       z     vdW  Elec       q    Type
REMARK                         _______ _______ _______ _____ _____    ______ ____
ROOT
ATOM      1  C   UNL     1      45.120   6.841  11.657  0.00  0.00    +0.000 C 
ENDROOT
BRANCH   1   2
ATOM      2  C   UNL     1      44.705   5.506  11.098  0.00  0.00    +0.000 A 
ATOM      3  C   UNL     1      43.611   4.816  11.601  0.00  0.00    +0.000 A 
ATOM      4  N   UNL     1      43.195   3.622  11.133  0.00  0.00    +0.000 NA
ATOM      5  C   UNL     1      43.912   3.084  10.115  0.00  0.00    +0.000 A 
ATOM      6  C   UNL     1      45.023   3.674   9.507  0.00  0.00    +0.000 A 
ATOM      7  C   UNL     1      45.398   4.923  10.028  0.00  0.00    +0.000 A 
BRANCH   6   8
ATOM      8  C   UNL     1      45.762   3.029   8.398  0.00  0.00    +0.000 A 
ATOM      9  C   UNL     1      46.104   1.664   8.433  0.00  0.00    +0.000 A 
ATOM     10  C   UNL     1      46.805   1.059   7.384  0.00  0.00    +0.000 A 
ATOM     11  C   UNL     1      47.172   1.803   6.268  0.00  0.00    +0.000 A 
ATOM     12  C   UNL     1      46.845   3.152   6.203  0.00  0.00    +0.000 A 
ATOM     13  C   UNL     1      46.156   3.758   7.259  0.00  0.00    +0.000 A 
ENDBRANCH   6   8
ENDBRANCH   1   2
BRANCH   1  14
ATOM     14  C   UNL     1      46.434   6.745  12.435  0.00  0.00    +0.000 C 
BRANCH  14  18
ATOM     15  C   UNL     1      49.233   9.892  11.467  0.00  0.00    +0.000 A 
ATOM     16  C   UNL     1      47.906  10.207  11.784  0.00  0.00    +0.000 A 
ATOM     17  C   UNL     1      46.997   9.188  12.083  0.00  0.00    +0.000 A 
ATOM     18  C   UNL     1      47.403   7.845  12.073  0.00  0.00    +0.000 A 
ATOM     19  C   UNL     1      48.723   7.538  11.717  0.00  0.00    +0.000 A 
ATOM     20  C   UNL     1      49.632   8.553  11.413  0.00  0.00    +0.000 A 
BRANCH  15  22
ATOM     21  N   UNL     1      51.409  10.544  10.592  0.00  0.00    +0.000 N 
ATOM     22  C   UNL     1      50.237  10.947  11.173  0.00  0.00    +0.000 C 
ATOM     23  O   UNL     1      50.015  12.130  11.394  0.00  0.00    +0.000 OA
ATOM     24  H   UNL     1      52.032  11.282  10.288  0.00  0.00    +0.000 HD
ATOM     25  H   UNL     1      51.508   9.639  10.156  0.00  0.00    +0.000 HD
ENDBRANCH  15  22
ENDBRANCH  14  18
ENDBRANCH   1  14
TORSDOF 5
ENDMDL
MODEL 9
REMARK VINA RESULT:    -6.250      3.473      5.825
REMARK INTER + INTRA:          -9.156
REMARK INTER:                  -8.149
REMARK INTRA:                  -1.007
REMARK UNBOUND:                -1.079
REMARK  Name = 
REMARK  5 active torsions:
REMARK  status: ('A' for Active; 'I' for Inactive)
REMARK    1  A    between atoms: C_2  and  C_4
REMARK    2  A    between atoms: C_7  and  C_8
REMARK    3  A    between atoms: C_8  and  C_9
REMARK    4  A    between atoms: C_9  and  C_10
REMARK    5  A    between atoms: C_14  and  C_15
REMARK                            x       y       z     vdW  Elec       q    Type
REMARK                         _______ _______ _______ _____ _____    ______ ____
ROOT
ATOM      1  C   UNL     1      47.981   7.928  12.387  0.00  0.00    +0.000 C 
ENDROOT
BRANCH   1   2
ATOM      2  C   UNL     1      48.330   7.857  13.850  0.00  0.00    +0.000 A 
ATOM      3  C   UNL     1      48.672   8.993  14.571  0.00  0.00    +0.000 A 
ATOM      4  N   UNL     1      48.987   8.985  15.882  0.00  0.00    +0.000 NA
ATOM      5  C   UNL     1      48.966   7.780  16.506  0.00  0.00    +0.000 A 
ATOM      6  C   UNL     1      48.628   6.564  15.906  0.00  0.00    +0.000 A 
ATOM      7  C   UNL     1      48.295   6.640  14.544  0.00  0.00    +0.000 A 
BRANCH   6   8
ATOM      8  C   UNL     1      48.628   5.282  16.647  0.00  0.00    +0.000 A 
ATOM      9  C   UNL     1      49.765   4.828  17.340  0.00  0.00    +0.000 A 
ATOM     10  C   UNL     1      49.762   3.614  18.036  0.00  0.00    +0.000 A 
ATOM     11  C   UNL     1      48.613   2.830  18.066  0.00  0.00    +0.000 A 
ATOM     12  C   UNL     1      47.474   3.253  17.395  0.00  0.00    +0.000 A 
ATOM     13  C   UNL     1      47.484   4.460  16.688  0.00  0.00    +0.000 A 
ENDBRANCH   6   8
ENDBRANCH   1   2
BRANCH   1  14
ATOM     14  C   UNL     1      46.469   8.033  12.170  0.00  0.00    +0.000 C 
BRANCH  14  18
ATOM     15  C   UNL     1      44.585   4.241  11.308  0.00  0.00    +0.000 A 
ATOM     16  C   UNL     1      44.533   4.772  12.602  0.00  0.00    +0.000 A 
ATOM     17  C   UNL     1      45.155   5.992  12.885  0.00  0.00    +0.000 A 
ATOM     18  C   UNL     1      45.832   6.696  11.879  0.00  0.00    +0.000 A 
ATOM     19  C   UNL     1      45.911   6.139  10.595  0.00  0.00    +0.000 A 
ATOM     20  C   UNL     1      45.295   4.918  10.311  0.00  0.00    +0.000 A 
BRANCH  15  22
ATOM     21  N   UNL     1      44.489   2.204   9.977  0.00  0.00    +0.000 N 
ATOM     22  C   UNL     1      43.912   2.963  10.960  0.00  0.00    +0.000 C 
ATOM     23  O   UNL     1      42.913   2.577  11.551  0.00  0.00    +0.000 OA
ATOM     24  H   UNL     1      44.091   1.285   9.833  0.00  0.00    +0.000 HD
ATOM     25  H   UNL     1      45.439   2.357   9.670  0.00  0.00    +0.000 HD
ENDBRANCH  15  22
ENDBRANCH  14  18
ENDBRANCH   1  14
TORSDOF 5
ENDMDL
