MODEL 1
REMARK VINA RESULT:    -7.229      0.000      0.000
REMARK INTER + INTRA:          -9.784
REMARK INTER:                  -8.919
REMARK INTRA:                  -0.865
REMARK UNBOUND:                -0.865
REMARK  Name = 
REMARK  5 active torsions:
REMARK  status: ('A' for Active; 'I' for Inactive)
REMARK    1  A    between atoms: C_1  and  C_2
REMARK    2  A    between atoms: N_8  and  C_9
REMARK    3  A    between atoms: C_9  and  C_10
REMARK    4  A    between atoms: C_14  and  C_15
REMARK    5  A    between atoms: C_19  and  C_20
REMARK                            x       y       z     vdW  Elec       q    Type
REMARK                         _______ _______ _______ _____ _____    ______ ____
ROOT
ATOM      1  C   UNL     1      47.445   7.927  12.209  0.00  0.00    +0.000 A 
ATOM      2  C   UNL     1      46.468   8.882  12.520  0.00  0.00    +0.000 A 
ATOM      3  C   UNL     1      45.132   8.683  12.177  0.00  0.00    +0.000 A 
ATOM      4  C   UNL     1      44.742   7.510  11.526  0.00  0.00    +0.000 A 
ATOM      5  C   UNL     1      45.672   6.508  11.211  0.00  0.00    +0.000 A 
ATOM      6  C   UNL     1      47.013   6.744  11.572  0.00  0.00    +0.000 A 
ENDROOT
BRANCH   5   7
ATOM      7  C   UNL     1      45.272   5.258  10.518  0.00  0.00    +0.000 A 
ATOM      8  C   UNL     1      44.363   4.352  11.097  0.00  0.00    +0.000 A 
ATOM      9  C   UNL     1      43.988   3.173  10.446  0.00  0.00    +0.000 A 
ATOM     10  C   UNL     1      44.502   2.876   9.187  0.00  0.00    +0.000 A 
ATOM     11  C   UNL     1      45.398   3.758   8.582  0.00  0.00    +0.000 A 
ATOM     12  C   UNL     1      45.781   4.931   9.248  0.00  0.00    +0.000 A 
BRANCH  11  13
ATOM     13  C   UNL     1      45.925   3.470   7.282  0.00  0.00    +0.000 C 
ATOM     14  N   UNL     1      46.356   3.231   6.229  0.00  0.00    +0.000 NA
ENDBRANCH  11  13
ENDBRANCH   5   7
BRANCH   1  15
ATOM     15  C   UNL     1      48.920   8.163  12.520  0.00  0.00    +0.000 C 
ATOM     16  C   UNL     1      49.835   8.549  11.362  0.00  0.00    +0.000 C 
ATOM     17  C   UNL     1      49.441   9.579  12.368  0.00  0.00    +0.000 C 
BRANCH  15  25
ATOM     18  C   UNL     1      49.123   4.703  17.468  0.00  0.00    +0.000 C 
ATOM     19  C   UNL     1      49.014   6.019  16.762  0.00  0.00    +0.000 A 
ATOM     20  N   UNL     1      48.680   7.085  17.474  0.00  0.00    +0.000 NA
ATOM     21  C   UNL     1      48.608   8.194  16.751  0.00  0.00    +0.000 A 
ATOM     22 CL   UNL     1      48.224   9.621  17.611  0.00  0.00    +0.000 Cl
ATOM     23  N   UNL     1      48.813   8.338  15.449  0.00  0.00    +0.000 NA
ATOM     24  C   UNL     1      49.155   7.216  14.837  0.00  0.00    +0.000 A 
ATOM     25  N   UNL     1      49.490   7.209  13.480  0.00  0.00    +0.000 N 
ATOM     26  N   UNL     1      49.263   6.037  15.450  0.00  0.00    +0.000 NA
ATOM     27  H   UNL     1      49.551   6.238  13.197  0.00  0.00    +0.000 HD
ENDBRANCH  15  25
ENDBRANCH   1  15
TORSDOF 4
ENDMDL
MODEL 2
REMARK VINA RESULT:    -6.490      4.198      5.966
REMARK INTER + INTRA:          -8.873
REMARK INTER:                  -8.632
REMARK INTRA:                  -0.241
REMARK UNBOUND:                -0.865
REMARK  Name = 
REMARK  5 active torsions:
REMARK  status: ('A' for Active; 'I' for Inactive)
REMARK    1  A    between atoms: C_1  and  C_2
REMARK    2  A    between atoms: N_8  and  C_9
REMARK    3  A    between atoms: C_9  and  C_10
REMARK    4  A    between atoms: C_14  and  C_15
REMARK    5  A    between atoms: C_19  and  C_20
REMARK                            x       y       z     vdW  Elec       q    Type
REMARK                         _______ _______ _______ _____ _____    ______ ____
ROOT
ATOM      1  C   UNL     1      46.988   9.255  12.149  0.00  0.00    +0.000 A 
ATOM      2  C   UNL     1      48.249   8.863  12.620  0.00  0.00    +0.000 A 
ATOM      3  C   UNL     1      48.516   7.533  12.938  0.00  0.00    +0.000 A 
ATOM      4  C   UNL     1      47.527   6.560  12.776  0.00  0.00    +0.000 A 
ATOM      5  C   UNL     1      46.254   6.890  12.285  0.00  0.00    +0.000 A 
ATOM      6  C   UNL     1      46.019   8.244  11.975  0.00  0.00    +0.000 A 
ENDROOT
BRANCH   5   7
ATOM      7  C   UNL     1      45.193   5.867  12.110  0.00  0.00    +0.000 A 
ATOM      8  C   UNL     1      44.041   5.853  12.920  0.00  0.00    +0.000 A 
ATOM      9  C   UNL     1      43.042   4.888  12.757  0.00  0.00    +0.000 A 
ATOM     10  C   UNL     1      43.163   3.919  11.765  0.00  0.00    +0.000 A 
ATOM     11  C   UNL     1      44.287   3.912  10.939  0.00  0.00    +0.000 A 
ATOM     12  C   UNL     1      45.292   4.874  11.119  0.00  0.00    +0.000 A 
BRANCH  11  13
ATOM     13  C   UNL     1      44.417   2.928   9.908  0.00  0.00    +0.000 C 
ATOM     14  N   UNL     1      44.527   2.125   9.074  0.00  0.00    +0.000 NA
ENDBRANCH  11  13
ENDBRANCH   5   7
BRANCH   1  15
ATOM     15  C   UNL     1      46.664  10.718  11.860  0.00  0.00    +0.000 C 
ATOM     16  C   UNL     1      47.708  11.763  12.240  0.00  0.00    +0.000 C 
ATOM     17  C   UNL     1      47.496  11.416  10.803  0.00  0.00    +0.000 C 
BRANCH  15  25
ATOM     18  C   UNL     1      40.641  10.405  11.504  0.00  0.00    +0.000 C 
ATOM     19  C   UNL     1      42.006  10.595  10.917  0.00  0.00    +0.000 A 
ATOM     20  N   UNL     1      42.121  10.624   9.598  0.00  0.00    +0.000 NA
ATOM     21  C   UNL     1      43.370  10.792   9.187  0.00  0.00    +0.000 A 
ATOM     22 CL   UNL     1      43.592  10.884   7.494  0.00  0.00    +0.000 Cl
ATOM     23  N   UNL     1      44.465  10.916   9.924  0.00  0.00    +0.000 NA
ATOM     24  C   UNL     1      44.237  10.888  11.227  0.00  0.00    +0.000 A 
ATOM     25  N   UNL     1      45.271  11.089  12.144  0.00  0.00    +0.000 N 
ATOM     26  N   UNL     1      43.028  10.726  11.766  0.00  0.00    +0.000 NA
ATOM     27  H   UNL     1      44.901  10.862  13.060  0.00  0.00    +0.000 HD
ENDBRANCH  15  25
ENDBRANCH   1  15
TORSDOF 4
ENDMDL
MODEL 3
REMARK VINA RESULT:    -6.478      3.215      5.309
REMARK INTER + INTRA:          -8.859
REMARK INTER:                  -8.596
REMARK INTRA:                  -0.263
REMARK UNBOUND:                -0.865
REMARK  Name = 
REMARK  5 active torsions:
REMARK  status: ('A' for Active; 'I' for Inactive)
REMARK    1  A    between atoms: C_1  and  C_2
REMARK    2  A    between atoms: N_8  and  C_9
REMARK    3  A    between atoms: C_9  and  C_10
REMARK    4  A    between atoms: C_14  and  C_15
REMARK    5  A    between atoms: C_19  and  C_20
REMARK                            x       y       z     vdW  Elec       q    Type
REMARK                         _______ _______ _______ _____ _____    ______ ____
ROOT
ATOM      1  C   UNL     1      48.135   5.143  16.356  0.00  0.00    +0.000 A 
ATOM      2  C   UNL     1      49.109   6.150  16.317  0.00  0.00    +0.000 A 
ATOM      3  C   UNL     1      49.277   6.944  15.184  0.00  0.00    +0.000 A 
ATOM      4  C   UNL     1      48.459   6.756  14.067  0.00  0.00    +0.000 A 
ATOM      5  C   UNL     1      47.452   5.778  14.058  0.00  0.00    +0.000 A 
ATOM      6  C   UNL     1      47.311   4.995  15.220  0.00  0.00    +0.000 A 
ENDROOT
BRANCH   5   7
ATOM      7  C   UNL     1      46.577   5.566  12.878  0.00  0.00    +0.000 A 
ATOM      8  C   UNL     1      46.673   6.379  11.733  0.00  0.00    +0.000 A 
ATOM      9  C   UNL     1      45.848   6.181  10.622  0.00  0.00    +0.000 A 
ATOM     10  C   UNL     1      44.913   5.150  10.621  0.00  0.00    +0.000 A 
ATOM     11  C   UNL     1      44.800   4.320  11.737  0.00  0.00    +0.000 A 
ATOM     12  C   UNL     1      45.621   4.534  12.853  0.00  0.00    +0.000 A 
BRANCH  11  13
ATOM     13  C   UNL     1      43.851   3.248  11.744  0.00  0.00    +0.000 C 
ATOM     14  N   UNL     1      43.084   2.374  11.747  0.00  0.00    +0.000 NA
ENDBRANCH  11  13
ENDBRANCH   5   7
BRANCH   1  15
ATOM     15  C   UNL     1      47.985   4.224  17.565  0.00  0.00    +0.000 C 
ATOM     16  C   UNL     1      47.610   2.769  17.307  0.00  0.00    +0.000 C 
ATOM     17  C   UNL     1      49.003   3.111  17.719  0.00  0.00    +0.000 C 
BRANCH  15  25
ATOM     18  C   UNL     1      47.317   8.016  22.221  0.00  0.00    +0.000 C 
ATOM     19  C   UNL     1      48.009   6.907  21.490  0.00  0.00    +0.000 A 
ATOM     20  N   UNL     1      49.187   6.501  21.940  0.00  0.00    +0.000 NA
ATOM     21  C   UNL     1      49.712   5.520  21.218  0.00  0.00    +0.000 A 
ATOM     22 CL   UNL     1      51.214   4.913  21.765  0.00  0.00    +0.000 Cl
ATOM     23  N   UNL     1      49.209   4.940  20.137  0.00  0.00    +0.000 NA
ATOM     24  C   UNL     1      48.024   5.410  19.782  0.00  0.00    +0.000 A 
ATOM     25  N   UNL     1      47.318   4.851  18.714  0.00  0.00    +0.000 N 
ATOM     26  N   UNL     1      47.391   6.392  20.424  0.00  0.00    +0.000 NA
ATOM     27  H   UNL     1      46.534   5.466  18.525  0.00  0.00    +0.000 HD
ENDBRANCH  15  25
ENDBRANCH   1  15
TORSDOF 4
ENDMDL
MODEL 4
REMARK VINA RESULT:    -6.112      2.539      4.329
REMARK INTER + INTRA:          -8.406
REMARK INTER:                  -7.729
REMARK INTRA:                  -0.677
REMARK UNBOUND:                -0.865
REMARK  Name = 
REMARK  5 active torsions:
REMARK  status: ('A' for Active; 'I' for Inactive)
REMARK    1  A    between atoms: C_1  and  C_2
REMARK    2  A    between atoms: N_8  and  C_9
REMARK    3  A    between atoms: C_9  and  C_10
REMARK    4  A    between atoms: C_14  and  C_15
REMARK    5  A    between atoms: C_19  and  C_20
REMARK                            x       y       z     vdW  Elec       q    Type
REMARK                         _______ _______ _______ _____ _____    ______ ____
ROOT
ATOM      1  C   UNL     1      47.167   8.060  12.729  0.00  0.00    +0.000 A 
ATOM      2  C   UNL     1      46.263   9.131  12.707  0.00  0.00    +0.000 A 
ATOM      3  C   UNL     1      45.056   9.039  12.017  0.00  0.00    +0.000 A 
ATOM      4  C   UNL     1      44.720   7.861  11.344  0.00  0.00    +0.000 A 
ATOM      5  C   UNL     1      45.575   6.748  11.352  0.00  0.00    +0.000 A 
ATOM      6  C   UNL     1      46.786   6.878  12.059  0.00  0.00    +0.000 A 
ENDROOT
BRANCH   5   7
ATOM      7  C   UNL     1      45.232   5.492  10.641  0.00  0.00    +0.000 A 
ATOM      8  C   UNL     1      44.349   4.547  11.197  0.00  0.00    +0.000 A 
ATOM      9  C   UNL     1      44.027   3.362  10.528  0.00  0.00    +0.000 A 
ATOM     10  C   UNL     1      44.570   3.098   9.274  0.00  0.00    +0.000 A 
ATOM     11  C   UNL     1      45.440   4.019   8.691  0.00  0.00    +0.000 A 
ATOM     12  C   UNL     1      45.770   5.198   9.374  0.00  0.00    +0.000 A 
BRANCH  11  13
ATOM     13  C   UNL     1      45.996   3.765   7.396  0.00  0.00    +0.000 C 
ATOM     14  N   UNL     1      46.441   3.560   6.342  0.00  0.00    +0.000 NA
ENDBRANCH  11  13
ENDBRANCH   5   7
BRANCH   1  15
ATOM     15  C   UNL     1      48.520   8.173  13.425  0.00  0.00    +0.000 C 
ATOM     16  C   UNL     1      48.585   7.821  14.908  0.00  0.00    +0.000 C 
ATOM     17  C   UNL     1      49.164   6.884  13.899  0.00  0.00    +0.000 C 
BRANCH  15  25
ATOM     18  C   UNL     1      51.532  11.835   9.682  0.00  0.00    +0.000 C 
ATOM     19  C   UNL     1      51.302  10.526  10.372  0.00  0.00    +0.000 A 
ATOM     20  N   UNL     1      52.003   9.476   9.971  0.00  0.00    +0.000 NA
ATOM     21  C   UNL     1      51.719   8.370  10.645  0.00  0.00    +0.000 A 
ATOM     22 CL   UNL     1      52.617   6.981  10.212  0.00  0.00    +0.000 Cl
ATOM     23  N   UNL     1      50.838   8.211  11.623  0.00  0.00    +0.000 NA
ATOM     24  C   UNL     1      50.204   9.323  11.955  0.00  0.00    +0.000 A 
ATOM     25  N   UNL     1      49.304   9.348  13.023  0.00  0.00    +0.000 N 
ATOM     26  N   UNL     1      50.400  10.498  11.356  0.00  0.00    +0.000 NA
ATOM     27  H   UNL     1      48.826  10.241  12.986  0.00  0.00    +0.000 HD
ENDBRANCH  15  25
ENDBRANCH   1  15
TORSDOF 4
ENDMDL
MODEL 5
REMARK VINA RESULT:    -6.078      1.776      3.040
REMARK INTER + INTRA:          -8.364
REMARK INTER:                  -7.843
REMARK INTRA:                  -0.521
REMARK UNBOUND:                -0.865
REMARK  Name = 
REMARK  5 active torsions:
REMARK  status: ('A' for Active; 'I' for Inactive)
REMARK    1  A    between atoms: C_1  and  C_2
REMARK    2  A    between atoms: N_8  and  C_9
REMARK    3  A    between atoms: C_9  and  C_10
REMARK    4  A    between atoms: C_14  and  C_15
REMARK    5  A    between atoms: C_19  and  C_20
REMARK                            x       y       z     vdW  Elec       q    Type
REMARK                         _______ _______ _______ _____ _____    ______ ____
ROOT
ATOM      1  C   UNL     1      49.017   8.090  14.021  0.00  0.00    +0.000 A 
ATOM      2  C   UNL     1      49.837   8.509  12.965  0.00  0.00    +0.000 A 
ATOM      3  C   UNL     1      49.499   8.237  11.640  0.00  0.00    +0.000 A 
ATOM      4  C   UNL     1      48.319   7.549  11.344  0.00  0.00    +0.000 A 
ATOM      5  C   UNL     1      47.448   7.126  12.360  0.00  0.00    +0.000 A 
ATOM      6  C   UNL     1      47.822   7.418  13.686  0.00  0.00    +0.000 A 
ENDROOT
BRANCH   5   7
ATOM      7  C   UNL     1      46.194   6.392  12.060  0.00  0.00    +0.000 A 
ATOM      8  C   UNL     1      45.125   6.353  12.976  0.00  0.00    +0.000 A 
ATOM      9  C   UNL     1      43.943   5.661  12.695  0.00  0.00    +0.000 A 
ATOM     10  C   UNL     1      43.793   4.999  11.479  0.00  0.00    +0.000 A 
ATOM     11  C   UNL     1      44.830   5.027  10.546  0.00  0.00    +0.000 A 
ATOM     12  C   UNL     1      46.018   5.712  10.841  0.00  0.00    +0.000 A 
BRANCH  11  13
ATOM     13  C   UNL     1      44.684   4.362   9.287  0.00  0.00    +0.000 C 
ATOM     14  N   UNL     1      44.558   3.822   8.265  0.00  0.00    +0.000 NA
ENDBRANCH  11  13
ENDBRANCH   5   7
BRANCH   1  15
ATOM     15  C   UNL     1      49.409   8.324  15.477  0.00  0.00    +0.000 C 
ATOM     16  C   UNL     1      49.867   9.725  15.870  0.00  0.00    +0.000 C 
ATOM     17  C   UNL     1      48.520   9.241  16.294  0.00  0.00    +0.000 C 
BRANCH  15  25
ATOM     18  C   UNL     1      50.439   2.726  17.499  0.00  0.00    +0.000 C 
ATOM     19  C   UNL     1      49.712   4.035  17.504  0.00  0.00    +0.000 A 
ATOM     20  N   UNL     1      48.604   4.132  18.222  0.00  0.00    +0.000 NA
ATOM     21  C   UNL     1      48.039   5.330  18.152  0.00  0.00    +0.000 A 
ATOM     22 CL   UNL     1      46.625   5.544  19.090  0.00  0.00    +0.000 Cl
ATOM     23  N   UNL     1      48.443   6.386  17.459  0.00  0.00    +0.000 NA
ATOM     24  C   UNL     1      49.566   6.186  16.789  0.00  0.00    +0.000 A 
ATOM     25  N   UNL     1      50.174   7.222  16.076  0.00  0.00    +0.000 N 
ATOM     26  N   UNL     1      50.230   5.030  16.779  0.00  0.00    +0.000 NA
ATOM     27  H   UNL     1      50.911   6.805  15.520  0.00  0.00    +0.000 HD
ENDBRANCH  15  25
ENDBRANCH   1  15
TORSDOF 4
ENDMDL
MODEL 6
REMARK VINA RESULT:    -6.042      1.829      2.149
REMARK INTER + INTRA:          -8.320
REMARK INTER:                  -8.491
REMARK INTRA:                   0.171
REMARK UNBOUND:                -0.865
REMARK  Name = 
REMARK  5 active torsions:
REMARK  status: ('A' for Active; 'I' for Inactive)
REMARK    1  A    between atoms: C_1  and  C_2
REMARK    2  A    between atoms: N_8  and  C_9
REMARK    3  A    between atoms: C_9  and  C_10
REMARK    4  A    between atoms: C_14  and  C_15
REMARK    5  A    between atoms: C_19  and  C_20
REMARK                            x       y       z     vdW  Elec       q    Type
REMARK                         _______ _______ _______ _____ _____    ______ ____
ROOT
ATOM      1  C   UNL     1      47.610   8.357  12.334  0.00  0.00    +0.000 A 
ATOM      2  C   UNL     1      46.865   9.531  12.161  0.00  0.00    +0.000 A 
ATOM      3  C   UNL     1      45.494   9.482  11.910  0.00  0.00    +0.000 A 
ATOM      4  C   UNL     1      44.837   8.250  11.842  0.00  0.00    +0.000 A 
ATOM      5  C   UNL     1      45.529   7.044  12.030  0.00  0.00    +0.000 A 
ATOM      6  C   UNL     1      46.912   7.132  12.282  0.00  0.00    +0.000 A 
ENDROOT
BRANCH   5   7
ATOM      7  C   UNL     1      44.844   5.729  11.958  0.00  0.00    +0.000 A 
ATOM      8  C   UNL     1      43.880   5.347  12.910  0.00  0.00    +0.000 A 
ATOM      9  C   UNL     1      43.236   4.107  12.844  0.00  0.00    +0.000 A 
ATOM     10  C   UNL     1      43.530   3.221  11.811  0.00  0.00    +0.000 A 
ATOM     11  C   UNL     1      44.473   3.575  10.847  0.00  0.00    +0.000 A 
ATOM     12  C   UNL     1      45.125   4.814  10.928  0.00  0.00    +0.000 A 
BRANCH  11  13
ATOM     13  C   UNL     1      44.775   2.678   9.772  0.00  0.00    +0.000 C 
ATOM     14  N   UNL     1      45.014   1.949   8.898  0.00  0.00    +0.000 NA
ENDBRANCH  11  13
ENDBRANCH   5   7
BRANCH   1  15
ATOM     15  C   UNL     1      49.121   8.396  12.544  0.00  0.00    +0.000 C 
ATOM     16  C   UNL     1      49.985   7.524  11.637  0.00  0.00    +0.000 C 
ATOM     17  C   UNL     1      49.959   9.003  11.435  0.00  0.00    +0.000 C 
BRANCH  15  25
ATOM     18  C   UNL     1      51.114   6.217  17.814  0.00  0.00    +0.000 C 
ATOM     19  C   UNL     1      50.139   6.285  16.679  0.00  0.00    +0.000 A 
ATOM     20  N   UNL     1      49.203   5.351  16.603  0.00  0.00    +0.000 NA
ATOM     21  C   UNL     1      48.398   5.502  15.561  0.00  0.00    +0.000 A 
ATOM     22 CL   UNL     1      47.135   4.357  15.420  0.00  0.00    +0.000 Cl
ATOM     23  N   UNL     1      48.438   6.440  14.625  0.00  0.00    +0.000 NA
ATOM     24  C   UNL     1      49.401   7.330  14.803  0.00  0.00    +0.000 A 
ATOM     25  N   UNL     1      49.530   8.432  13.954  0.00  0.00    +0.000 N 
ATOM     26  N   UNL     1      50.273   7.290  15.810  0.00  0.00    +0.000 NA
ATOM     27  H   UNL     1      50.415   8.873  14.176  0.00  0.00    +0.000 HD
ENDBRANCH  15  25
ENDBRANCH   1  15
TORSDOF 4
ENDMDL
MODEL 7
REMARK VINA RESULT:    -6.028      2.662      4.289
REMARK INTER + INTRA:          -8.302
REMARK INTER:                  -7.838
REMARK INTRA:                  -0.465
REMARK UNBOUND:                -0.865
REMARK  Name = 
REMARK  5 active torsions:
REMARK  status: ('A' for Active; 'I' for Inactive)
REMARK    1  A    between atoms: C_1  and  C_2
REMARK    2  A    between atoms: N_8  and  C_9
REMARK    3  A    between atoms: C_9  and  C_10
REMARK    4  A    between atoms: C_14  and  C_15
REMARK    5  A    between atoms: C_19  and  C_20
REMARK                            x       y       z     vdW  Elec       q    Type
REMARK                         _______ _______ _______ _____ _____    ______ ____
ROOT
ATOM      1  C   UNL     1      47.715   5.220  15.701  0.00  0.00    +0.000 A 
ATOM      2  C   UNL     1      48.607   6.175  15.192  0.00  0.00    +0.000 A 
ATOM      3  C   UNL     1      48.443   6.702  13.913  0.00  0.00    +0.000 A 
ATOM      4  C   UNL     1      47.369   6.294  13.118  0.00  0.00    +0.000 A 
ATOM      5  C   UNL     1      46.431   5.360  13.583  0.00  0.00    +0.000 A 
ATOM      6  C   UNL     1      46.629   4.848  14.881  0.00  0.00    +0.000 A 
ENDROOT
BRANCH   5   7
ATOM      7  C   UNL     1      45.287   4.916  12.749  0.00  0.00    +0.000 A 
ATOM      8  C   UNL     1      43.984   5.405  12.964  0.00  0.00    +0.000 A 
ATOM      9  C   UNL     1      42.906   4.986  12.180  0.00  0.00    +0.000 A 
ATOM     10  C   UNL     1      43.105   4.074  11.146  0.00  0.00    +0.000 A 
ATOM     11  C   UNL     1      44.386   3.578  10.902  0.00  0.00    +0.000 A 
ATOM     12  C   UNL     1      45.460   3.992  11.702  0.00  0.00    +0.000 A 
BRANCH  11  13
ATOM     13  C   UNL     1      44.607   2.650   9.835  0.00  0.00    +0.000 C 
ATOM     14  N   UNL     1      44.788   1.901   8.964  0.00  0.00    +0.000 NA
ENDBRANCH  11  13
ENDBRANCH   5   7
BRANCH   1  15
ATOM     15  C   UNL     1      47.922   4.588  17.074  0.00  0.00    +0.000 C 
ATOM     16  C   UNL     1      47.723   3.080  17.196  0.00  0.00    +0.000 C 
ATOM     17  C   UNL     1      49.103   3.650  17.233  0.00  0.00    +0.000 C 
BRANCH  15  25
ATOM     18  C   UNL     1      47.007   9.510  20.454  0.00  0.00    +0.000 C 
ATOM     19  C   UNL     1      47.875   8.463  19.826  0.00  0.00    +0.000 A 
ATOM     20  N   UNL     1      49.188   8.633  19.865  0.00  0.00    +0.000 NA
ATOM     21  C   UNL     1      49.859   7.652  19.277  0.00  0.00    +0.000 A 
ATOM     22 CL   UNL     1      51.563   7.781  19.325  0.00  0.00    +0.000 Cl
ATOM     23  N   UNL     1      49.374   6.577  18.672  0.00  0.00    +0.000 NA
ATOM     24  C   UNL     1      48.054   6.497  18.704  0.00  0.00    +0.000 A 
ATOM     25  N   UNL     1      47.387   5.384  18.187  0.00  0.00    +0.000 N 
ATOM     26  N   UNL     1      47.267   7.416  19.264  0.00  0.00    +0.000 NA
ATOM     27  H   UNL     1      46.400   5.614  18.168  0.00  0.00    +0.000 HD
ENDBRANCH  15  25
ENDBRANCH   1  15
TORSDOF 4
ENDMDL
MODEL 8
REMARK VINA RESULT:    -6.003      3.262      7.388
REMARK INTER + INTRA:          -8.272
REMARK INTER:                  -7.433
REMARK INTRA:                  -0.839
REMARK UNBOUND:                -0.865
REMARK  Name = 
REMARK  5 active torsions:
REMARK  status: ('A' for Active; 'I' for Inactive)
REMARK    1  A    between atoms: C_1  and  C_2
REMARK    2  A    between atoms: N_8  and  C_9
REMARK    3  A    between atoms: C_9  and  C_10
REMARK    4  A    between atoms: C_14  and  C_15
REMARK    5  A    between atoms: C_19  and  C_20
REMARK                            x       y       z     vdW  Elec       q    Type
REMARK                         _______ _______ _______ _____ _____    ______ ____
ROOT
ATOM      1  C   UNL     1      46.729   7.619  12.691  0.00  0.00    +0.000 A 
ATOM      2  C   UNL     1      47.914   8.110  12.128  0.00  0.00    +0.000 A 
ATOM      3  C   UNL     1      49.157   7.781  12.667  0.00  0.00    +0.000 A 
ATOM      4  C   UNL     1      49.238   6.937  13.778  0.00  0.00    +0.000 A 
ATOM      5  C   UNL     1      48.086   6.397  14.369  0.00  0.00    +0.000 A 
ATOM      6  C   UNL     1      46.848   6.751  13.797  0.00  0.00    +0.000 A 
ENDROOT
BRANCH   5   7
ATOM      7  C   UNL     1      48.158   5.502  15.550  0.00  0.00    +0.000 A 
ATOM      8  C   UNL     1      47.396   4.320  15.627  0.00  0.00    +0.000 A 
ATOM      9  C   UNL     1      47.462   3.477  16.741  0.00  0.00    +0.000 A 
ATOM     10  C   UNL     1      48.306   3.787  17.803  0.00  0.00    +0.000 A 
ATOM     11  C   UNL     1      49.081   4.946  17.753  0.00  0.00    +0.000 A 
ATOM     12  C   UNL     1      48.999   5.794  16.639  0.00  0.00    +0.000 A 
BRANCH  11  13
ATOM     13  C   UNL     1      49.963   5.270  18.833  0.00  0.00    +0.000 C 
ATOM     14  N   UNL     1      50.683   5.536  19.707  0.00  0.00    +0.000 NA
ENDBRANCH  11  13
ENDBRANCH   5   7
BRANCH   1  15
ATOM     15  C   UNL     1      45.361   8.024  12.150  0.00  0.00    +0.000 C 
ATOM     16  C   UNL     1      44.827   9.400  12.535  0.00  0.00    +0.000 C 
ATOM     17  C   UNL     1      45.323   9.161  11.147  0.00  0.00    +0.000 C 
BRANCH  15  25
ATOM     18  C   UNL     1      43.318   2.352  11.765  0.00  0.00    +0.000 C 
ATOM     19  C   UNL     1      44.001   3.566  11.215  0.00  0.00    +0.000 A 
ATOM     20  N   UNL     1      44.644   3.454  10.063  0.00  0.00    +0.000 NA
ATOM     21  C   UNL     1      45.216   4.584   9.671  0.00  0.00    +0.000 A 
ATOM     22 CL   UNL     1      46.030   4.527   8.168  0.00  0.00    +0.000 Cl
ATOM     23  N   UNL     1      45.219   5.757  10.290  0.00  0.00    +0.000 NA
ATOM     24  C   UNL     1      44.536   5.764  11.422  0.00  0.00    +0.000 A 
ATOM     25  N   UNL     1      44.369   6.941  12.156  0.00  0.00    +0.000 N 
ATOM     26  N   UNL     1      43.916   4.695  11.924  0.00  0.00    +0.000 NA
ATOM     27  H   UNL     1      43.966   6.678  13.048  0.00  0.00    +0.000 HD
ENDBRANCH  15  25
ENDBRANCH   1  15
TORSDOF 4
ENDMDL
MODEL 9
REMARK VINA RESULT:    -5.927      3.385      5.255
REMARK INTER + INTRA:          -8.178
REMARK INTER:                  -7.725
REMARK INTRA:                  -0.453
REMARK UNBOUND:                -0.865
REMARK  Name = 
REMARK  5 active torsions:
REMARK  status: ('A' for Active; 'I' for Inactive)
REMARK    1  A    between atoms: C_1  and  C_2
REMARK    2  A    between atoms: N_8  and  C_9
REMARK    3  A    between atoms: C_9  and  C_10
REMARK    4  A    between atoms: C_14  and  C_15
REMARK    5  A    between atoms: C_19  and  C_20
REMARK                            x       y       z     vdW  Elec       q    Type
REMARK                         _______ _______ _______ _____ _____    ______ ____
ROOT
ATOM      1  C   UNL     1      48.439   5.636  15.946  0.00  0.00    +0.000 A 
ATOM      2  C   UNL     1      49.378   6.647  15.699  0.00  0.00    +0.000 A 
ATOM      3  C   UNL     1      49.427   7.298  14.467  0.00  0.00    +0.000 A 
ATOM      4  C   UNL     1      48.521   6.959  13.458  0.00  0.00    +0.000 A 
ATOM      5  C   UNL     1      47.544   5.971  13.658  0.00  0.00    +0.000 A 
ATOM      6  C   UNL     1      47.525   5.335  14.914  0.00  0.00    +0.000 A 
ENDROOT
BRANCH   5   7
ATOM      7  C   UNL     1      46.578   5.600  12.595  0.00  0.00    +0.000 A 
ATOM      8  C   UNL     1      46.514   6.303  11.377  0.00  0.00    +0.000 A 
ATOM      9  C   UNL     1      45.603   5.955  10.376  0.00  0.00    +0.000 A 
ATOM     10  C   UNL     1      44.737   4.881  10.562  0.00  0.00    +0.000 A 
ATOM     11  C   UNL     1      44.781   4.158  11.753  0.00  0.00    +0.000 A 
ATOM     12  C   UNL     1      45.689   4.522  12.759  0.00  0.00    +0.000 A 
BRANCH  11  13
ATOM     13  C   UNL     1      43.905   3.043  11.952  0.00  0.00    +0.000 C 
ATOM     14  N   UNL     1      43.192   2.139  12.120  0.00  0.00    +0.000 NA
ENDBRANCH  11  13
ENDBRANCH   5   7
BRANCH   1  15
ATOM     15  C   UNL     1      48.420   4.872  17.267  0.00  0.00    +0.000 C 
ATOM     16  C   UNL     1      47.079   4.721  17.978  0.00  0.00    +0.000 C 
ATOM     17  C   UNL     1      47.687   3.545  17.288  0.00  0.00    +0.000 C 
BRANCH  15  25
ATOM     18  C   UNL     1      54.228   5.164  18.904  0.00  0.00    +0.000 C 
ATOM     19  C   UNL     1      52.996   4.428  18.474  0.00  0.00    +0.000 A 
ATOM     20  N   UNL     1      53.117   3.154  18.133  0.00  0.00    +0.000 NA
ATOM     21  C   UNL     1      51.969   2.601  17.765  0.00  0.00    +0.000 A 
ATOM     22 CL   UNL     1      52.038   0.943  17.351  0.00  0.00    +0.000 Cl
ATOM     23  N   UNL     1      50.772   3.168  17.696  0.00  0.00    +0.000 NA
ATOM     24  C   UNL     1      50.761   4.436  18.073  0.00  0.00    +0.000 A 
ATOM     25  N   UNL     1      49.566   5.157  18.140  0.00  0.00    +0.000 N 
ATOM     26  N   UNL     1      51.845   5.105  18.464  0.00  0.00    +0.000 NA
ATOM     27  H   UNL     1      49.815   6.128  18.286  0.00  0.00    +0.000 HD
ENDBRANCH  15  25
ENDBRANCH   1  15
TORSDOF 4
ENDMDL
