MODEL 1
REMARK VINA RESULT:    -6.785      0.000      0.000
REMARK INTER + INTRA:          -9.943
REMARK INTER:                  -9.363
REMARK INTRA:                  -0.580
REMARK UNBOUND:                -0.580
REMARK  Name = 
REMARK  8 active torsions:
REMARK  status: ('A' for Active; 'I' for Inactive)
REMARK    1  A    between atoms: C_1  and  C_2
REMARK    2  A    between atoms: C_3  and  C_4
REMARK    3  A    between atoms: C_9  and  C_10
REMARK    4  A    between atoms: C_10  and  C_11
REMARK    5  A    between atoms: C_11  and  O_12
REMARK    6  A    between atoms: O_12  and  C_13
REMARK    7  A    between atoms: C_17  and  C_18
REMARK    8  A    between atoms: C_18  and  N_19
REMARK                            x       y       z     vdW  Elec       q    Type
REMARK                         _______ _______ _______ _____ _____    ______ ____
ROOT
ATOM      1  C   UNL     1      45.318   5.409   9.736  0.00  0.00    +0.000 C 
ENDROOT
BRANCH   1   2
ATOM      2  C   UNL     1      44.794   5.968  11.070  0.00  0.00    +0.000 C 
BRANCH   2   9
ATOM      3  C   UNL     1      45.459   3.579  12.814  0.00  0.00    +0.000 C 
ATOM      4  C   UNL     1      46.166   4.896  12.976  0.00  0.00    +0.000 A 
ATOM      5  C   UNL     1      47.121   5.100  13.999  0.00  0.00    +0.000 A 
ATOM      6  C   UNL     1      47.842   6.291  14.069  0.00  0.00    +0.000 A 
ATOM      7  C   UNL     1      47.588   7.254  13.125  0.00  0.00    +0.000 A 
ATOM      8  N   UNL     1      46.643   7.118  12.181  0.00  0.00    +0.000 NA
ATOM      9  C   UNL     1      45.912   5.970  12.112  0.00  0.00    +0.000 A 
BRANCH   5  10
ATOM     10  C   UNL     1      47.379   4.116  15.015  0.00  0.00    +0.000 C 
ATOM     11  N   UNL     1      47.566   3.312  15.826  0.00  0.00    +0.000 NA
ENDBRANCH   5  10
ENDBRANCH   2   9
ENDBRANCH   1   2
BRANCH   1  12
ATOM     12  O   UNL     1      44.460   4.477   9.058  0.00  0.00    +0.000 OA
BRANCH  12  13
ATOM     13  C   UNL     1      45.153   3.397   8.529  0.00  0.00    +0.000 A 
ATOM     14  C   UNL     1      45.132   2.100   9.067  0.00  0.00    +0.000 A 
ATOM     15  C   UNL     1      45.860   1.063   8.487  0.00  0.00    +0.000 A 
ATOM     16  C   UNL     1      46.623   1.307   7.354  0.00  0.00    +0.000 A 
ATOM     17  C   UNL     1      46.670   2.588   6.788  0.00  0.00    +0.000 A 
ATOM     18  C   UNL     1      45.924   3.631   7.381  0.00  0.00    +0.000 A 
BRANCH  17  19
ATOM     19  C   UNL     1      47.508   2.805   5.552  0.00  0.00    +0.000 C 
BRANCH  19  20
ATOM     20  N   UNL     1      48.540   1.780   5.422  0.00  0.00    +0.000 NA
ATOM     21  H   UNL     1      48.461   1.135   6.206  0.00  0.00    +0.000 HD
ATOM     22  H   UNL     1      49.458   2.211   5.487  0.00  0.00    +0.000 HD
ENDBRANCH  19  20
ENDBRANCH  17  19
ENDBRANCH  12  13
ENDBRANCH   1  12
TORSDOF 7
ENDMDL
MODEL 2
REMARK VINA RESULT:    -6.617      1.282      2.087
REMARK INTER + INTRA:          -9.711
REMARK INTER:                  -9.177
REMARK INTRA:                  -0.533
REMARK UNBOUND:                -0.580
REMARK  Name = 
REMARK  8 active torsions:
REMARK  status: ('A' for Active; 'I' for Inactive)
REMARK    1  A    between atoms: C_1  and  C_2
REMARK    2  A    between atoms: C_3  and  C_4
REMARK    3  A    between atoms: C_9  and  C_10
REMARK    4  A    between atoms: C_10  and  C_11
REMARK    5  A    between atoms: C_11  and  O_12
REMARK    6  A    between atoms: O_12  and  C_13
REMARK    7  A    between atoms: C_17  and  C_18
REMARK    8  A    between atoms: C_18  and  N_19
REMARK                            x       y       z     vdW  Elec       q    Type
REMARK                         _______ _______ _______ _____ _____    ______ ____
ROOT
ATOM      1  C   UNL     1      44.586   4.600  10.459  0.00  0.00    +0.000 C 
ENDROOT
BRANCH   1   2
ATOM      2  C   UNL     1      45.449   5.849  10.710  0.00  0.00    +0.000 C 
BRANCH   2   9
ATOM      3  C   UNL     1      47.638   7.732  11.634  0.00  0.00    +0.000 C 
ATOM      4  C   UNL     1      47.190   6.569  12.475  0.00  0.00    +0.000 A 
ATOM      5  C   UNL     1      47.822   6.258  13.701  0.00  0.00    +0.000 A 
ATOM      6  C   UNL     1      47.326   5.243  14.517  0.00  0.00    +0.000 A 
ATOM      7  C   UNL     1      46.220   4.555  14.089  0.00  0.00    +0.000 A 
ATOM      8  N   UNL     1      45.636   4.780  12.900  0.00  0.00    +0.000 NA
ATOM      9  C   UNL     1      46.121   5.753  12.079  0.00  0.00    +0.000 A 
BRANCH   5  10
ATOM     10  C   UNL     1      49.000   6.947  14.153  0.00  0.00    +0.000 C 
ATOM     11  N   UNL     1      49.955   7.506  14.494  0.00  0.00    +0.000 NA
ENDBRANCH   5  10
ENDBRANCH   2   9
ENDBRANCH   1   2
BRANCH   1  12
ATOM     12  O   UNL     1      44.256   4.323   9.089  0.00  0.00    +0.000 OA
BRANCH  12  13
ATOM     13  C   UNL     1      45.016   3.293   8.552  0.00  0.00    +0.000 A 
ATOM     14  C   UNL     1      45.074   1.992   9.077  0.00  0.00    +0.000 A 
ATOM     15  C   UNL     1      45.867   1.007   8.490  0.00  0.00    +0.000 A 
ATOM     16  C   UNL     1      46.618   1.310   7.363  0.00  0.00    +0.000 A 
ATOM     17  C   UNL     1      46.588   2.598   6.810  0.00  0.00    +0.000 A 
ATOM     18  C   UNL     1      45.776   3.586   7.411  0.00  0.00    +0.000 A 
BRANCH  17  19
ATOM     19  C   UNL     1      47.416   2.879   5.580  0.00  0.00    +0.000 C 
BRANCH  19  20
ATOM     20  N   UNL     1      48.486   1.898   5.424  0.00  0.00    +0.000 NA
ATOM     21  H   UNL     1      49.195   2.071   6.134  0.00  0.00    +0.000 HD
ATOM     22  H   UNL     1      48.937   2.028   4.522  0.00  0.00    +0.000 HD
ENDBRANCH  19  20
ENDBRANCH  17  19
ENDBRANCH  12  13
ENDBRANCH   1  12
TORSDOF 7
ENDMDL
MODEL 3
REMARK VINA RESULT:    -6.339      2.163      6.508
REMARK INTER + INTRA:          -9.328
REMARK INTER:                  -8.626
REMARK INTRA:                  -0.701
REMARK UNBOUND:                -0.580
REMARK  Name = 
REMARK  8 active torsions:
REMARK  status: ('A' for Active; 'I' for Inactive)
REMARK    1  A    between atoms: C_1  and  C_2
REMARK    2  A    between atoms: C_3  and  C_4
REMARK    3  A    between atoms: C_9  and  C_10
REMARK    4  A    between atoms: C_10  and  C_11
REMARK    5  A    between atoms: C_11  and  O_12
REMARK    6  A    between atoms: O_12  and  C_13
REMARK    7  A    between atoms: C_17  and  C_18
REMARK    8  A    between atoms: C_18  and  N_19
REMARK                            x       y       z     vdW  Elec       q    Type
REMARK                         _______ _______ _______ _____ _____    ______ ____
ROOT
ATOM      1  C   UNL     1      43.550   3.362  11.276  0.00  0.00    +0.000 C 
ENDROOT
BRANCH   1   2
ATOM      2  C   UNL     1      44.246   2.268  10.447  0.00  0.00    +0.000 C 
BRANCH   2   9
ATOM      3  C   UNL     1      45.711   0.669   8.329  0.00  0.00    +0.000 C 
ATOM      4  C   UNL     1      45.822   2.166   8.405  0.00  0.00    +0.000 A 
ATOM      5  C   UNL     1      46.673   2.888   7.537  0.00  0.00    +0.000 A 
ATOM      6  C   UNL     1      46.684   4.282   7.551  0.00  0.00    +0.000 A 
ATOM      7  C   UNL     1      45.854   4.923   8.434  0.00  0.00    +0.000 A 
ATOM      8  N   UNL     1      45.082   4.268   9.317  0.00  0.00    +0.000 NA
ATOM      9  C   UNL     1      45.076   2.906   9.333  0.00  0.00    +0.000 A 
BRANCH   5  10
ATOM     10  C   UNL     1      47.573   2.234   6.625  0.00  0.00    +0.000 C 
ATOM     11  N   UNL     1      48.281   1.712   5.873  0.00  0.00    +0.000 NA
ENDBRANCH   5  10
ENDBRANCH   2   9
ENDBRANCH   1   2
BRANCH   1  12
ATOM     12  O   UNL     1      43.963   3.478  12.647  0.00  0.00    +0.000 OA
BRANCH  12  13
ATOM     13  C   UNL     1      44.932   4.454  12.834  0.00  0.00    +0.000 A 
ATOM     14  C   UNL     1      46.233   4.201  13.299  0.00  0.00    +0.000 A 
ATOM     15  C   UNL     1      47.155   5.233  13.471  0.00  0.00    +0.000 A 
ATOM     16  C   UNL     1      46.788   6.539  13.179  0.00  0.00    +0.000 A 
ATOM     17  C   UNL     1      45.499   6.831  12.714  0.00  0.00    +0.000 A 
ATOM     18  C   UNL     1      44.575   5.777  12.538  0.00  0.00    +0.000 A 
BRANCH  17  19
ATOM     19  C   UNL     1      45.148   8.266  12.403  0.00  0.00    +0.000 C 
BRANCH  19  20
ATOM     20  N   UNL     1      44.253   8.357  11.252  0.00  0.00    +0.000 NA
ATOM     21  H   UNL     1      43.496   7.687  11.372  0.00  0.00    +0.000 HD
ATOM     22  H   UNL     1      44.754   8.085  10.410  0.00  0.00    +0.000 HD
ENDBRANCH  19  20
ENDBRANCH  17  19
ENDBRANCH  12  13
ENDBRANCH   1  12
TORSDOF 7
ENDMDL
MODEL 4
REMARK VINA RESULT:    -6.163      2.563      3.767
REMARK INTER + INTRA:          -9.084
REMARK INTER:                  -8.048
REMARK INTRA:                  -1.036
REMARK UNBOUND:                -0.580
REMARK  Name = 
REMARK  8 active torsions:
REMARK  status: ('A' for Active; 'I' for Inactive)
REMARK    1  A    between atoms: C_1  and  C_2
REMARK    2  A    between atoms: C_3  and  C_4
REMARK    3  A    between atoms: C_9  and  C_10
REMARK    4  A    between atoms: C_10  and  C_11
REMARK    5  A    between atoms: C_11  and  O_12
REMARK    6  A    between atoms: O_12  and  C_13
REMARK    7  A    between atoms: C_17  and  C_18
REMARK    8  A    between atoms: C_18  and  N_19
REMARK                            x       y       z     vdW  Elec       q    Type
REMARK                         _______ _______ _______ _____ _____    ______ ____
ROOT
ATOM      1  C   UNL     1      46.183   7.437  12.416  0.00  0.00    +0.000 C 
ENDROOT
BRANCH   1   2
ATOM      2  C   UNL     1      47.354   6.439  12.413  0.00  0.00    +0.000 C 
BRANCH   2   9
ATOM      3  C   UNL     1      46.667   3.842  13.817  0.00  0.00    +0.000 C 
ATOM      4  C   UNL     1      47.384   4.957  14.526  0.00  0.00    +0.000 A 
ATOM      5  C   UNL     1      47.704   4.872  15.901  0.00  0.00    +0.000 A 
ATOM      6  C   UNL     1      48.461   5.868  16.516  0.00  0.00    +0.000 A 
ATOM      7  C   UNL     1      48.873   6.929  15.751  0.00  0.00    +0.000 A 
ATOM      8  N   UNL     1      48.531   7.073  14.460  0.00  0.00    +0.000 NA
ATOM      9  C   UNL     1      47.773   6.120  13.848  0.00  0.00    +0.000 A 
BRANCH   5  10
ATOM     10  C   UNL     1      47.255   3.784  16.728  0.00  0.00    +0.000 C 
ATOM     11  N   UNL     1      46.913   2.894  17.383  0.00  0.00    +0.000 NA
ENDBRANCH   5  10
ENDBRANCH   2   9
ENDBRANCH   1   2
BRANCH   1  12
ATOM     12  O   UNL     1      45.147   7.202  11.448  0.00  0.00    +0.000 OA
BRANCH  12  13
ATOM     13  C   UNL     1      44.550   5.957  11.595  0.00  0.00    +0.000 A 
ATOM     14  C   UNL     1      43.763   5.580  12.696  0.00  0.00    +0.000 A 
ATOM     15  C   UNL     1      43.198   4.308  12.781  0.00  0.00    +0.000 A 
ATOM     16  C   UNL     1      43.411   3.391  11.763  0.00  0.00    +0.000 A 
ATOM     17  C   UNL     1      44.191   3.730  10.648  0.00  0.00    +0.000 A 
ATOM     18  C   UNL     1      44.754   5.023  10.570  0.00  0.00    +0.000 A 
BRANCH  17  19
ATOM     19  C   UNL     1      44.390   2.702   9.562  0.00  0.00    +0.000 C 
BRANCH  19  20
ATOM     20  N   UNL     1      44.413   3.321   8.240  0.00  0.00    +0.000 NA
ATOM     21  H   UNL     1      45.034   4.128   8.267  0.00  0.00    +0.000 HD
ATOM     22  H   UNL     1      43.486   3.673   8.014  0.00  0.00    +0.000 HD
ENDBRANCH  19  20
ENDBRANCH  17  19
ENDBRANCH  12  13
ENDBRANCH   1  12
TORSDOF 7
ENDMDL
MODEL 5
REMARK VINA RESULT:    -5.870      2.808      7.108
REMARK INTER + INTRA:          -8.681
REMARK INTER:                  -7.982
REMARK INTRA:                  -0.699
REMARK UNBOUND:                -0.580
REMARK  Name = 
REMARK  8 active torsions:
REMARK  status: ('A' for Active; 'I' for Inactive)
REMARK    1  A    between atoms: C_1  and  C_2
REMARK    2  A    between atoms: C_3  and  C_4
REMARK    3  A    between atoms: C_9  and  C_10
REMARK    4  A    between atoms: C_10  and  C_11
REMARK    5  A    between atoms: C_11  and  O_12
REMARK    6  A    between atoms: O_12  and  C_13
REMARK    7  A    between atoms: C_17  and  C_18
REMARK    8  A    between atoms: C_18  and  N_19
REMARK                            x       y       z     vdW  Elec       q    Type
REMARK                         _______ _______ _______ _____ _____    ______ ____
ROOT
ATOM      1  C   UNL     1      46.365   7.380  12.870  0.00  0.00    +0.000 C 
ENDROOT
BRANCH   1   2
ATOM      2  C   UNL     1      45.093   7.250  12.014  0.00  0.00    +0.000 C 
BRANCH   2   9
ATOM      3  C   UNL     1      45.785   5.387   9.725  0.00  0.00    +0.000 C 
ATOM      4  C   UNL     1      44.898   4.950  10.858  0.00  0.00    +0.000 A 
ATOM      5  C   UNL     1      44.288   3.675  10.869  0.00  0.00    +0.000 A 
ATOM      6  C   UNL     1      43.555   3.248  11.975  0.00  0.00    +0.000 A 
ATOM      7  C   UNL     1      43.440   4.104  13.041  0.00  0.00    +0.000 A 
ATOM      8  N   UNL     1      43.952   5.346  13.036  0.00  0.00    +0.000 NA
ATOM      9  C   UNL     1      44.651   5.788  11.954  0.00  0.00    +0.000 A 
BRANCH   5  10
ATOM     10  C   UNL     1      44.371   2.775   9.750  0.00  0.00    +0.000 C 
ATOM     11  N   UNL     1      44.416   2.040   8.857  0.00  0.00    +0.000 NA
ENDBRANCH   5  10
ENDBRANCH   2   9
ENDBRANCH   1   2
BRANCH   1  12
ATOM     12  O   UNL     1      47.194   6.210  12.957  0.00  0.00    +0.000 OA
BRANCH  12  13
ATOM     13  C   UNL     1      47.700   6.005  14.233  0.00  0.00    +0.000 A 
ATOM     14  C   UNL     1      48.424   6.963  14.963  0.00  0.00    +0.000 A 
ATOM     15  C   UNL     1      48.910   6.687  16.239  0.00  0.00    +0.000 A 
ATOM     16  C   UNL     1      48.679   5.444  16.810  0.00  0.00    +0.000 A 
ATOM     17  C   UNL     1      47.961   4.461  16.113  0.00  0.00    +0.000 A 
ATOM     18  C   UNL     1      47.469   4.754  14.822  0.00  0.00    +0.000 A 
BRANCH  17  19
ATOM     19  C   UNL     1      47.729   3.126  16.776  0.00  0.00    +0.000 C 
BRANCH  19  20
ATOM     20  N   UNL     1      46.510   3.136  17.581  0.00  0.00    +0.000 NA
ATOM     21  H   UNL     1      45.763   3.563  17.037  0.00  0.00    +0.000 HD
ATOM     22  H   UNL     1      46.649   3.723  18.400  0.00  0.00    +0.000 HD
ENDBRANCH  19  20
ENDBRANCH  17  19
ENDBRANCH  12  13
ENDBRANCH   1  12
TORSDOF 7
ENDMDL
MODEL 6
REMARK VINA RESULT:    -5.785      2.188      3.709
REMARK INTER + INTRA:          -8.563
REMARK INTER:                  -8.127
REMARK INTRA:                  -0.436
REMARK UNBOUND:                -0.580
REMARK  Name = 
REMARK  8 active torsions:
REMARK  status: ('A' for Active; 'I' for Inactive)
REMARK    1  A    between atoms: C_1  and  C_2
REMARK    2  A    between atoms: C_3  and  C_4
REMARK    3  A    between atoms: C_9  and  C_10
REMARK    4  A    between atoms: C_10  and  C_11
REMARK    5  A    between atoms: C_11  and  O_12
REMARK    6  A    between atoms: O_12  and  C_13
REMARK    7  A    between atoms: C_17  and  C_18
REMARK    8  A    between atoms: C_18  and  N_19
REMARK                            x       y       z     vdW  Elec       q    Type
REMARK                         _______ _______ _______ _____ _____    ______ ____
ROOT
ATOM      1  C   UNL     1      45.633   5.434  10.657  0.00  0.00    +0.000 C 
ENDROOT
BRANCH   1   2
ATOM      2  C   UNL     1      44.703   6.276  11.548  0.00  0.00    +0.000 C 
BRANCH   2   9
ATOM      3  C   UNL     1      43.816   9.107  10.926  0.00  0.00    +0.000 C 
ATOM      4  C   UNL     1      45.080   8.826  11.689  0.00  0.00    +0.000 A 
ATOM      5  C   UNL     1      45.950   9.868  12.086  0.00  0.00    +0.000 A 
ATOM      6  C   UNL     1      47.062   9.599  12.883  0.00  0.00    +0.000 A 
ATOM      7  C   UNL     1      47.287   8.298  13.257  0.00  0.00    +0.000 A 
ATOM      8  N   UNL     1      46.519   7.278  12.843  0.00  0.00    +0.000 NA
ATOM      9  C   UNL     1      45.440   7.519  12.045  0.00  0.00    +0.000 A 
BRANCH   5  10
ATOM     10  C   UNL     1      45.749  11.232  11.680  0.00  0.00    +0.000 C 
ATOM     11  N   UNL     1      45.611  12.336  11.359  0.00  0.00    +0.000 NA
ENDBRANCH   5  10
ENDBRANCH   2   9
ENDBRANCH   1   2
BRANCH   1  12
ATOM     12  O   UNL     1      45.243   5.299   9.281  0.00  0.00    +0.000 OA
BRANCH  12  13
ATOM     13  C   UNL     1      45.543   4.048   8.760  0.00  0.00    +0.000 A 
ATOM     14  C   UNL     1      45.125   2.832   9.325  0.00  0.00    +0.000 A 
ATOM     15  C   UNL     1      45.470   1.609   8.751  0.00  0.00    +0.000 A 
ATOM     16  C   UNL     1      46.240   1.583   7.598  0.00  0.00    +0.000 A 
ATOM     17  C   UNL     1      46.678   2.776   7.004  0.00  0.00    +0.000 A 
ATOM     18  C   UNL     1      46.318   4.009   7.592  0.00  0.00    +0.000 A 
BRANCH  17  19
ATOM     19  C   UNL     1      47.508   2.699   5.747  0.00  0.00    +0.000 C 
BRANCH  19  20
ATOM     20  N   UNL     1      48.476   1.607   5.815  0.00  0.00    +0.000 NA
ATOM     21  H   UNL     1      47.997   0.763   6.122  0.00  0.00    +0.000 HD
ATOM     22  H   UNL     1      49.177   1.819   6.520  0.00  0.00    +0.000 HD
ENDBRANCH  19  20
ENDBRANCH  17  19
ENDBRANCH  12  13
ENDBRANCH   1  12
TORSDOF 7
ENDMDL
MODEL 7
REMARK VINA RESULT:    -5.773      4.354      6.442
REMARK INTER + INTRA:          -8.546
REMARK INTER:                  -7.711
REMARK INTRA:                  -0.836
REMARK UNBOUND:                -0.580
REMARK  Name = 
REMARK  8 active torsions:
REMARK  status: ('A' for Active; 'I' for Inactive)
REMARK    1  A    between atoms: C_1  and  C_2
REMARK    2  A    between atoms: C_3  and  C_4
REMARK    3  A    between atoms: C_9  and  C_10
REMARK    4  A    between atoms: C_10  and  C_11
REMARK    5  A    between atoms: C_11  and  O_12
REMARK    6  A    between atoms: O_12  and  C_13
REMARK    7  A    between atoms: C_17  and  C_18
REMARK    8  A    between atoms: C_18  and  N_19
REMARK                            x       y       z     vdW  Elec       q    Type
REMARK                         _______ _______ _______ _____ _____    ______ ____
ROOT
ATOM      1  C   UNL     1      48.787   7.360  15.654  0.00  0.00    +0.000 C 
ENDROOT
BRANCH   1   2
ATOM      2  C   UNL     1      49.212   6.917  17.064  0.00  0.00    +0.000 C 
BRANCH   2   9
ATOM      3  C   UNL     1      51.394   4.836  17.377  0.00  0.00    +0.000 C 
ATOM      4  C   UNL     1      49.942   4.453  17.309  0.00  0.00    +0.000 A 
ATOM      5  C   UNL     1      49.535   3.099  17.314  0.00  0.00    +0.000 A 
ATOM      6  C   UNL     1      48.182   2.765  17.357  0.00  0.00    +0.000 A 
ATOM      7  C   UNL     1      47.267   3.786  17.384  0.00  0.00    +0.000 A 
ATOM      8  N   UNL     1      47.618   5.081  17.315  0.00  0.00    +0.000 NA
ATOM      9  C   UNL     1      48.935   5.425  17.249  0.00  0.00    +0.000 A 
BRANCH   5  10
ATOM     10  C   UNL     1      50.477   2.014  17.254  0.00  0.00    +0.000 C 
ATOM     11  N   UNL     1      51.234   1.139  17.232  0.00  0.00    +0.000 NA
ENDBRANCH   5  10
ENDBRANCH   2   9
ENDBRANCH   1   2
BRANCH   1  12
ATOM     12  O   UNL     1      49.196   6.509  14.571  0.00  0.00    +0.000 OA
BRANCH  12  13
ATOM     13  C   UNL     1      48.219   6.379  13.593  0.00  0.00    +0.000 A 
ATOM     14  C   UNL     1      48.183   7.125  12.404  0.00  0.00    +0.000 A 
ATOM     15  C   UNL     1      47.166   6.948  11.467  0.00  0.00    +0.000 A 
ATOM     16  C   UNL     1      46.165   6.017  11.706  0.00  0.00    +0.000 A 
ATOM     17  C   UNL     1      46.166   5.253  12.881  0.00  0.00    +0.000 A 
ATOM     18  C   UNL     1      47.205   5.438  13.821  0.00  0.00    +0.000 A 
BRANCH  17  19
ATOM     19  C   UNL     1      45.061   4.249  13.095  0.00  0.00    +0.000 C 
BRANCH  19  20
ATOM     20  N   UNL     1      45.420   2.940  12.554  0.00  0.00    +0.000 NA
ATOM     21  H   UNL     1      45.509   2.281  13.325  0.00  0.00    +0.000 HD
ATOM     22  H   UNL     1      46.332   2.996  12.109  0.00  0.00    +0.000 HD
ENDBRANCH  19  20
ENDBRANCH  17  19
ENDBRANCH  12  13
ENDBRANCH   1  12
TORSDOF 7
ENDMDL
MODEL 8
REMARK VINA RESULT:    -5.750      3.831      6.261
REMARK INTER + INTRA:          -8.514
REMARK INTER:                  -8.059
REMARK INTRA:                  -0.455
REMARK UNBOUND:                -0.580
REMARK  Name = 
REMARK  8 active torsions:
REMARK  status: ('A' for Active; 'I' for Inactive)
REMARK    1  A    between atoms: C_1  and  C_2
REMARK    2  A    between atoms: C_3  and  C_4
REMARK    3  A    between atoms: C_9  and  C_10
REMARK    4  A    between atoms: C_10  and  C_11
REMARK    5  A    between atoms: C_11  and  O_12
REMARK    6  A    between atoms: O_12  and  C_13
REMARK    7  A    between atoms: C_17  and  C_18
REMARK    8  A    between atoms: C_18  and  N_19
REMARK                            x       y       z     vdW  Elec       q    Type
REMARK                         _______ _______ _______ _____ _____    ______ ____
ROOT
ATOM      1  C   UNL     1      47.316   4.456  15.406  0.00  0.00    +0.000 C 
ENDROOT
BRANCH   1   2
ATOM      2  C   UNL     1      47.281   3.659  16.721  0.00  0.00    +0.000 C 
BRANCH   2   9
ATOM      3  C   UNL     1      49.044   5.153  18.683  0.00  0.00    +0.000 C 
ATOM      4  C   UNL     1      49.540   3.945  17.938  0.00  0.00    +0.000 A 
ATOM      5  C   UNL     1      50.875   3.496  18.064  0.00  0.00    +0.000 A 
ATOM      6  C   UNL     1      51.287   2.315  17.449  0.00  0.00    +0.000 A 
ATOM      7  C   UNL     1      50.364   1.614  16.716  0.00  0.00    +0.000 A 
ATOM      8  N   UNL     1      49.108   2.046  16.522  0.00  0.00    +0.000 NA
ATOM      9  C   UNL     1      48.693   3.210  17.096  0.00  0.00    +0.000 A 
BRANCH   5  10
ATOM     10  C   UNL     1      51.865   4.232  18.803  0.00  0.00    +0.000 C 
ATOM     11  N   UNL     1      52.666   4.804  19.412  0.00  0.00    +0.000 NA
ENDBRANCH   5  10
ENDBRANCH   2   9
ENDBRANCH   1   2
BRANCH   1  12
ATOM     12  O   UNL     1      47.287   3.684  14.194  0.00  0.00    +0.000 OA
BRANCH  12  13
ATOM     13  C   UNL     1      46.539   4.287  13.192  0.00  0.00    +0.000 A 
ATOM     14  C   UNL     1      46.679   5.627  12.794  0.00  0.00    +0.000 A 
ATOM     15  C   UNL     1      45.888   6.169  11.784  0.00  0.00    +0.000 A 
ATOM     16  C   UNL     1      44.940   5.378  11.151  0.00  0.00    +0.000 A 
ATOM     17  C   UNL     1      44.770   4.036  11.521  0.00  0.00    +0.000 A 
ATOM     18  C   UNL     1      45.581   3.495  12.543  0.00  0.00    +0.000 A 
BRANCH  17  19
ATOM     19  C   UNL     1      43.732   3.211  10.801  0.00  0.00    +0.000 C 
BRANCH  19  20
ATOM     20  N   UNL     1      43.057   2.291  11.712  0.00  0.00    +0.000 NA
ATOM     21  H   UNL     1      42.145   2.676  11.950  0.00  0.00    +0.000 HD
ATOM     22  H   UNL     1      43.583   2.226  12.580  0.00  0.00    +0.000 HD
ENDBRANCH  19  20
ENDBRANCH  17  19
ENDBRANCH  12  13
ENDBRANCH   1  12
TORSDOF 7
ENDMDL
MODEL 9
REMARK VINA RESULT:    -5.681      4.731      8.093
REMARK INTER + INTRA:          -8.419
REMARK INTER:                  -7.937
REMARK INTRA:                  -0.482
REMARK UNBOUND:                -0.580
REMARK  Name = 
REMARK  8 active torsions:
REMARK  status: ('A' for Active; 'I' for Inactive)
REMARK    1  A    between atoms: C_1  and  C_2
REMARK    2  A    between atoms: C_3  and  C_4
REMARK    3  A    between atoms: C_9  and  C_10
REMARK    4  A    between atoms: C_10  and  C_11
REMARK    5  A    between atoms: C_11  and  O_12
REMARK    6  A    between atoms: O_12  and  C_13
REMARK    7  A    between atoms: C_17  and  C_18
REMARK    8  A    between atoms: C_18  and  N_19
REMARK                            x       y       z     vdW  Elec       q    Type
REMARK                         _______ _______ _______ _____ _____    ______ ____
ROOT
ATOM      1  C   UNL     1      46.990   4.262  15.371  0.00  0.00    +0.000 C 
ENDROOT
BRANCH   1   2
ATOM      2  C   UNL     1      46.959   3.921  13.872  0.00  0.00    +0.000 C 
BRANCH   2   9
ATOM      3  C   UNL     1      47.145   6.519  12.322  0.00  0.00    +0.000 C 
ATOM      4  C   UNL     1      45.827   5.837  12.563  0.00  0.00    +0.000 A 
ATOM      5  C   UNL     1      44.608   6.415  12.141  0.00  0.00    +0.000 A 
ATOM      6  C   UNL     1      43.407   5.719  12.279  0.00  0.00    +0.000 A 
ATOM      7  C   UNL     1      43.449   4.469  12.843  0.00  0.00    +0.000 A 
ATOM      8  N   UNL     1      44.579   3.919  13.313  0.00  0.00    +0.000 NA
ATOM      9  C   UNL     1      45.758   4.594  13.207  0.00  0.00    +0.000 A 
BRANCH   5  10
ATOM     10  C   UNL     1      44.539   7.736  11.577  0.00  0.00    +0.000 C 
ATOM     11  N   UNL     1      44.472   8.807  11.143  0.00  0.00    +0.000 NA
ENDBRANCH   5  10
ENDBRANCH   2   9
ENDBRANCH   1   2
BRANCH   1  12
ATOM     12  O   UNL     1      47.355   3.192  16.258  0.00  0.00    +0.000 OA
BRANCH  12  13
ATOM     13  C   UNL     1      48.620   3.358  16.806  0.00  0.00    +0.000 A 
ATOM     14  C   UNL     1      49.107   4.568  17.326  0.00  0.00    +0.000 A 
ATOM     15  C   UNL     1      50.393   4.664  17.855  0.00  0.00    +0.000 A 
ATOM     16  C   UNL     1      51.215   3.547  17.873  0.00  0.00    +0.000 A 
ATOM     17  C   UNL     1      50.765   2.322  17.362  0.00  0.00    +0.000 A 
ATOM     18  C   UNL     1      49.458   2.234  16.833  0.00  0.00    +0.000 A 
BRANCH  17  19
ATOM     19  C   UNL     1      51.693   1.132  17.409  0.00  0.00    +0.000 C 
BRANCH  19  20
ATOM     20  N   UNL     1      52.698   1.282  18.457  0.00  0.00    +0.000 NA
ATOM     21  H   UNL     1      52.318   0.920  19.329  0.00  0.00    +0.000 HD
ATOM     22  H   UNL     1      52.887   2.270  18.607  0.00  0.00    +0.000 HD
ENDBRANCH  19  20
ENDBRANCH  17  19
ENDBRANCH  12  13
ENDBRANCH   1  12
TORSDOF 7
ENDMDL
