MODEL 1
REMARK VINA RESULT:    -8.715      0.000      0.000
REMARK INTER + INTRA:         -12.729
REMARK INTER:                 -11.772
REMARK INTRA:                  -0.956
REMARK UNBOUND:                -0.956
REMARK  Name = 
REMARK  8 active torsions:
REMARK  status: ('A' for Active; 'I' for Inactive)
REMARK    1  A    between atoms: C_1  and  C_2
REMARK    2  A    between atoms: C_4  and  C_5
REMARK    3  A    between atoms: C_5  and  C_6
REMARK    4  A    between atoms: C_5  and  C_7
REMARK    5  A    between atoms: C_7  and  O_8
REMARK    6  A    between atoms: O_8  and  C_9
REMARK    7  A    between atoms: C_12  and  C_13
REMARK    8  A    between atoms: C_19  and  C_20
REMARK                            x       y       z     vdW  Elec       q    Type
REMARK                         _______ _______ _______ _____ _____    ______ ____
ROOT
ATOM      1  C   UNL     1      43.866   4.706  12.409  0.00  0.00    +0.000 C 
ATOM      2  C   UNL     1      43.190   5.816  11.601  0.00  0.00    +0.000 C 
ENDROOT
BRANCH   1   6
ATOM      3  C   UNL     1      48.157   7.305  11.654  0.00  0.00    +0.000 C 
ATOM      4  C   UNL     1      47.313   6.374  12.473  0.00  0.00    +0.000 A 
ATOM      5  C   UNL     1      46.048   6.002  12.035  0.00  0.00    +0.000 A 
ATOM      6  C   UNL     1      45.273   5.130  12.806  0.00  0.00    +0.000 A 
ATOM      7  C   UNL     1      45.819   4.672  14.008  0.00  0.00    +0.000 A 
ATOM      8  C   UNL     1      47.096   5.081  14.395  0.00  0.00    +0.000 A 
ATOM      9  N   UNL     1      47.837   5.929  13.636  0.00  0.00    +0.000 NA
BRANCH   8  10
ATOM     10  C   UNL     1      47.730   4.618  15.645  0.00  0.00    +0.000 A 
ATOM     11  C   UNL     1      47.663   3.264  16.033  0.00  0.00    +0.000 A 
ATOM     12  C   UNL     1      48.254   2.813  17.219  0.00  0.00    +0.000 A 
ATOM     13  C   UNL     1      48.923   3.711  18.045  0.00  0.00    +0.000 A 
ATOM     14  C   UNL     1      48.995   5.046  17.676  0.00  0.00    +0.000 A 
ATOM     15  F   UNL     1      49.633   5.918  18.469  0.00  0.00    +0.000 F 
ATOM     16  C   UNL     1      48.411   5.502  16.498  0.00  0.00    +0.000 A 
ENDBRANCH   8  10
ENDBRANCH   1   6
BRANCH   1  17
ATOM     17  C   UNL     1      43.862   3.374  11.643  0.00  0.00    +0.000 C 
BRANCH  17  18
ATOM     18  O   UNL     1      43.528   3.557  10.265  0.00  0.00    +0.000 OA
BRANCH  18  19
ATOM     19  C   UNL     1      44.515   3.203   9.393  0.00  0.00    +0.000 A 
ATOM     20  C   UNL     1      45.006   1.932   9.153  0.00  0.00    +0.000 A 
ATOM     21  N   UNL     1      45.970   1.643   8.254  0.00  0.00    +0.000 NA
ATOM     22  C   UNL     1      46.458   2.704   7.571  0.00  0.00    +0.000 A 
ATOM     23  N   UNL     1      46.072   3.986   7.728  0.00  0.00    +0.000 NA
ATOM     24  C   UNL     1      45.105   4.201   8.644  0.00  0.00    +0.000 A 
BRANCH  22  25
ATOM     25  C   UNL     1      47.518   2.404   6.536  0.00  0.00    +0.000 C 
ATOM     26  N   UNL     1      47.405   3.092   5.347  0.00  0.00    +0.000 N 
ATOM     27  O   UNL     1      48.435   1.614   6.707  0.00  0.00    +0.000 OA
ATOM     28  H   UNL     1      46.652   3.753   5.203  0.00  0.00    +0.000 HD
ATOM     29  H   UNL     1      48.096   2.932   4.629  0.00  0.00    +0.000 HD
ENDBRANCH  22  25
ENDBRANCH  18  19
ENDBRANCH  17  18
ENDBRANCH   1  17
TORSDOF 6
ENDMDL
MODEL 2
REMARK VINA RESULT:    -8.368      1.969      4.010
REMARK INTER + INTRA:         -12.259
REMARK INTER:                 -11.315
REMARK INTRA:                  -0.944
REMARK UNBOUND:                -0.956
REMARK  Name = 
REMARK  8 active torsions:
REMARK  status: ('A' for Active; 'I' for Inactive)
REMARK    1  A    between atoms: C_1  and  C_2
REMARK    2  A    between atoms: C_4  and  C_5
REMARK    3  A    between atoms: C_5  and  C_6
REMARK    4  A    between atoms: C_5  and  C_7
REMARK    5  A    between atoms: C_7  and  O_8
REMARK    6  A    between atoms: O_8  and  C_9
REMARK    7  A    between atoms: C_12  and  C_13
REMARK    8  A    between atoms: C_19  and  C_20
REMARK                            x       y       z     vdW  Elec       q    Type
REMARK                         _______ _______ _______ _____ _____    ______ ____
ROOT
ATOM      1  C   UNL     1      43.921   4.594  12.456  0.00  0.00    +0.000 C 
ATOM      2  C   UNL     1      43.381   5.753  11.615  0.00  0.00    +0.000 C 
ENDROOT
BRANCH   1   6
ATOM      3  C   UNL     1      47.653   3.970  15.835  0.00  0.00    +0.000 C 
ATOM      4  C   UNL     1      47.057   4.676  14.653  0.00  0.00    +0.000 A 
ATOM      5  C   UNL     1      45.810   4.301  14.166  0.00  0.00    +0.000 A 
ATOM      6  C   UNL     1      45.263   4.970  13.066  0.00  0.00    +0.000 A 
ATOM      7  C   UNL     1      46.018   5.998  12.495  0.00  0.00    +0.000 A 
ATOM      8  C   UNL     1      47.264   6.329  13.029  0.00  0.00    +0.000 A 
ATOM      9  N   UNL     1      47.783   5.670  14.097  0.00  0.00    +0.000 NA
BRANCH   8  10
ATOM     10  C   UNL     1      48.098   7.415  12.478  0.00  0.00    +0.000 A 
ATOM     11  C   UNL     1      49.485   7.242  12.294  0.00  0.00    +0.000 A 
ATOM     12  C   UNL     1      50.288   8.266  11.778  0.00  0.00    +0.000 A 
ATOM     13  C   UNL     1      49.718   9.489  11.440  0.00  0.00    +0.000 A 
ATOM     14  C   UNL     1      48.355   9.674  11.619  0.00  0.00    +0.000 A 
ATOM     15  F   UNL     1      47.800  10.851  11.300  0.00  0.00    +0.000 F 
ATOM     16  C   UNL     1      47.550   8.661  12.129  0.00  0.00    +0.000 A 
ENDBRANCH   8  10
ENDBRANCH   1   6
BRANCH   1  17
ATOM     17  C   UNL     1      44.006   3.298  11.635  0.00  0.00    +0.000 C 
BRANCH  17  18
ATOM     18  O   UNL     1      43.555   3.493  10.292  0.00  0.00    +0.000 OA
BRANCH  18  19
ATOM     19  C   UNL     1      44.512   3.293   9.341  0.00  0.00    +0.000 A 
ATOM     20  C   UNL     1      45.082   4.242   8.511  0.00  0.00    +0.000 A 
ATOM     21  N   UNL     1      46.048   3.984   7.606  0.00  0.00    +0.000 NA
ATOM     22  C   UNL     1      46.449   2.693   7.543  0.00  0.00    +0.000 A 
ATOM     23  N   UNL     1      45.959   1.680   8.286  0.00  0.00    +0.000 NA
ATOM     24  C   UNL     1      44.995   2.011   9.170  0.00  0.00    +0.000 A 
BRANCH  22  25
ATOM     25  C   UNL     1      47.552   2.381   6.558  0.00  0.00    +0.000 C 
ATOM     26  N   UNL     1      47.505   3.072   5.367  0.00  0.00    +0.000 N 
ATOM     27  O   UNL     1      48.448   1.577   6.770  0.00  0.00    +0.000 OA
ATOM     28  H   UNL     1      46.769   3.745   5.190  0.00  0.00    +0.000 HD
ATOM     29  H   UNL     1      48.226   2.904   4.681  0.00  0.00    +0.000 HD
ENDBRANCH  22  25
ENDBRANCH  18  19
ENDBRANCH  17  18
ENDBRANCH   1  17
TORSDOF 6
ENDMDL
MODEL 3
REMARK VINA RESULT:    -8.150      3.664      7.982
REMARK INTER + INTRA:         -11.965
REMARK INTER:                 -11.094
REMARK INTRA:                  -0.871
REMARK UNBOUND:                -0.956
REMARK  Name = 
REMARK  8 active torsions:
REMARK  status: ('A' for Active; 'I' for Inactive)
REMARK    1  A    between atoms: C_1  and  C_2
REMARK    2  A    between atoms: C_4  and  C_5
REMARK    3  A    between atoms: C_5  and  C_6
REMARK    4  A    between atoms: C_5  and  C_7
REMARK    5  A    between atoms: C_7  and  O_8
REMARK    6  A    between atoms: O_8  and  C_9
REMARK    7  A    between atoms: C_12  and  C_13
REMARK    8  A    between atoms: C_19  and  C_20
REMARK                            x       y       z     vdW  Elec       q    Type
REMARK                         _______ _______ _______ _____ _____    ______ ____
ROOT
ATOM      1  C   UNL     1      45.267   7.078  11.209  0.00  0.00    +0.000 C 
ATOM      2  C   UNL     1      43.925   7.782  11.424  0.00  0.00    +0.000 C 
ENDROOT
BRANCH   1   6
ATOM      3  C   UNL     1      43.169   2.540  12.069  0.00  0.00    +0.000 C 
ATOM      4  C   UNL     1      44.038   3.451  11.253  0.00  0.00    +0.000 A 
ATOM      5  C   UNL     1      44.226   4.773  11.638  0.00  0.00    +0.000 A 
ATOM      6  C   UNL     1      45.042   5.611  10.871  0.00  0.00    +0.000 A 
ATOM      7  C   UNL     1      45.634   5.067   9.728  0.00  0.00    +0.000 A 
ATOM      8  C   UNL     1      45.407   3.731   9.393  0.00  0.00    +0.000 A 
ATOM      9  N   UNL     1      44.611   2.930  10.147  0.00  0.00    +0.000 NA
BRANCH   8  10
ATOM     10  C   UNL     1      46.018   3.098   8.207  0.00  0.00    +0.000 A 
ATOM     11  C   UNL     1      46.413   3.871   7.096  0.00  0.00    +0.000 A 
ATOM     12  C   UNL     1      46.987   3.282   5.964  0.00  0.00    +0.000 A 
ATOM     13  C   UNL     1      47.174   1.904   5.918  0.00  0.00    +0.000 A 
ATOM     14  C   UNL     1      46.786   1.131   7.003  0.00  0.00    +0.000 A 
ATOM     15  F   UNL     1      46.957  -0.197   6.964  0.00  0.00    +0.000 F 
ATOM     16  C   UNL     1      46.216   1.709   8.133  0.00  0.00    +0.000 A 
ENDBRANCH   8  10
ENDBRANCH   1   6
BRANCH   1  17
ATOM     17  C   UNL     1      46.191   7.252  12.424  0.00  0.00    +0.000 C 
BRANCH  17  18
ATOM     18  O   UNL     1      47.294   6.343  12.385  0.00  0.00    +0.000 OA
BRANCH  18  19
ATOM     19  C   UNL     1      47.413   5.552  13.488  0.00  0.00    +0.000 A 
ATOM     20  C   UNL     1      47.017   4.232  13.621  0.00  0.00    +0.000 A 
ATOM     21  N   UNL     1      47.187   3.492  14.736  0.00  0.00    +0.000 NA
ATOM     22  C   UNL     1      47.787   4.132  15.766  0.00  0.00    +0.000 A 
ATOM     23  N   UNL     1      48.202   5.415  15.762  0.00  0.00    +0.000 NA
ATOM     24  C   UNL     1      47.999   6.095  14.614  0.00  0.00    +0.000 A 
BRANCH  22  25
ATOM     25  C   UNL     1      48.018   3.317  17.018  0.00  0.00    +0.000 C 
ATOM     26  N   UNL     1      46.884   2.847  17.644  0.00  0.00    +0.000 N 
ATOM     27  O   UNL     1      49.124   3.065  17.474  0.00  0.00    +0.000 OA
ATOM     28  H   UNL     1      45.966   3.046  17.266  0.00  0.00    +0.000 HD
ATOM     29  H   UNL     1      46.989   2.289  18.479  0.00  0.00    +0.000 HD
ENDBRANCH  22  25
ENDBRANCH  18  19
ENDBRANCH  17  18
ENDBRANCH   1  17
TORSDOF 6
ENDMDL
MODEL 4
REMARK VINA RESULT:    -7.946      3.765      5.963
REMARK INTER + INTRA:         -11.689
REMARK INTER:                 -10.882
REMARK INTRA:                  -0.807
REMARK UNBOUND:                -0.956
REMARK  Name = 
REMARK  8 active torsions:
REMARK  status: ('A' for Active; 'I' for Inactive)
REMARK    1  A    between atoms: C_1  and  C_2
REMARK    2  A    between atoms: C_4  and  C_5
REMARK    3  A    between atoms: C_5  and  C_6
REMARK    4  A    between atoms: C_5  and  C_7
REMARK    5  A    between atoms: C_7  and  O_8
REMARK    6  A    between atoms: O_8  and  C_9
REMARK    7  A    between atoms: C_12  and  C_13
REMARK    8  A    between atoms: C_19  and  C_20
REMARK                            x       y       z     vdW  Elec       q    Type
REMARK                         _______ _______ _______ _____ _____    ______ ____
ROOT
ATOM      1  C   UNL     1      45.070   4.973  11.796  0.00  0.00    +0.000 C 
ATOM      2  C   UNL     1      44.988   4.379  13.204  0.00  0.00    +0.000 C 
ENDROOT
BRANCH   1   6
ATOM      3  C   UNL     1      48.559   8.562  12.620  0.00  0.00    +0.000 C 
ATOM      4  C   UNL     1      47.170   8.145  12.235  0.00  0.00    +0.000 A 
ATOM      5  C   UNL     1      46.818   6.801  12.223  0.00  0.00    +0.000 A 
ATOM      6  C   UNL     1      45.519   6.425  11.865  0.00  0.00    +0.000 A 
ATOM      7  C   UNL     1      44.623   7.442  11.524  0.00  0.00    +0.000 A 
ATOM      8  C   UNL     1      45.036   8.776  11.555  0.00  0.00    +0.000 A 
ATOM      9  N   UNL     1      46.301   9.125  11.903  0.00  0.00    +0.000 NA
BRANCH   8  10
ATOM     10  C   UNL     1      44.131   9.892  11.220  0.00  0.00    +0.000 A 
ATOM     11  C   UNL     1      44.527  11.231  11.419  0.00  0.00    +0.000 A 
ATOM     12  C   UNL     1      43.675  12.298  11.111  0.00  0.00    +0.000 A 
ATOM     13  C   UNL     1      42.406  12.047  10.602  0.00  0.00    +0.000 A 
ATOM     14  C   UNL     1      42.002  10.735  10.404  0.00  0.00    +0.000 A 
ATOM     15  F   UNL     1      40.779  10.485   9.919  0.00  0.00    +0.000 F 
ATOM     16  C   UNL     1      42.843   9.668  10.706  0.00  0.00    +0.000 A 
ENDBRANCH   8  10
ENDBRANCH   1   6
BRANCH   1  17
ATOM     17  C   UNL     1      43.738   4.819  11.045  0.00  0.00    +0.000 C 
BRANCH  17  18
ATOM     18  O   UNL     1      43.625   3.534  10.427  0.00  0.00    +0.000 OA
BRANCH  18  19
ATOM     19  C   UNL     1      44.521   3.309   9.425  0.00  0.00    +0.000 A 
ATOM     20  C   UNL     1      44.965   4.215   8.477  0.00  0.00    +0.000 A 
ATOM     21  N   UNL     1      45.878   3.937   7.523  0.00  0.00    +0.000 NA
ATOM     22  C   UNL     1      46.357   2.672   7.536  0.00  0.00    +0.000 A 
ATOM     23  N   UNL     1      45.991   1.700   8.396  0.00  0.00    +0.000 NA
ATOM     24  C   UNL     1      45.074   2.049   9.322  0.00  0.00    +0.000 A 
BRANCH  22  25
ATOM     25  C   UNL     1      47.404   2.341   6.497  0.00  0.00    +0.000 C 
ATOM     26  N   UNL     1      47.369   3.102   5.349  0.00  0.00    +0.000 N 
ATOM     27  O   UNL     1      48.246   1.466   6.632  0.00  0.00    +0.000 OA
ATOM     28  H   UNL     1      46.679   3.834   5.236  0.00  0.00    +0.000 HD
ATOM     29  H   UNL     1      48.055   2.924   4.630  0.00  0.00    +0.000 HD
ENDBRANCH  22  25
ENDBRANCH  18  19
ENDBRANCH  17  18
ENDBRANCH   1  17
TORSDOF 6
ENDMDL
MODEL 5
REMARK VINA RESULT:    -7.812      3.943      8.035
REMARK INTER + INTRA:         -11.509
REMARK INTER:                 -10.803
REMARK INTRA:                  -0.706
REMARK UNBOUND:                -0.956
REMARK  Name = 
REMARK  8 active torsions:
REMARK  status: ('A' for Active; 'I' for Inactive)
REMARK    1  A    between atoms: C_1  and  C_2
REMARK    2  A    between atoms: C_4  and  C_5
REMARK    3  A    between atoms: C_5  and  C_6
REMARK    4  A    between atoms: C_5  and  C_7
REMARK    5  A    between atoms: C_7  and  O_8
REMARK    6  A    between atoms: O_8  and  C_9
REMARK    7  A    between atoms: C_12  and  C_13
REMARK    8  A    between atoms: C_19  and  C_20
REMARK                            x       y       z     vdW  Elec       q    Type
REMARK                         _______ _______ _______ _____ _____    ______ ____
ROOT
ATOM      1  C   UNL     1      46.617   7.772  11.794  0.00  0.00    +0.000 C 
ATOM      2  C   UNL     1      45.982   8.605  12.910  0.00  0.00    +0.000 C 
ENDROOT
BRANCH   1   6
ATOM      3  C   UNL     1      42.069   5.527  11.766  0.00  0.00    +0.000 C 
ATOM      4  C   UNL     1      43.487   5.624  11.289  0.00  0.00    +0.000 A 
ATOM      5  C   UNL     1      44.328   6.616  11.779  0.00  0.00    +0.000 A 
ATOM      6  C   UNL     1      45.649   6.693  11.329  0.00  0.00    +0.000 A 
ATOM      7  C   UNL     1      46.066   5.754  10.383  0.00  0.00    +0.000 A 
ATOM      8  C   UNL     1      45.175   4.780   9.928  0.00  0.00    +0.000 A 
ATOM      9  N   UNL     1      43.894   4.718  10.373  0.00  0.00    +0.000 NA
BRANCH   8  10
ATOM     10  C   UNL     1      45.562   3.752   8.941  0.00  0.00    +0.000 A 
ATOM     11  C   UNL     1      45.450   2.379   9.243  0.00  0.00    +0.000 A 
ATOM     12  C   UNL     1      45.820   1.395   8.319  0.00  0.00    +0.000 A 
ATOM     13  C   UNL     1      46.315   1.765   7.073  0.00  0.00    +0.000 A 
ATOM     14  C   UNL     1      46.434   3.113   6.764  0.00  0.00    +0.000 A 
ATOM     15  F   UNL     1      46.915   3.477   5.568  0.00  0.00    +0.000 F 
ATOM     16  C   UNL     1      46.067   4.097   7.676  0.00  0.00    +0.000 A 
ENDBRANCH   8  10
ENDBRANCH   1   6
BRANCH   1  17
ATOM     17  C   UNL     1      47.966   7.182  12.235  0.00  0.00    +0.000 C 
BRANCH  17  18
ATOM     18  O   UNL     1      48.250   7.477  13.605  0.00  0.00    +0.000 OA
BRANCH  18  19
ATOM     19  C   UNL     1      48.009   6.448  14.465  0.00  0.00    +0.000 A 
ATOM     20  C   UNL     1      47.215   5.337  14.242  0.00  0.00    +0.000 A 
ATOM     21  N   UNL     1      47.036   4.334  15.128  0.00  0.00    +0.000 NA
ATOM     22  C   UNL     1      47.698   4.477  16.299  0.00  0.00    +0.000 A 
ATOM     23  N   UNL     1      48.486   5.518  16.637  0.00  0.00    +0.000 NA
ATOM     24  C   UNL     1      48.618   6.483  15.703  0.00  0.00    +0.000 A 
BRANCH  22  25
ATOM     25  C   UNL     1      47.541   3.354  17.299  0.00  0.00    +0.000 C 
ATOM     26  N   UNL     1      48.670   3.031  18.020  0.00  0.00    +0.000 N 
ATOM     27  O   UNL     1      46.494   2.751  17.488  0.00  0.00    +0.000 OA
ATOM     28  H   UNL     1      49.536   3.533  17.872  0.00  0.00    +0.000 HD
ATOM     29  H   UNL     1      48.610   2.293  18.707  0.00  0.00    +0.000 HD
ENDBRANCH  22  25
ENDBRANCH  18  19
ENDBRANCH  17  18
ENDBRANCH   1  17
TORSDOF 6
ENDMDL
MODEL 6
REMARK VINA RESULT:    -7.635      3.063      3.949
REMARK INTER + INTRA:         -11.269
REMARK INTER:                 -10.515
REMARK INTRA:                  -0.754
REMARK UNBOUND:                -0.956
REMARK  Name = 
REMARK  8 active torsions:
REMARK  status: ('A' for Active; 'I' for Inactive)
REMARK    1  A    between atoms: C_1  and  C_2
REMARK    2  A    between atoms: C_4  and  C_5
REMARK    3  A    between atoms: C_5  and  C_6
REMARK    4  A    between atoms: C_5  and  C_7
REMARK    5  A    between atoms: C_7  and  O_8
REMARK    6  A    between atoms: O_8  and  C_9
REMARK    7  A    between atoms: C_12  and  C_13
REMARK    8  A    between atoms: C_19  and  C_20
REMARK                            x       y       z     vdW  Elec       q    Type
REMARK                         _______ _______ _______ _____ _____    ______ ____
ROOT
ATOM      1  C   UNL     1      45.025   5.143  11.665  0.00  0.00    +0.000 C 
ATOM      2  C   UNL     1      44.742   4.599  13.068  0.00  0.00    +0.000 C 
ENDROOT
BRANCH   1   6
ATOM      3  C   UNL     1      44.376  10.170  11.871  0.00  0.00    +0.000 C 
ATOM      4  C   UNL     1      45.263   8.960  11.869  0.00  0.00    +0.000 A 
ATOM      5  C   UNL     1      44.715   7.687  11.755  0.00  0.00    +0.000 A 
ATOM      6  C   UNL     1      45.553   6.568  11.751  0.00  0.00    +0.000 A 
ATOM      7  C   UNL     1      46.927   6.788  11.872  0.00  0.00    +0.000 A 
ATOM      8  C   UNL     1      47.418   8.091  11.983  0.00  0.00    +0.000 A 
ATOM      9  N   UNL     1      46.592   9.168  11.987  0.00  0.00    +0.000 NA
BRANCH   8  10
ATOM     10  C   UNL     1      48.860   8.386  12.097  0.00  0.00    +0.000 A 
ATOM     11  C   UNL     1      49.804   7.706  11.300  0.00  0.00    +0.000 A 
ATOM     12  C   UNL     1      51.174   7.973  11.403  0.00  0.00    +0.000 A 
ATOM     13  C   UNL     1      51.629   8.923  12.311  0.00  0.00    +0.000 A 
ATOM     14  C   UNL     1      50.711   9.597  13.104  0.00  0.00    +0.000 A 
ATOM     15  F   UNL     1      51.142  10.510  13.985  0.00  0.00    +0.000 F 
ATOM     16  C   UNL     1      49.347   9.339  13.006  0.00  0.00    +0.000 A 
ENDBRANCH   8  10
ENDBRANCH   1   6
BRANCH   1  17
ATOM     17  C   UNL     1      43.783   5.044  10.766  0.00  0.00    +0.000 C 
BRANCH  17  18
ATOM     18  O   UNL     1      43.600   3.719  10.260  0.00  0.00    +0.000 OA
BRANCH  18  19
ATOM     19  C   UNL     1      44.551   3.320   9.368  0.00  0.00    +0.000 A 
ATOM     20  C   UNL     1      45.158   2.079   9.287  0.00  0.00    +0.000 A 
ATOM     21  N   UNL     1      46.077   1.736   8.360  0.00  0.00    +0.000 NA
ATOM     22  C   UNL     1      46.393   2.710   7.476  0.00  0.00    +0.000 A 
ATOM     23  N   UNL     1      45.884   3.958   7.464  0.00  0.00    +0.000 NA
ATOM     24  C   UNL     1      44.971   4.230   8.420  0.00  0.00    +0.000 A 
BRANCH  22  25
ATOM     25  C   UNL     1      47.399   2.344   6.408  0.00  0.00    +0.000 C 
ATOM     26  N   UNL     1      47.438   3.178   5.312  0.00  0.00    +0.000 N 
ATOM     27  O   UNL     1      48.149   1.382   6.479  0.00  0.00    +0.000 OA
ATOM     28  H   UNL     1      46.824   3.981   5.253  0.00  0.00    +0.000 HD
ATOM     29  H   UNL     1      48.100   2.979   4.577  0.00  0.00    +0.000 HD
ENDBRANCH  22  25
ENDBRANCH  18  19
ENDBRANCH  17  18
ENDBRANCH   1  17
TORSDOF 6
ENDMDL
MODEL 7
REMARK VINA RESULT:    -7.170      4.389      7.818
REMARK INTER + INTRA:         -10.641
REMARK INTER:                  -9.607
REMARK INTRA:                  -1.034
REMARK UNBOUND:                -0.956
REMARK  Name = 
REMARK  8 active torsions:
REMARK  status: ('A' for Active; 'I' for Inactive)
REMARK    1  A    between atoms: C_1  and  C_2
REMARK    2  A    between atoms: C_4  and  C_5
REMARK    3  A    between atoms: C_5  and  C_6
REMARK    4  A    between atoms: C_5  and  C_7
REMARK    5  A    between atoms: C_7  and  O_8
REMARK    6  A    between atoms: O_8  and  C_9
REMARK    7  A    between atoms: C_12  and  C_13
REMARK    8  A    between atoms: C_19  and  C_20
REMARK                            x       y       z     vdW  Elec       q    Type
REMARK                         _______ _______ _______ _____ _____    ______ ____
ROOT
ATOM      1  C   UNL     1      49.012   8.194  12.091  0.00  0.00    +0.000 C 
ATOM      2  C   UNL     1      49.425   9.658  12.262  0.00  0.00    +0.000 C 
ENDROOT
BRANCH   1   6
ATOM      3  C   UNL     1      44.373  10.225  11.805  0.00  0.00    +0.000 C 
ATOM      4  C   UNL     1      45.287   9.036  11.811  0.00  0.00    +0.000 A 
ATOM      5  C   UNL     1      46.659   9.204  11.960  0.00  0.00    +0.000 A 
ATOM      6  C   UNL     1      47.499   8.087  11.968  0.00  0.00    +0.000 A 
ATOM      7  C   UNL     1      46.907   6.830  11.814  0.00  0.00    +0.000 A 
ATOM      8  C   UNL     1      45.522   6.726  11.669  0.00  0.00    +0.000 A 
ATOM      9  N   UNL     1      44.718   7.820  11.662  0.00  0.00    +0.000 NA
BRANCH   8  10
ATOM     10  C   UNL     1      44.839   5.425  11.519  0.00  0.00    +0.000 A 
ATOM     11  C   UNL     1      44.232   4.794  12.624  0.00  0.00    +0.000 A 
ATOM     12  C   UNL     1      43.587   3.559  12.497  0.00  0.00    +0.000 A 
ATOM     13  C   UNL     1      43.539   2.926  11.259  0.00  0.00    +0.000 A 
ATOM     14  C   UNL     1      44.134   3.535  10.164  0.00  0.00    +0.000 A 
ATOM     15  F   UNL     1      44.097   2.929   8.969  0.00  0.00    +0.000 F 
ATOM     16  C   UNL     1      44.776   4.764  10.281  0.00  0.00    +0.000 A 
ENDBRANCH   8  10
ENDBRANCH   1   6
BRANCH   1  17
ATOM     17  C   UNL     1      49.559   7.322  13.232  0.00  0.00    +0.000 C 
BRANCH  17  18
ATOM     18  O   UNL     1      49.047   7.731  14.503  0.00  0.00    +0.000 OA
BRANCH  18  19
ATOM     19  C   UNL     1      48.744   6.703  15.346  0.00  0.00    +0.000 A 
ATOM     20  C   UNL     1      49.054   6.601  16.690  0.00  0.00    +0.000 A 
ATOM     21  N   UNL     1      48.701   5.566  17.480  0.00  0.00    +0.000 NA
ATOM     22  C   UNL     1      48.001   4.586  16.865  0.00  0.00    +0.000 A 
ATOM     23  N   UNL     1      47.653   4.564  15.562  0.00  0.00    +0.000 NA
ATOM     24  C   UNL     1      48.041   5.632  14.833  0.00  0.00    +0.000 A 
BRANCH  22  25
ATOM     25  C   UNL     1      47.566   3.427  17.733  0.00  0.00    +0.000 C 
ATOM     26  N   UNL     1      48.369   3.158  18.820  0.00  0.00    +0.000 N 
ATOM     27  O   UNL     1      46.569   2.752  17.520  0.00  0.00    +0.000 OA
ATOM     28  H   UNL     1      49.191   3.720  19.005  0.00  0.00    +0.000 HD
ATOM     29  H   UNL     1      48.113   2.399  19.434  0.00  0.00    +0.000 HD
ENDBRANCH  22  25
ENDBRANCH  18  19
ENDBRANCH  17  18
ENDBRANCH   1  17
TORSDOF 6
ENDMDL
MODEL 8
REMARK VINA RESULT:    -7.018      4.088      7.813
REMARK INTER + INTRA:         -10.436
REMARK INTER:                  -9.369
REMARK INTRA:                  -1.067
REMARK UNBOUND:                -0.956
REMARK  Name = 
REMARK  8 active torsions:
REMARK  status: ('A' for Active; 'I' for Inactive)
REMARK    1  A    between atoms: C_1  and  C_2
REMARK    2  A    between atoms: C_4  and  C_5
REMARK    3  A    between atoms: C_5  and  C_6
REMARK    4  A    between atoms: C_5  and  C_7
REMARK    5  A    between atoms: C_7  and  O_8
REMARK    6  A    between atoms: O_8  and  C_9
REMARK    7  A    between atoms: C_12  and  C_13
REMARK    8  A    between atoms: C_19  and  C_20
REMARK                            x       y       z     vdW  Elec       q    Type
REMARK                         _______ _______ _______ _____ _____    ______ ____
ROOT
ATOM      1  C   UNL     1      48.908   8.647  12.468  0.00  0.00    +0.000 C 
ATOM      2  C   UNL     1      49.034   9.938  13.282  0.00  0.00    +0.000 C 
ENDROOT
BRANCH   1   6
ATOM      3  C   UNL     1      44.110  10.144  11.779  0.00  0.00    +0.000 C 
ATOM      4  C   UNL     1      45.165   9.078  11.781  0.00  0.00    +0.000 A 
ATOM      5  C   UNL     1      46.475   9.385  12.130  0.00  0.00    +0.000 A 
ATOM      6  C   UNL     1      47.448   8.381  12.131  0.00  0.00    +0.000 A 
ATOM      7  C   UNL     1      47.048   7.093  11.766  0.00  0.00    +0.000 A 
ATOM      8  C   UNL     1      45.717   6.846  11.425  0.00  0.00    +0.000 A 
ATOM      9  N   UNL     1      44.783   7.831  11.427  0.00  0.00    +0.000 NA
BRANCH   8  10
ATOM     10  C   UNL     1      45.233   5.503  11.046  0.00  0.00    +0.000 A 
ATOM     11  C   UNL     1      45.377   5.027   9.727  0.00  0.00    +0.000 A 
ATOM     12  C   UNL     1      44.917   3.759   9.354  0.00  0.00    +0.000 A 
ATOM     13  C   UNL     1      44.298   2.941  10.294  0.00  0.00    +0.000 A 
ATOM     14  C   UNL     1      44.148   3.399  11.595  0.00  0.00    +0.000 A 
ATOM     15  F   UNL     1      43.548   2.620  12.506  0.00  0.00    +0.000 F 
ATOM     16  C   UNL     1      44.604   4.658  11.975  0.00  0.00    +0.000 A 
ENDBRANCH   8  10
ENDBRANCH   1   6
BRANCH   1  17
ATOM     17  C   UNL     1      49.555   7.461  13.198  0.00  0.00    +0.000 C 
BRANCH  17  18
ATOM     18  O   UNL     1      49.565   7.652  14.615  0.00  0.00    +0.000 OA
BRANCH  18  19
ATOM     19  C   UNL     1      49.021   6.625  15.327  0.00  0.00    +0.000 A 
ATOM     20  C   UNL     1      48.036   5.746  14.913  0.00  0.00    +0.000 A 
ATOM     21  N   UNL     1      47.557   4.728  15.658  0.00  0.00    +0.000 NA
ATOM     22  C   UNL     1      48.109   4.605  16.887  0.00  0.00    +0.000 A 
ATOM     23  N   UNL     1      49.061   5.406  17.407  0.00  0.00    +0.000 NA
ATOM     24  C   UNL     1      49.492   6.403  16.605  0.00  0.00    +0.000 A 
BRANCH  22  25
ATOM     25  C   UNL     1      47.613   3.454  17.733  0.00  0.00    +0.000 C 
ATOM     26  N   UNL     1      48.355   3.175  18.859  0.00  0.00    +0.000 N 
ATOM     27  O   UNL     1      46.618   2.794  17.469  0.00  0.00    +0.000 OA
ATOM     28  H   UNL     1      49.175   3.725  19.085  0.00  0.00    +0.000 HD
ATOM     29  H   UNL     1      48.057   2.421  19.461  0.00  0.00    +0.000 HD
ENDBRANCH  22  25
ENDBRANCH  18  19
ENDBRANCH  17  18
ENDBRANCH   1  17
TORSDOF 6
ENDMDL
MODEL 9
REMARK VINA RESULT:    -6.827      4.454      8.035
REMARK INTER + INTRA:         -10.178
REMARK INTER:                  -9.409
REMARK INTRA:                  -0.769
REMARK UNBOUND:                -0.956
REMARK  Name = 
REMARK  8 active torsions:
REMARK  status: ('A' for Active; 'I' for Inactive)
REMARK    1  A    between atoms: C_1  and  C_2
REMARK    2  A    between atoms: C_4  and  C_5
REMARK    3  A    between atoms: C_5  and  C_6
REMARK    4  A    between atoms: C_5  and  C_7
REMARK    5  A    between atoms: C_7  and  O_8
REMARK    6  A    between atoms: O_8  and  C_9
REMARK    7  A    between atoms: C_12  and  C_13
REMARK    8  A    between atoms: C_19  and  C_20
REMARK                            x       y       z     vdW  Elec       q    Type
REMARK                         _______ _______ _______ _____ _____    ______ ____
ROOT
ATOM      1  C   UNL     1      49.104   6.470  15.234  0.00  0.00    +0.000 C 
ATOM      2  C   UNL     1      50.246   7.489  15.260  0.00  0.00    +0.000 C 
ENDROOT
BRANCH   1   6
ATOM      3  C   UNL     1      46.841   9.797  12.146  0.00  0.00    +0.000 C 
ATOM      4  C   UNL     1      47.025   8.401  12.662  0.00  0.00    +0.000 A 
ATOM      5  C   UNL     1      47.940   8.141  13.676  0.00  0.00    +0.000 A 
ATOM      6  C   UNL     1      48.099   6.836  14.152  0.00  0.00    +0.000 A 
ATOM      7  C   UNL     1      47.319   5.835  13.566  0.00  0.00    +0.000 A 
ATOM      8  C   UNL     1      46.417   6.158  12.551  0.00  0.00    +0.000 A 
ATOM      9  N   UNL     1      46.274   7.430  12.099  0.00  0.00    +0.000 NA
BRANCH   8  10
ATOM     10  C   UNL     1      45.556   5.146  11.907  0.00  0.00    +0.000 A 
ATOM     11  C   UNL     1      45.071   4.039  12.633  0.00  0.00    +0.000 A 
ATOM     12  C   UNL     1      44.259   3.070  12.032  0.00  0.00    +0.000 A 
ATOM     13  C   UNL     1      43.919   3.187  10.689  0.00  0.00    +0.000 A 
ATOM     14  C   UNL     1      44.392   4.270   9.961  0.00  0.00    +0.000 A 
ATOM     15  F   UNL     1      44.073   4.386   8.665  0.00  0.00    +0.000 F 
ATOM     16  C   UNL     1      45.198   5.238  10.552  0.00  0.00    +0.000 A 
ENDBRANCH   8  10
ENDBRANCH   1   6
BRANCH   1  17
ATOM     17  C   UNL     1      48.440   6.337  16.614  0.00  0.00    +0.000 C 
BRANCH  17  18
ATOM     18  O   UNL     1      47.904   5.028  16.819  0.00  0.00    +0.000 OA
BRANCH  18  19
ATOM     19  C   UNL     1      48.843   4.054  16.989  0.00  0.00    +0.000 A 
ATOM     20  C   UNL     1      48.820   2.769  16.477  0.00  0.00    +0.000 A 
ATOM     21  N   UNL     1      49.798   1.856  16.660  0.00  0.00    +0.000 NA
ATOM     22  C   UNL     1      50.846   2.277  17.404  0.00  0.00    +0.000 A 
ATOM     23  N   UNL     1      50.974   3.496  17.967  0.00  0.00    +0.000 NA
ATOM     24  C   UNL     1      49.959   4.356  17.743  0.00  0.00    +0.000 A 
BRANCH  22  25
ATOM     25  C   UNL     1      51.970   1.285  17.599  0.00  0.00    +0.000 C 
ATOM     26  N   UNL     1      51.615   0.084  18.176  0.00  0.00    +0.000 N 
ATOM     27  O   UNL     1      53.129   1.495  17.275  0.00  0.00    +0.000 OA
ATOM     28  H   UNL     1      50.654  -0.098  18.438  0.00  0.00    +0.000 HD
ATOM     29  H   UNL     1      52.331  -0.614  18.317  0.00  0.00    +0.000 HD
ENDBRANCH  22  25
ENDBRANCH  18  19
ENDBRANCH  17  18
ENDBRANCH   1  17
TORSDOF 6
ENDMDL
