MODEL 1
REMARK VINA RESULT:    -6.972      0.000      0.000
REMARK INTER + INTRA:          -9.312
REMARK INTER:                  -8.602
REMARK INTRA:                  -0.710
REMARK UNBOUND:                -0.710
REMARK  Name = 
REMARK  4 active torsions:
REMARK  status: ('A' for Active; 'I' for Inactive)
REMARK    1  A    between atoms: C_4  and  O_5
REMARK    2  A    between atoms: O_5  and  C_6
REMARK    3  A    between atoms: C_6  and  C_7
REMARK    4  A    between atoms: C_11  and  C_12
REMARK                            x       y       z     vdW  Elec       q    Type
REMARK                         _______ _______ _______ _____ _____    ______ ____
ROOT
ATOM      1  C   UNL     1      45.116   5.181  12.167  0.00  0.00    +0.000 A 
ATOM      2  C   UNL     1      45.614   4.222  13.059  0.00  0.00    +0.000 A 
ATOM      3  C   UNL     1      46.849   4.392  13.684  0.00  0.00    +0.000 A 
ATOM      4  C   UNL     1      47.621   5.524  13.416  0.00  0.00    +0.000 A 
ATOM      5  C   UNL     1      47.171   6.519  12.535  0.00  0.00    +0.000 A 
ATOM      6  C   UNL     1      45.898   6.337  11.958  0.00  0.00    +0.000 A 
ENDROOT
BRANCH   5   7
ATOM      7  C   UNL     1      48.016   7.672  12.164  0.00  0.00    +0.000 A 
ATOM      8  C   UNL     1      49.366   7.540  11.807  0.00  0.00    +0.000 A 
ATOM      9  C   UNL     1      50.143   8.664  11.524  0.00  0.00    +0.000 A 
ATOM     10  C   UNL     1      49.546   9.909  11.589  0.00  0.00    +0.000 A 
ATOM     11  N   UNL     1      48.252  10.098  11.913  0.00  0.00    +0.000 NA
ATOM     12  C   UNL     1      47.530   8.984  12.195  0.00  0.00    +0.000 A 
ENDBRANCH   5   7
BRANCH   1  13
ATOM     13  C   UNL     1      43.823   4.944  11.399  0.00  0.00    +0.000 C 
ATOM     14  C   UNL     1      42.492   5.195  12.112  0.00  0.00    +0.000 C 
ATOM     15  C   UNL     1      42.967   6.154  11.074  0.00  0.00    +0.000 C 
BRANCH  13  16
ATOM     16  O   UNL     1      43.741   3.726  10.624  0.00  0.00    +0.000 OA
BRANCH  16  20
ATOM     17  C   UNL     1      46.243   2.744   7.579  0.00  0.00    +0.000 A 
ATOM     18  C   UNL     1      45.804   1.838   8.511  0.00  0.00    +0.000 A 
ATOM     19  N   UNL     1      45.035   2.169   9.562  0.00  0.00    +0.000 NA
ATOM     20  C   UNL     1      44.724   3.470   9.688  0.00  0.00    +0.000 A 
ATOM     21  N   UNL     1      45.115   4.444   8.850  0.00  0.00    +0.000 NA
ATOM     22  C   UNL     1      45.867   4.052   7.805  0.00  0.00    +0.000 A 
ENDBRANCH  16  20
ENDBRANCH  13  16
ENDBRANCH   1  13
TORSDOF 4
ENDMDL
MODEL 2
REMARK VINA RESULT:    -6.928      2.179      3.601
REMARK INTER + INTRA:          -9.258
REMARK INTER:                  -9.429
REMARK INTRA:                   0.171
REMARK UNBOUND:                -0.710
REMARK  Name = 
REMARK  4 active torsions:
REMARK  status: ('A' for Active; 'I' for Inactive)
REMARK    1  A    between atoms: C_4  and  O_5
REMARK    2  A    between atoms: O_5  and  C_6
REMARK    3  A    between atoms: C_6  and  C_7
REMARK    4  A    between atoms: C_11  and  C_12
REMARK                            x       y       z     vdW  Elec       q    Type
REMARK                         _______ _______ _______ _____ _____    ______ ____
ROOT
ATOM      1  C   UNL     1      45.221   5.325  11.496  0.00  0.00    +0.000 A 
ATOM      2  C   UNL     1      45.858   6.418  10.893  0.00  0.00    +0.000 A 
ATOM      3  C   UNL     1      47.001   6.985  11.456  0.00  0.00    +0.000 A 
ATOM      4  C   UNL     1      47.524   6.478  12.647  0.00  0.00    +0.000 A 
ATOM      5  C   UNL     1      46.930   5.382  13.292  0.00  0.00    +0.000 A 
ATOM      6  C   UNL     1      45.804   4.804  12.672  0.00  0.00    +0.000 A 
ENDROOT
BRANCH   5   7
ATOM      7  C   UNL     1      47.408   4.896  14.603  0.00  0.00    +0.000 A 
ATOM      8  C   UNL     1      48.034   5.731  15.539  0.00  0.00    +0.000 A 
ATOM      9  C   UNL     1      48.526   5.215  16.739  0.00  0.00    +0.000 A 
ATOM     10  C   UNL     1      48.369   3.864  16.987  0.00  0.00    +0.000 A 
ATOM     11  N   UNL     1      47.766   3.016  16.132  0.00  0.00    +0.000 NA
ATOM     12  C   UNL     1      47.311   3.549  14.970  0.00  0.00    +0.000 A 
ENDBRANCH   5   7
BRANCH   1  13
ATOM     13  C   UNL     1      43.911   4.778  10.947  0.00  0.00    +0.000 C 
ATOM     14  C   UNL     1      43.198   3.668  11.724  0.00  0.00    +0.000 C 
ATOM     15  C   UNL     1      42.647   5.052  11.741  0.00  0.00    +0.000 C 
BRANCH  13  16
ATOM     16  O   UNL     1      43.869   4.487   9.531  0.00  0.00    +0.000 OA
BRANCH  16  20
ATOM     17  C   UNL     1      46.628   2.265   7.545  0.00  0.00    +0.000 A 
ATOM     18  C   UNL     1      45.821   1.754   8.529  0.00  0.00    +0.000 A 
ATOM     19  N   UNL     1      44.956   2.498   9.240  0.00  0.00    +0.000 NA
ATOM     20  C   UNL     1      44.931   3.812   8.963  0.00  0.00    +0.000 A 
ATOM     21  N   UNL     1      45.691   4.423   8.038  0.00  0.00    +0.000 NA
ATOM     22  C   UNL     1      46.524   3.626   7.343  0.00  0.00    +0.000 A 
ENDBRANCH  16  20
ENDBRANCH  13  16
ENDBRANCH   1  13
TORSDOF 4
ENDMDL
MODEL 3
REMARK VINA RESULT:    -6.570      3.028      6.765
REMARK INTER + INTRA:          -8.817
REMARK INTER:                  -8.104
REMARK INTRA:                  -0.713
REMARK UNBOUND:                -0.710
REMARK  Name = 
REMARK  4 active torsions:
REMARK  status: ('A' for Active; 'I' for Inactive)
REMARK    1  A    between atoms: C_4  and  O_5
REMARK    2  A    between atoms: O_5  and  C_6
REMARK    3  A    between atoms: C_6  and  C_7
REMARK    4  A    between atoms: C_11  and  C_12
REMARK                            x       y       z     vdW  Elec       q    Type
REMARK                         _______ _______ _______ _____ _____    ______ ____
ROOT
ATOM      1  C   UNL     1      47.020   7.276  12.863  0.00  0.00    +0.000 A 
ATOM      2  C   UNL     1      46.146   8.371  12.870  0.00  0.00    +0.000 A 
ATOM      3  C   UNL     1      44.960   8.351  12.135  0.00  0.00    +0.000 A 
ATOM      4  C   UNL     1      44.631   7.235  11.364  0.00  0.00    +0.000 A 
ATOM      5  C   UNL     1      45.467   6.108  11.323  0.00  0.00    +0.000 A 
ATOM      6  C   UNL     1      46.633   6.144  12.113  0.00  0.00    +0.000 A 
ENDROOT
BRANCH   5   7
ATOM      7  C   UNL     1      45.185   4.960  10.436  0.00  0.00    +0.000 A 
ATOM      8  C   UNL     1      45.638   4.897   9.111  0.00  0.00    +0.000 A 
ATOM      9  C   UNL     1      45.296   3.822   8.290  0.00  0.00    +0.000 A 
ATOM     10  C   UNL     1      44.512   2.814   8.819  0.00  0.00    +0.000 A 
ATOM     11  N   UNL     1      44.058   2.813  10.088  0.00  0.00    +0.000 NA
ATOM     12  C   UNL     1      44.399   3.880  10.854  0.00  0.00    +0.000 A 
ENDBRANCH   5   7
BRANCH   1  13
ATOM     13  C   UNL     1      48.366   7.341  13.571  0.00  0.00    +0.000 C 
ATOM     14  C   UNL     1      49.531   8.040  12.864  0.00  0.00    +0.000 C 
ATOM     15  C   UNL     1      48.860   8.705  14.016  0.00  0.00    +0.000 C 
BRANCH  13  16
ATOM     16  O   UNL     1      48.833   6.124  14.196  0.00  0.00    +0.000 OA
BRANCH  16  20
ATOM     17  C   UNL     1      47.516   4.578  17.714  0.00  0.00    +0.000 A 
ATOM     18  C   UNL     1      47.143   4.083  16.490  0.00  0.00    +0.000 A 
ATOM     19  N   UNL     1      47.517   4.632  15.323  0.00  0.00    +0.000 NA
ATOM     20  C   UNL     1      48.271   5.741  15.399  0.00  0.00    +0.000 A 
ATOM     21  N   UNL     1      48.676   6.325  16.539  0.00  0.00    +0.000 NA
ATOM     22  C   UNL     1      48.289   5.721  17.677  0.00  0.00    +0.000 A 
ENDBRANCH  16  20
ENDBRANCH  13  16
ENDBRANCH   1  13
TORSDOF 4
ENDMDL
MODEL 4
REMARK VINA RESULT:    -6.555      2.533      6.537
REMARK INTER + INTRA:          -8.799
REMARK INTER:                  -8.129
REMARK INTRA:                  -0.669
REMARK UNBOUND:                -0.710
REMARK  Name = 
REMARK  4 active torsions:
REMARK  status: ('A' for Active; 'I' for Inactive)
REMARK    1  A    between atoms: C_4  and  O_5
REMARK    2  A    between atoms: O_5  and  C_6
REMARK    3  A    between atoms: C_6  and  C_7
REMARK    4  A    between atoms: C_11  and  C_12
REMARK                            x       y       z     vdW  Elec       q    Type
REMARK                         _______ _______ _______ _____ _____    ______ ____
ROOT
ATOM      1  C   UNL     1      45.097   6.306  11.618  0.00  0.00    +0.000 A 
ATOM      2  C   UNL     1      43.741   6.109  11.912  0.00  0.00    +0.000 A 
ATOM      3  C   UNL     1      43.009   5.098  11.291  0.00  0.00    +0.000 A 
ATOM      4  C   UNL     1      43.618   4.269  10.346  0.00  0.00    +0.000 A 
ATOM      5  C   UNL     1      44.974   4.418  10.016  0.00  0.00    +0.000 A 
ATOM      6  C   UNL     1      45.695   5.419  10.697  0.00  0.00    +0.000 A 
ENDROOT
BRANCH   5   7
ATOM      7  C   UNL     1      45.609   3.617   8.948  0.00  0.00    +0.000 A 
ATOM      8  C   UNL     1      46.155   4.192   7.792  0.00  0.00    +0.000 A 
ATOM      9  C   UNL     1      46.690   3.393   6.781  0.00  0.00    +0.000 A 
ATOM     10  C   UNL     1      46.680   2.021   6.953  0.00  0.00    +0.000 A 
ATOM     11  N   UNL     1      46.181   1.412   8.047  0.00  0.00    +0.000 NA
ATOM     12  C   UNL     1      45.658   2.220   9.004  0.00  0.00    +0.000 A 
ENDBRANCH   5   7
BRANCH   1  13
ATOM     13  C   UNL     1      45.867   7.480  12.209  0.00  0.00    +0.000 C 
ATOM     14  C   UNL     1      46.915   7.197  13.289  0.00  0.00    +0.000 C 
ATOM     15  C   UNL     1      47.353   7.565  11.913  0.00  0.00    +0.000 C 
BRANCH  13  16
ATOM     16  O   UNL     1      45.096   8.649  12.569  0.00  0.00    +0.000 OA
BRANCH  16  20
ATOM     17  C   UNL     1      44.349  11.824  10.148  0.00  0.00    +0.000 A 
ATOM     18  C   UNL     1      43.670  10.635  10.057  0.00  0.00    +0.000 A 
ATOM     19  N   UNL     1      43.960   9.557  10.805  0.00  0.00    +0.000 NA
ATOM     20  C   UNL     1      44.993   9.679  11.655  0.00  0.00    +0.000 A 
ATOM     21  N   UNL     1      45.740  10.786  11.811  0.00  0.00    +0.000 NA
ATOM     22  C   UNL     1      45.392  11.840  11.051  0.00  0.00    +0.000 A 
ENDBRANCH  16  20
ENDBRANCH  13  16
ENDBRANCH   1  13
TORSDOF 4
ENDMDL
MODEL 5
REMARK VINA RESULT:    -6.518      2.481      6.396
REMARK INTER + INTRA:          -8.752
REMARK INTER:                  -8.115
REMARK INTRA:                  -0.638
REMARK UNBOUND:                -0.710
REMARK  Name = 
REMARK  4 active torsions:
REMARK  status: ('A' for Active; 'I' for Inactive)
REMARK    1  A    between atoms: C_4  and  O_5
REMARK    2  A    between atoms: O_5  and  C_6
REMARK    3  A    between atoms: C_6  and  C_7
REMARK    4  A    between atoms: C_11  and  C_12
REMARK                            x       y       z     vdW  Elec       q    Type
REMARK                         _______ _______ _______ _____ _____    ______ ____
ROOT
ATOM      1  C   UNL     1      45.424   6.230  11.793  0.00  0.00    +0.000 A 
ATOM      2  C   UNL     1      44.039   6.367  11.962  0.00  0.00    +0.000 A 
ATOM      3  C   UNL     1      43.144   5.597  11.221  0.00  0.00    +0.000 A 
ATOM      4  C   UNL     1      43.617   4.680  10.280  0.00  0.00    +0.000 A 
ATOM      5  C   UNL     1      44.993   4.499  10.071  0.00  0.00    +0.000 A 
ATOM      6  C   UNL     1      45.869   5.259  10.870  0.00  0.00    +0.000 A 
ENDROOT
BRANCH   5   7
ATOM      7  C   UNL     1      45.510   3.608   9.012  0.00  0.00    +0.000 A 
ATOM      8  C   UNL     1      45.484   2.210   9.117  0.00  0.00    +0.000 A 
ATOM      9  C   UNL     1      46.040   1.408   8.119  0.00  0.00    +0.000 A 
ATOM     10  C   UNL     1      46.604   2.026   7.018  0.00  0.00    +0.000 A 
ATOM     11  N   UNL     1      46.647   3.363   6.856  0.00  0.00    +0.000 NA
ATOM     12  C   UNL     1      46.109   4.111   7.851  0.00  0.00    +0.000 A 
ENDBRANCH   5   7
BRANCH   1  13
ATOM     13  C   UNL     1      46.399   7.149  12.517  0.00  0.00    +0.000 C 
ATOM     14  C   UNL     1      46.681   8.531  11.921  0.00  0.00    +0.000 C 
ATOM     15  C   UNL     1      45.838   8.412  13.144  0.00  0.00    +0.000 C 
BRANCH  13  16
ATOM     16  O   UNL     1      47.632   6.554  12.980  0.00  0.00    +0.000 OA
BRANCH  16  20
ATOM     17  C   UNL     1      48.149   4.828  16.620  0.00  0.00    +0.000 A 
ATOM     18  C   UNL     1      47.305   4.323  15.663  0.00  0.00    +0.000 A 
ATOM     19  N   UNL     1      47.075   4.926  14.485  0.00  0.00    +0.000 NA
ATOM     20  C   UNL     1      47.699   6.098  14.282  0.00  0.00    +0.000 A 
ATOM     21  N   UNL     1      48.527   6.696  15.156  0.00  0.00    +0.000 NA
ATOM     22  C   UNL     1      48.737   6.037  16.310  0.00  0.00    +0.000 A 
ENDBRANCH  16  20
ENDBRANCH  13  16
ENDBRANCH   1  13
TORSDOF 4
ENDMDL
MODEL 6
REMARK VINA RESULT:    -6.274      1.485      2.265
REMARK INTER + INTRA:          -8.451
REMARK INTER:                  -8.684
REMARK INTRA:                   0.232
REMARK UNBOUND:                -0.710
REMARK  Name = 
REMARK  4 active torsions:
REMARK  status: ('A' for Active; 'I' for Inactive)
REMARK    1  A    between atoms: C_4  and  O_5
REMARK    2  A    between atoms: O_5  and  C_6
REMARK    3  A    between atoms: C_6  and  C_7
REMARK    4  A    between atoms: C_11  and  C_12
REMARK                            x       y       z     vdW  Elec       q    Type
REMARK                         _______ _______ _______ _____ _____    ______ ____
ROOT
ATOM      1  C   UNL     1      44.718   5.460  11.397  0.00  0.00    +0.000 A 
ATOM      2  C   UNL     1      43.832   6.532  11.222  0.00  0.00    +0.000 A 
ATOM      3  C   UNL     1      44.243   7.848  11.430  0.00  0.00    +0.000 A 
ATOM      4  C   UNL     1      45.553   8.119  11.833  0.00  0.00    +0.000 A 
ATOM      5  C   UNL     1      46.484   7.086  12.019  0.00  0.00    +0.000 A 
ATOM      6  C   UNL     1      46.047   5.772  11.755  0.00  0.00    +0.000 A 
ENDROOT
BRANCH   5   7
ATOM      7  C   UNL     1      47.842   7.344  12.540  0.00  0.00    +0.000 A 
ATOM      8  C   UNL     1      48.808   8.060  11.818  0.00  0.00    +0.000 A 
ATOM      9  C   UNL     1      50.098   8.226  12.323  0.00  0.00    +0.000 A 
ATOM     10  C   UNL     1      50.396   7.681  13.558  0.00  0.00    +0.000 A 
ATOM     11  N   UNL     1      49.507   6.995  14.303  0.00  0.00    +0.000 NA
ATOM     12  C   UNL     1      48.266   6.841  13.775  0.00  0.00    +0.000 A 
ENDBRANCH   5   7
BRANCH   1  13
ATOM     13  C   UNL     1      44.240   4.020  11.282  0.00  0.00    +0.000 C 
ATOM     14  C   UNL     1      44.941   2.947  12.120  0.00  0.00    +0.000 C 
ATOM     15  C   UNL     1      43.574   3.402  12.498  0.00  0.00    +0.000 C 
BRANCH  13  16
ATOM     16  O   UNL     1      43.999   3.517   9.947  0.00  0.00    +0.000 OA
BRANCH  16  20
ATOM     17  C   UNL     1      46.832   2.663   7.165  0.00  0.00    +0.000 A 
ATOM     18  C   UNL     1      46.325   1.728   8.031  0.00  0.00    +0.000 A 
ATOM     19  N   UNL     1      45.441   2.017   9.001  0.00  0.00    +0.000 NA
ATOM     20  C   UNL     1      45.081   3.306   9.115  0.00  0.00    +0.000 A 
ATOM     21  N   UNL     1      45.529   4.307   8.339  0.00  0.00    +0.000 NA
ATOM     22  C   UNL     1      46.397   3.956   7.372  0.00  0.00    +0.000 A 
ENDBRANCH  16  20
ENDBRANCH  13  16
ENDBRANCH   1  13
TORSDOF 4
ENDMDL
MODEL 7
REMARK VINA RESULT:    -6.092      3.034      7.170
REMARK INTER + INTRA:          -8.227
REMARK INTER:                  -7.470
REMARK INTRA:                  -0.757
REMARK UNBOUND:                -0.710
REMARK  Name = 
REMARK  4 active torsions:
REMARK  status: ('A' for Active; 'I' for Inactive)
REMARK    1  A    between atoms: C_4  and  O_5
REMARK    2  A    between atoms: O_5  and  C_6
REMARK    3  A    between atoms: C_6  and  C_7
REMARK    4  A    between atoms: C_11  and  C_12
REMARK                            x       y       z     vdW  Elec       q    Type
REMARK                         _______ _______ _______ _____ _____    ______ ____
ROOT
ATOM      1  C   UNL     1      47.580   7.705  12.538  0.00  0.00    +0.000 A 
ATOM      2  C   UNL     1      46.843   8.887  12.381  0.00  0.00    +0.000 A 
ATOM      3  C   UNL     1      45.475   8.852  12.113  0.00  0.00    +0.000 A 
ATOM      4  C   UNL     1      44.816   7.628  11.981  0.00  0.00    +0.000 A 
ATOM      5  C   UNL     1      45.503   6.414  12.132  0.00  0.00    +0.000 A 
ATOM      6  C   UNL     1      46.875   6.487  12.448  0.00  0.00    +0.000 A 
ENDROOT
BRANCH   5   7
ATOM      7  C   UNL     1      44.845   5.111  11.898  0.00  0.00    +0.000 A 
ATOM      8  C   UNL     1      44.675   4.567  10.617  0.00  0.00    +0.000 A 
ATOM      9  C   UNL     1      43.992   3.364  10.438  0.00  0.00    +0.000 A 
ATOM     10  C   UNL     1      43.501   2.714  11.554  0.00  0.00    +0.000 A 
ATOM     11  N   UNL     1      43.645   3.181  12.810  0.00  0.00    +0.000 NA
ATOM     12  C   UNL     1      44.302   4.360  12.946  0.00  0.00    +0.000 A 
ENDBRANCH   5   7
BRANCH   1  13
ATOM     13  C   UNL     1      49.092   7.740  12.716  0.00  0.00    +0.000 C 
ATOM     14  C   UNL     1      49.977   7.692  11.467  0.00  0.00    +0.000 C 
ATOM     15  C   UNL     1      49.829   8.970  12.219  0.00  0.00    +0.000 C 
BRANCH  13  16
ATOM     16  O   UNL     1      49.647   6.886  13.742  0.00  0.00    +0.000 OA
BRANCH  16  20
ATOM     17  C   UNL     1      48.675   6.966  17.685  0.00  0.00    +0.000 A 
ATOM     18  C   UNL     1      48.517   5.855  16.896  0.00  0.00    +0.000 A 
ATOM     19  N   UNL     1      48.769   5.841  15.576  0.00  0.00    +0.000 NA
ATOM     20  C   UNL     1      49.166   7.003  15.031  0.00  0.00    +0.000 A 
ATOM     21  N   UNL     1      49.332   8.156  15.702  0.00  0.00    +0.000 NA
ATOM     22  C   UNL     1      49.085   8.106  17.024  0.00  0.00    +0.000 A 
ENDBRANCH  16  20
ENDBRANCH  13  16
ENDBRANCH   1  13
TORSDOF 4
ENDMDL
MODEL 8
REMARK VINA RESULT:    -6.005      2.058      3.105
REMARK INTER + INTRA:          -8.120
REMARK INTER:                  -7.597
REMARK INTRA:                  -0.523
REMARK UNBOUND:                -0.710
REMARK  Name = 
REMARK  4 active torsions:
REMARK  status: ('A' for Active; 'I' for Inactive)
REMARK    1  A    between atoms: C_4  and  O_5
REMARK    2  A    between atoms: O_5  and  C_6
REMARK    3  A    between atoms: C_6  and  C_7
REMARK    4  A    between atoms: C_11  and  C_12
REMARK                            x       y       z     vdW  Elec       q    Type
REMARK                         _______ _______ _______ _____ _____    ______ ____
ROOT
ATOM      1  C   UNL     1      45.323   6.255  12.469  0.00  0.00    +0.000 A 
ATOM      2  C   UNL     1      45.089   7.567  12.036  0.00  0.00    +0.000 A 
ATOM      3  C   UNL     1      45.945   8.608  12.396  0.00  0.00    +0.000 A 
ATOM      4  C   UNL     1      47.049   8.357  13.213  0.00  0.00    +0.000 A 
ATOM      5  C   UNL     1      47.334   7.062  13.672  0.00  0.00    +0.000 A 
ATOM      6  C   UNL     1      46.475   6.028  13.251  0.00  0.00    +0.000 A 
ENDROOT
BRANCH   5   7
ATOM      7  C   UNL     1      48.439   6.795  14.617  0.00  0.00    +0.000 A 
ATOM      8  C   UNL     1      48.304   5.940  15.719  0.00  0.00    +0.000 A 
ATOM      9  C   UNL     1      49.354   5.765  16.621  0.00  0.00    +0.000 A 
ATOM     10  C   UNL     1      50.536   6.445  16.392  0.00  0.00    +0.000 A 
ATOM     11  N   UNL     1      50.729   7.270  15.344  0.00  0.00    +0.000 NA
ATOM     12  C   UNL     1      49.682   7.426  14.496  0.00  0.00    +0.000 A 
ENDBRANCH   5   7
BRANCH   1  13
ATOM     13  C   UNL     1      44.328   5.141  12.171  0.00  0.00    +0.000 C 
ATOM     14  C   UNL     1      43.211   4.869  13.182  0.00  0.00    +0.000 C 
ATOM     15  C   UNL     1      42.891   5.539  11.890  0.00  0.00    +0.000 C 
BRANCH  13  16
ATOM     16  O   UNL     1      44.875   3.888  11.699  0.00  0.00    +0.000 OA
BRANCH  16  20
ATOM     17  C   UNL     1      45.490   3.169   7.749  0.00  0.00    +0.000 A 
ATOM     18  C   UNL     1      45.676   4.401   8.325  0.00  0.00    +0.000 A 
ATOM     19  N   UNL     1      45.407   4.664   9.615  0.00  0.00    +0.000 NA
ATOM     20  C   UNL     1      44.902   3.651  10.338  0.00  0.00    +0.000 A 
ATOM     21  N   UNL     1      44.659   2.413   9.874  0.00  0.00    +0.000 NA
ATOM     22  C   UNL     1      44.967   2.201   8.581  0.00  0.00    +0.000 A 
ENDBRANCH  16  20
ENDBRANCH  13  16
ENDBRANCH   1  13
TORSDOF 4
ENDMDL
MODEL 9
REMARK VINA RESULT:    -5.738      3.910      7.215
REMARK INTER + INTRA:          -7.790
REMARK INTER:                  -7.432
REMARK INTRA:                  -0.358
REMARK UNBOUND:                -0.710
REMARK  Name = 
REMARK  4 active torsions:
REMARK  status: ('A' for Active; 'I' for Inactive)
REMARK    1  A    between atoms: C_4  and  O_5
REMARK    2  A    between atoms: O_5  and  C_6
REMARK    3  A    between atoms: C_6  and  C_7
REMARK    4  A    between atoms: C_11  and  C_12
REMARK                            x       y       z     vdW  Elec       q    Type
REMARK                         _______ _______ _______ _____ _____    ______ ____
ROOT
ATOM      1  C   UNL     1      48.491   7.162  14.012  0.00  0.00    +0.000 A 
ATOM      2  C   UNL     1      49.149   7.761  12.929  0.00  0.00    +0.000 A 
ATOM      3  C   UNL     1      48.666   7.624  11.627  0.00  0.00    +0.000 A 
ATOM      4  C   UNL     1      47.518   6.869  11.381  0.00  0.00    +0.000 A 
ATOM      5  C   UNL     1      46.817   6.250  12.427  0.00  0.00    +0.000 A 
ATOM      6  C   UNL     1      47.306   6.448  13.733  0.00  0.00    +0.000 A 
ENDROOT
BRANCH   5   7
ATOM      7  C   UNL     1      45.659   5.367  12.175  0.00  0.00    +0.000 A 
ATOM      8  C   UNL     1      45.001   5.314  10.938  0.00  0.00    +0.000 A 
ATOM      9  C   UNL     1      43.873   4.511  10.763  0.00  0.00    +0.000 A 
ATOM     10  C   UNL     1      43.430   3.757  11.835  0.00  0.00    +0.000 A 
ATOM     11  N   UNL     1      44.029   3.757  13.042  0.00  0.00    +0.000 NA
ATOM     12  C   UNL     1      45.114   4.559  13.180  0.00  0.00    +0.000 A 
ENDBRANCH   5   7
BRANCH   1  13
ATOM     13  C   UNL     1      49.080   7.215  15.415  0.00  0.00    +0.000 C 
ATOM     14  C   UNL     1      49.863   8.463  15.833  0.00  0.00    +0.000 C 
ATOM     15  C   UNL     1      48.498   8.229  16.382  0.00  0.00    +0.000 C 
BRANCH  13  16
ATOM     16  O   UNL     1      49.765   6.029  15.879  0.00  0.00    +0.000 OA
BRANCH  16  20
ATOM     17  C   UNL     1      48.135   3.151  18.236  0.00  0.00    +0.000 A 
ATOM     18  C   UNL     1      47.809   3.310  16.913  0.00  0.00    +0.000 A 
ATOM     19  N   UNL     1      48.290   4.303  16.146  0.00  0.00    +0.000 NA
ATOM     20  C   UNL     1      49.106   5.183  16.749  0.00  0.00    +0.000 A 
ATOM     21  N   UNL     1      49.474   5.138  18.041  0.00  0.00    +0.000 NA
ATOM     22  C   UNL     1      48.979   4.110  18.756  0.00  0.00    +0.000 A 
ENDBRANCH  16  20
ENDBRANCH  13  16
ENDBRANCH   1  13
TORSDOF 4
ENDMDL
