MODEL 1
REMARK VINA RESULT:    -8.493      0.000      0.000
REMARK INTER + INTRA:         -13.156
REMARK INTER:                 -11.969
REMARK INTRA:                  -1.188
REMARK UNBOUND:                -1.188
REMARK  Name = 
REMARK  8 active torsions:
REMARK  status: ('A' for Active; 'I' for Inactive)
REMARK    1  A    between atoms: C_1  and  C_2
REMARK    2  A    between atoms: C_2  and  C_3
REMARK    3  A    between atoms: C_2  and  C_14
REMARK    4  A    between atoms: C_3  and  O_4
REMARK    5  A    between atoms: O_4  and  C_5
REMARK    6  A    between atoms: C_8  and  C_9
REMARK    7  A    between atoms: C_18  and  O_19
REMARK    8  A    between atoms: O_19  and  C_20
REMARK                            x       y       z     vdW  Elec       q    Type
REMARK                         _______ _______ _______ _____ _____    ______ ____
ROOT
ATOM      1  C   UNL     1      42.789   5.348  12.272  0.00  0.00    +0.000 C 
ATOM      2  C   UNL     1      43.811   4.313  12.748  0.00  0.00    +0.000 C 
ENDROOT
BRANCH   2   3
ATOM      3  C   UNL     1      45.194   4.937  12.883  0.00  0.00    +0.000 A 
ATOM      4  C   UNL     1      45.642   5.841  11.912  0.00  0.00    +0.000 A 
ATOM      5  C   UNL     1      46.919   6.391  11.996  0.00  0.00    +0.000 A 
ATOM      6  C   UNL     1      47.749   6.085  13.076  0.00  0.00    +0.000 A 
ATOM      7  C   UNL     1      47.293   5.255  14.101  0.00  0.00    +0.000 A 
ATOM      8  C   UNL     1      46.038   4.648  13.974  0.00  0.00    +0.000 A 
BRANCH   7   9
ATOM      9  O   UNL     1      47.961   4.998  15.275  0.00  0.00    +0.000 OA
BRANCH   9  10
ATOM     10  C   UNL     1      47.316   4.099  16.191  0.00  0.00    +0.000 C 
ATOM     11  C   UNL     1      47.291   4.708  17.578  0.00  0.00    +0.000 C 
ATOM     12  C   UNL     1      48.538   4.170  18.244  0.00  0.00    +0.000 C 
ATOM     13  O   UNL     1      48.848   2.920  17.631  0.00  0.00    +0.000 OA
ATOM     14  C   UNL     1      48.106   2.809  16.408  0.00  0.00    +0.000 C 
ENDBRANCH   9  10
ENDBRANCH   7   9
ENDBRANCH   2   3
BRANCH   2  15
ATOM     15  C   UNL     1      43.865   3.078  11.834  0.00  0.00    +0.000 C 
BRANCH  15  16
ATOM     16  O   UNL     1      43.433   3.390  10.503  0.00  0.00    +0.000 OA
BRANCH  16  17
ATOM     17  C   UNL     1      44.384   3.228   9.531  0.00  0.00    +0.000 A 
ATOM     18  C   UNL     1      44.921   4.241   8.738  0.00  0.00    +0.000 A 
ATOM     19  C   UNL     1      45.902   3.943   7.797  0.00  0.00    +0.000 A 
ATOM     20  C   UNL     1      46.321   2.627   7.675  0.00  0.00    +0.000 A 
ATOM     21  N   UNL     1      45.822   1.603   8.419  0.00  0.00    +0.000 NA
ATOM     22  C   UNL     1      44.861   1.935   9.322  0.00  0.00    +0.000 A 
BRANCH  20  23
ATOM     23  C   UNL     1      47.397   2.297   6.689  0.00  0.00    +0.000 C 
ATOM     24  N   UNL     1      47.416   3.064   5.556  0.00  0.00    +0.000 N 
ATOM     25  O   UNL     1      48.206   1.397   6.869  0.00  0.00    +0.000 OA
ATOM     26  H   UNL     1      46.717   3.786   5.430  0.00  0.00    +0.000 HD
ATOM     27  H   UNL     1      48.098   2.871   4.837  0.00  0.00    +0.000 HD
ENDBRANCH  20  23
ENDBRANCH  16  17
ENDBRANCH  15  16
ENDBRANCH   2  15
TORSDOF 7
ENDMDL
MODEL 2
REMARK VINA RESULT:    -7.510      1.684      2.147
REMARK INTER + INTRA:         -11.770
REMARK INTER:                 -10.951
REMARK INTRA:                  -0.820
REMARK UNBOUND:                -1.188
REMARK  Name = 
REMARK  8 active torsions:
REMARK  status: ('A' for Active; 'I' for Inactive)
REMARK    1  A    between atoms: C_1  and  C_2
REMARK    2  A    between atoms: C_2  and  C_3
REMARK    3  A    between atoms: C_2  and  C_14
REMARK    4  A    between atoms: C_3  and  O_4
REMARK    5  A    between atoms: O_4  and  C_5
REMARK    6  A    between atoms: C_8  and  C_9
REMARK    7  A    between atoms: C_18  and  O_19
REMARK    8  A    between atoms: O_19  and  C_20
REMARK                            x       y       z     vdW  Elec       q    Type
REMARK                         _______ _______ _______ _____ _____    ______ ____
ROOT
ATOM      1  C   UNL     1      43.015   5.835  11.573  0.00  0.00    +0.000 C 
ATOM      2  C   UNL     1      43.960   4.896  12.326  0.00  0.00    +0.000 C 
ENDROOT
BRANCH   2   3
ATOM      3  C   UNL     1      45.347   5.510  12.457  0.00  0.00    +0.000 A 
ATOM      4  C   UNL     1      45.845   6.320  11.429  0.00  0.00    +0.000 A 
ATOM      5  C   UNL     1      47.127   6.858  11.513  0.00  0.00    +0.000 A 
ATOM      6  C   UNL     1      47.913   6.636  12.645  0.00  0.00    +0.000 A 
ATOM      7  C   UNL     1      47.406   5.905  13.720  0.00  0.00    +0.000 A 
ATOM      8  C   UNL     1      46.148   5.306  13.600  0.00  0.00    +0.000 A 
BRANCH   7   9
ATOM      9  O   UNL     1      48.028   5.742  14.936  0.00  0.00    +0.000 OA
BRANCH   9  10
ATOM     10  C   UNL     1      49.080   6.672  15.242  0.00  0.00    +0.000 C 
ATOM     11  C   UNL     1      49.788   6.248  16.513  0.00  0.00    +0.000 C 
ATOM     12  C   UNL     1      49.073   7.007  17.609  0.00  0.00    +0.000 C 
ATOM     13  O   UNL     1      48.535   8.194  17.030  0.00  0.00    +0.000 OA
ATOM     14  C   UNL     1      48.553   8.062  15.602  0.00  0.00    +0.000 C 
ENDBRANCH   9  10
ENDBRANCH   7   9
ENDBRANCH   2   3
BRANCH   2  15
ATOM     15  C   UNL     1      44.048   3.506  11.676  0.00  0.00    +0.000 C 
BRANCH  15  16
ATOM     16  O   UNL     1      43.627   3.539  10.306  0.00  0.00    +0.000 OA
BRANCH  16  17
ATOM     17  C   UNL     1      44.580   3.162   9.397  0.00  0.00    +0.000 A 
ATOM     18  C   UNL     1      45.070   1.869   9.216  0.00  0.00    +0.000 A 
ATOM     19  C   UNL     1      46.026   1.616   8.238  0.00  0.00    +0.000 A 
ATOM     20  C   UNL     1      46.471   2.676   7.461  0.00  0.00    +0.000 A 
ATOM     21  N   UNL     1      46.030   3.955   7.604  0.00  0.00    +0.000 NA
ATOM     22  C   UNL     1      45.101   4.160   8.575  0.00  0.00    +0.000 A 
BRANCH  20  23
ATOM     23  C   UNL     1      47.476   2.414   6.384  0.00  0.00    +0.000 C 
ATOM     24  N   UNL     1      47.312   3.137   5.234  0.00  0.00    +0.000 N 
ATOM     25  O   UNL     1      48.383   1.603   6.509  0.00  0.00    +0.000 OA
ATOM     26  H   UNL     1      46.537   3.784   5.157  0.00  0.00    +0.000 HD
ATOM     27  H   UNL     1      47.939   2.984   4.457  0.00  0.00    +0.000 HD
ENDBRANCH  20  23
ENDBRANCH  16  17
ENDBRANCH  15  16
ENDBRANCH   2  15
TORSDOF 7
ENDMDL
MODEL 3
REMARK VINA RESULT:    -7.190      2.316      3.693
REMARK INTER + INTRA:         -11.320
REMARK INTER:                 -10.341
REMARK INTRA:                  -0.980
REMARK UNBOUND:                -1.188
REMARK  Name = 
REMARK  8 active torsions:
REMARK  status: ('A' for Active; 'I' for Inactive)
REMARK    1  A    between atoms: C_1  and  C_2
REMARK    2  A    between atoms: C_2  and  C_3
REMARK    3  A    between atoms: C_2  and  C_14
REMARK    4  A    between atoms: C_3  and  O_4
REMARK    5  A    between atoms: O_4  and  C_5
REMARK    6  A    between atoms: C_8  and  C_9
REMARK    7  A    between atoms: C_18  and  O_19
REMARK    8  A    between atoms: O_19  and  C_20
REMARK                            x       y       z     vdW  Elec       q    Type
REMARK                         _______ _______ _______ _____ _____    ______ ____
ROOT
ATOM      1  C   UNL     1      43.006   6.023  11.384  0.00  0.00    +0.000 C 
ATOM      2  C   UNL     1      43.522   4.891  12.275  0.00  0.00    +0.000 C 
ENDROOT
BRANCH   2   3
ATOM      3  C   UNL     1      44.914   5.207  12.803  0.00  0.00    +0.000 A 
ATOM      4  C   UNL     1      45.750   4.163  13.217  0.00  0.00    +0.000 A 
ATOM      5  C   UNL     1      47.012   4.433  13.741  0.00  0.00    +0.000 A 
ATOM      6  C   UNL     1      47.477   5.747  13.816  0.00  0.00    +0.000 A 
ATOM      7  C   UNL     1      46.698   6.798  13.330  0.00  0.00    +0.000 A 
ATOM      8  C   UNL     1      45.403   6.528  12.873  0.00  0.00    +0.000 A 
BRANCH   7   9
ATOM      9  O   UNL     1      47.105   8.107  13.221  0.00  0.00    +0.000 OA
BRANCH   9  10
ATOM     10  C   UNL     1      48.473   8.318  12.836  0.00  0.00    +0.000 C 
ATOM     11  C   UNL     1      49.226   8.994  13.963  0.00  0.00    +0.000 C 
ATOM     12  C   UNL     1      49.121  10.470  13.649  0.00  0.00    +0.000 C 
ATOM     13  O   UNL     1      48.969  10.600  12.236  0.00  0.00    +0.000 OA
ATOM     14  C   UNL     1      48.617   9.321  11.691  0.00  0.00    +0.000 C 
ENDBRANCH   9  10
ENDBRANCH   7   9
ENDBRANCH   2   3
BRANCH   2  15
ATOM     15  C   UNL     1      43.514   3.531  11.558  0.00  0.00    +0.000 C 
BRANCH  15  16
ATOM     16  O   UNL     1      43.304   3.680  10.148  0.00  0.00    +0.000 OA
BRANCH  16  17
ATOM     17  C   UNL     1      44.339   3.253   9.358  0.00  0.00    +0.000 A 
ATOM     18  C   UNL     1      44.820   1.947   9.280  0.00  0.00    +0.000 A 
ATOM     19  C   UNL     1      45.867   1.640   8.416  0.00  0.00    +0.000 A 
ATOM     20  C   UNL     1      46.409   2.661   7.649  0.00  0.00    +0.000 A 
ATOM     21  N   UNL     1      45.980   3.952   7.696  0.00  0.00    +0.000 NA
ATOM     22  C   UNL     1      44.959   4.209   8.557  0.00  0.00    +0.000 A 
BRANCH  20  23
ATOM     23  C   UNL     1      47.514   2.341   6.694  0.00  0.00    +0.000 C 
ATOM     24  N   UNL     1      47.505   3.045   5.520  0.00  0.00    +0.000 N 
ATOM     25  O   UNL     1      48.372   1.500   6.931  0.00  0.00    +0.000 OA
ATOM     26  H   UNL     1      46.767   3.717   5.349  0.00  0.00    +0.000 HD
ATOM     27  H   UNL     1      48.206   2.854   4.819  0.00  0.00    +0.000 HD
ENDBRANCH  20  23
ENDBRANCH  16  17
ENDBRANCH  15  16
ENDBRANCH   2  15
TORSDOF 7
ENDMDL
MODEL 4
REMARK VINA RESULT:    -7.165      3.346      5.654
REMARK INTER + INTRA:         -11.285
REMARK INTER:                 -10.341
REMARK INTRA:                  -0.944
REMARK UNBOUND:                -1.188
REMARK  Name = 
REMARK  8 active torsions:
REMARK  status: ('A' for Active; 'I' for Inactive)
REMARK    1  A    between atoms: C_1  and  C_2
REMARK    2  A    between atoms: C_2  and  C_3
REMARK    3  A    between atoms: C_2  and  C_14
REMARK    4  A    between atoms: C_3  and  O_4
REMARK    5  A    between atoms: O_4  and  C_5
REMARK    6  A    between atoms: C_8  and  C_9
REMARK    7  A    between atoms: C_18  and  O_19
REMARK    8  A    between atoms: O_19  and  C_20
REMARK                            x       y       z     vdW  Elec       q    Type
REMARK                         _______ _______ _______ _____ _____    ______ ____
ROOT
ATOM      1  C   UNL     1      45.393   4.284  13.219  0.00  0.00    +0.000 C 
ATOM      2  C   UNL     1      45.249   4.940  11.844  0.00  0.00    +0.000 C 
ENDROOT
BRANCH   2   3
ATOM      3  C   UNL     1      45.696   6.395  11.886  0.00  0.00    +0.000 A 
ATOM      4  C   UNL     1      47.062   6.699  11.895  0.00  0.00    +0.000 A 
ATOM      5  C   UNL     1      47.490   8.022  11.974  0.00  0.00    +0.000 A 
ATOM      6  C   UNL     1      46.561   9.063  11.997  0.00  0.00    +0.000 A 
ATOM      7  C   UNL     1      45.196   8.791  11.902  0.00  0.00    +0.000 A 
ATOM      8  C   UNL     1      44.770   7.458  11.897  0.00  0.00    +0.000 A 
BRANCH   7   9
ATOM      9  O   UNL     1      44.203   9.733  11.771  0.00  0.00    +0.000 OA
BRANCH   9  10
ATOM     10  C   UNL     1      43.444   9.693  10.552  0.00  0.00    +0.000 C 
ATOM     11  C   UNL     1      43.945  10.757   9.599  0.00  0.00    +0.000 C 
ATOM     12  C   UNL     1      43.060  11.952   9.874  0.00  0.00    +0.000 C 
ATOM     13  O   UNL     1      41.815  11.461  10.369  0.00  0.00    +0.000 OA
ATOM     14  C   UNL     1      41.981  10.089  10.754  0.00  0.00    +0.000 C 
ENDBRANCH   9  10
ENDBRANCH   7   9
ENDBRANCH   2   3
BRANCH   2  15
ATOM     15  C   UNL     1      43.820   4.831  11.289  0.00  0.00    +0.000 C 
BRANCH  15  16
ATOM     16  O   UNL     1      43.804   4.918   9.858  0.00  0.00    +0.000 OA
BRANCH  16  17
ATOM     17  C   UNL     1      44.647   4.051   9.215  0.00  0.00    +0.000 A 
ATOM     18  C   UNL     1      44.639   2.662   9.337  0.00  0.00    +0.000 A 
ATOM     19  C   UNL     1      45.539   1.892   8.607  0.00  0.00    +0.000 A 
ATOM     20  C   UNL     1      46.432   2.541   7.768  0.00  0.00    +0.000 A 
ATOM     21  N   UNL     1      46.486   3.893   7.620  0.00  0.00    +0.000 NA
ATOM     22  C   UNL     1      45.593   4.608   8.356  0.00  0.00    +0.000 A 
BRANCH  20  23
ATOM     23  C   UNL     1      47.386   1.726   6.954  0.00  0.00    +0.000 C 
ATOM     24  N   UNL     1      48.442   2.411   6.417  0.00  0.00    +0.000 N 
ATOM     25  O   UNL     1      47.237   0.526   6.764  0.00  0.00    +0.000 OA
ATOM     26  H   UNL     1      48.522   3.408   6.576  0.00  0.00    +0.000 HD
ATOM     27  H   UNL     1      49.105   1.924   5.831  0.00  0.00    +0.000 HD
ENDBRANCH  20  23
ENDBRANCH  16  17
ENDBRANCH  15  16
ENDBRANCH   2  15
TORSDOF 7
ENDMDL
MODEL 5
REMARK VINA RESULT:    -6.843      2.786      4.289
REMARK INTER + INTRA:         -10.830
REMARK INTER:                 -10.014
REMARK INTRA:                  -0.816
REMARK UNBOUND:                -1.188
REMARK  Name = 
REMARK  8 active torsions:
REMARK  status: ('A' for Active; 'I' for Inactive)
REMARK    1  A    between atoms: C_1  and  C_2
REMARK    2  A    between atoms: C_2  and  C_3
REMARK    3  A    between atoms: C_2  and  C_14
REMARK    4  A    between atoms: C_3  and  O_4
REMARK    5  A    between atoms: O_4  and  C_5
REMARK    6  A    between atoms: C_8  and  C_9
REMARK    7  A    between atoms: C_18  and  O_19
REMARK    8  A    between atoms: O_19  and  C_20
REMARK                            x       y       z     vdW  Elec       q    Type
REMARK                         _______ _______ _______ _____ _____    ______ ____
ROOT
ATOM      1  C   UNL     1      45.599   4.192  13.212  0.00  0.00    +0.000 C 
ATOM      2  C   UNL     1      45.352   4.877  11.867  0.00  0.00    +0.000 C 
ENDROOT
BRANCH   2   3
ATOM      3  C   UNL     1      45.714   6.355  11.934  0.00  0.00    +0.000 A 
ATOM      4  C   UNL     1      44.704   7.319  11.837  0.00  0.00    +0.000 A 
ATOM      5  C   UNL     1      45.019   8.676  11.856  0.00  0.00    +0.000 A 
ATOM      6  C   UNL     1      46.342   9.090  12.020  0.00  0.00    +0.000 A 
ATOM      7  C   UNL     1      47.356   8.150  12.206  0.00  0.00    +0.000 A 
ATOM      8  C   UNL     1      47.044   6.789  12.112  0.00  0.00    +0.000 A 
BRANCH   7   9
ATOM      9  O   UNL     1      48.664   8.439  12.517  0.00  0.00    +0.000 OA
BRANCH   9  10
ATOM     10  C   UNL     1      49.516   8.793  11.416  0.00  0.00    +0.000 C 
ATOM     11  C   UNL     1      50.701   7.851  11.360  0.00  0.00    +0.000 C 
ATOM     12  C   UNL     1      51.776   8.555  12.156  0.00  0.00    +0.000 C 
ATOM     13  O   UNL     1      51.520   9.957  12.080  0.00  0.00    +0.000 OA
ATOM     14  C   UNL     1      50.184  10.156  11.600  0.00  0.00    +0.000 C 
ENDBRANCH   9  10
ENDBRANCH   7   9
ENDBRANCH   2   3
BRANCH   2  15
ATOM     15  C   UNL     1      43.907   4.700  11.374  0.00  0.00    +0.000 C 
BRANCH  15  16
ATOM     16  O   UNL     1      43.825   4.782   9.945  0.00  0.00    +0.000 OA
BRANCH  16  17
ATOM     17  C   UNL     1      44.681   3.957   9.266  0.00  0.00    +0.000 A 
ATOM     18  C   UNL     1      44.730   2.568   9.369  0.00  0.00    +0.000 A 
ATOM     19  C   UNL     1      45.637   1.843   8.603  0.00  0.00    +0.000 A 
ATOM     20  C   UNL     1      46.479   2.536   7.747  0.00  0.00    +0.000 A 
ATOM     21  N   UNL     1      46.476   3.891   7.616  0.00  0.00    +0.000 NA
ATOM     22  C   UNL     1      45.579   4.561   8.387  0.00  0.00    +0.000 A 
BRANCH  20  23
ATOM     23  C   UNL     1      47.439   1.769   6.894  0.00  0.00    +0.000 C 
ATOM     24  N   UNL     1      48.445   2.503   6.327  0.00  0.00    +0.000 N 
ATOM     25  O   UNL     1      47.336   0.565   6.701  0.00  0.00    +0.000 OA
ATOM     26  H   UNL     1      48.486   3.502   6.491  0.00  0.00    +0.000 HD
ATOM     27  H   UNL     1      49.108   2.050   5.715  0.00  0.00    +0.000 HD
ENDBRANCH  20  23
ENDBRANCH  16  17
ENDBRANCH  15  16
ENDBRANCH   2  15
TORSDOF 7
ENDMDL
MODEL 6
REMARK VINA RESULT:    -6.618      2.999      7.707
REMARK INTER + INTRA:         -10.514
REMARK INTER:                  -9.543
REMARK INTRA:                  -0.971
REMARK UNBOUND:                -1.188
REMARK  Name = 
REMARK  8 active torsions:
REMARK  status: ('A' for Active; 'I' for Inactive)
REMARK    1  A    between atoms: C_1  and  C_2
REMARK    2  A    between atoms: C_2  and  C_3
REMARK    3  A    between atoms: C_2  and  C_14
REMARK    4  A    between atoms: C_3  and  O_4
REMARK    5  A    between atoms: O_4  and  C_5
REMARK    6  A    between atoms: C_8  and  C_9
REMARK    7  A    between atoms: C_18  and  O_19
REMARK    8  A    between atoms: O_19  and  C_20
REMARK                            x       y       z     vdW  Elec       q    Type
REMARK                         _______ _______ _______ _____ _____    ______ ____
ROOT
ATOM      1  C   UNL     1      46.356   8.947  12.368  0.00  0.00    +0.000 C 
ATOM      2  C   UNL     1      46.790   7.680  11.627  0.00  0.00    +0.000 C 
ENDROOT
BRANCH   2   3
ATOM      3  C   UNL     1      45.604   6.755  11.389  0.00  0.00    +0.000 A 
ATOM      4  C   UNL     1      44.304   7.268  11.456  0.00  0.00    +0.000 A 
ATOM      5  C   UNL     1      43.205   6.430  11.281  0.00  0.00    +0.000 A 
ATOM      6  C   UNL     1      43.389   5.078  10.989  0.00  0.00    +0.000 A 
ATOM      7  C   UNL     1      44.675   4.560  10.832  0.00  0.00    +0.000 A 
ATOM      8  C   UNL     1      45.775   5.390  11.081  0.00  0.00    +0.000 A 
BRANCH   7   9
ATOM      9  O   UNL     1      44.976   3.287  10.408  0.00  0.00    +0.000 OA
BRANCH   9  10
ATOM     10  C   UNL     1      44.546   2.941   9.081  0.00  0.00    +0.000 C 
ATOM     11  C   UNL     1      44.922   1.505   8.777  0.00  0.00    +0.000 C 
ATOM     12  C   UNL     1      46.269   1.608   8.097  0.00  0.00    +0.000 C 
ATOM     13  O   UNL     1      46.337   2.887   7.468  0.00  0.00    +0.000 OA
ATOM     14  C   UNL     1      45.294   3.717   7.996  0.00  0.00    +0.000 C 
ENDBRANCH   9  10
ENDBRANCH   7   9
ENDBRANCH   2   3
BRANCH   2  15
ATOM     15  C   UNL     1      47.918   6.931  12.356  0.00  0.00    +0.000 C 
BRANCH  15  16
ATOM     16  O   UNL     1      48.085   7.410  13.697  0.00  0.00    +0.000 OA
BRANCH  16  17
ATOM     17  C   UNL     1      48.042   6.444  14.668  0.00  0.00    +0.000 A 
ATOM     18  C   UNL     1      48.754   6.460  15.867  0.00  0.00    +0.000 A 
ATOM     19  C   UNL     1      48.602   5.422  16.781  0.00  0.00    +0.000 A 
ATOM     20  C   UNL     1      47.734   4.387  16.466  0.00  0.00    +0.000 A 
ATOM     21  N   UNL     1      47.025   4.322  15.306  0.00  0.00    +0.000 NA
ATOM     22  C   UNL     1      47.207   5.353  14.438  0.00  0.00    +0.000 A 
BRANCH  20  23
ATOM     23  C   UNL     1      47.537   3.280  17.452  0.00  0.00    +0.000 C 
ATOM     24  N   UNL     1      48.633   2.957  18.205  0.00  0.00    +0.000 N 
ATOM     25  O   UNL     1      46.474   2.689  17.579  0.00  0.00    +0.000 OA
ATOM     26  H   UNL     1      49.504   3.453  18.057  0.00  0.00    +0.000 HD
ATOM     27  H   UNL     1      48.575   2.196  18.867  0.00  0.00    +0.000 HD
ENDBRANCH  20  23
ENDBRANCH  16  17
ENDBRANCH  15  16
ENDBRANCH   2  15
TORSDOF 7
ENDMDL
MODEL 7
REMARK VINA RESULT:    -6.355      3.569      7.527
REMARK INTER + INTRA:         -10.143
REMARK INTER:                  -8.932
REMARK INTRA:                  -1.212
REMARK UNBOUND:                -1.188
REMARK  Name = 
REMARK  8 active torsions:
REMARK  status: ('A' for Active; 'I' for Inactive)
REMARK    1  A    between atoms: C_1  and  C_2
REMARK    2  A    between atoms: C_2  and  C_3
REMARK    3  A    between atoms: C_2  and  C_14
REMARK    4  A    between atoms: C_3  and  O_4
REMARK    5  A    between atoms: O_4  and  C_5
REMARK    6  A    between atoms: C_8  and  C_9
REMARK    7  A    between atoms: C_18  and  O_19
REMARK    8  A    between atoms: O_19  and  C_20
REMARK                            x       y       z     vdW  Elec       q    Type
REMARK                         _______ _______ _______ _____ _____    ______ ____
ROOT
ATOM      1  C   UNL     1      49.416   9.674  11.826  0.00  0.00    +0.000 C 
ATOM      2  C   UNL     1      48.992   8.204  11.772  0.00  0.00    +0.000 C 
ENDROOT
BRANCH   2   3
ATOM      3  C   UNL     1      47.475   8.075  11.791  0.00  0.00    +0.000 A 
ATOM      4  C   UNL     1      46.691   9.186  12.125  0.00  0.00    +0.000 A 
ATOM      5  C   UNL     1      45.303   9.077  12.189  0.00  0.00    +0.000 A 
ATOM      6  C   UNL     1      44.676   7.871  11.872  0.00  0.00    +0.000 A 
ATOM      7  C   UNL     1      45.429   6.774  11.452  0.00  0.00    +0.000 A 
ATOM      8  C   UNL     1      46.826   6.867  11.462  0.00  0.00    +0.000 A 
BRANCH   7   9
ATOM      9  O   UNL     1      44.916   5.588  10.982  0.00  0.00    +0.000 OA
BRANCH   9  10
ATOM     10  C   UNL     1      45.302   4.401  11.694  0.00  0.00    +0.000 C 
ATOM     11  C   UNL     1      44.691   3.183  11.031  0.00  0.00    +0.000 C 
ATOM     12  C   UNL     1      43.393   2.966  11.776  0.00  0.00    +0.000 C 
ATOM     13  O   UNL     1      43.554   3.501  13.088  0.00  0.00    +0.000 OA
ATOM     14  C   UNL     1      44.715   4.342  13.105  0.00  0.00    +0.000 C 
ENDBRANCH   9  10
ENDBRANCH   7   9
ENDBRANCH   2   3
BRANCH   2  15
ATOM     15  C   UNL     1      49.617   7.371  12.902  0.00  0.00    +0.000 C 
BRANCH  15  16
ATOM     16  O   UNL     1      49.240   7.868  14.192  0.00  0.00    +0.000 OA
BRANCH  16  17
ATOM     17  C   UNL     1      48.867   6.909  15.097  0.00  0.00    +0.000 A 
ATOM     18  C   UNL     1      49.174   6.907  16.457  0.00  0.00    +0.000 A 
ATOM     19  C   UNL     1      48.712   5.880  17.275  0.00  0.00    +0.000 A 
ATOM     20  C   UNL     1      47.950   4.873  16.701  0.00  0.00    +0.000 A 
ATOM     21  N   UNL     1      47.632   4.825  15.379  0.00  0.00    +0.000 NA
ATOM     22  C   UNL     1      48.107   5.845  14.615  0.00  0.00    +0.000 A 
BRANCH  20  23
ATOM     23  C   UNL     1      47.421   3.778  17.573  0.00  0.00    +0.000 C 
ATOM     24  N   UNL     1      48.064   3.612  18.770  0.00  0.00    +0.000 N 
ATOM     25  O   UNL     1      46.482   3.066  17.244  0.00  0.00    +0.000 OA
ATOM     26  H   UNL     1      48.852   4.206  18.999  0.00  0.00    +0.000 HD
ATOM     27  H   UNL     1      47.775   2.869  19.390  0.00  0.00    +0.000 HD
ENDBRANCH  20  23
ENDBRANCH  16  17
ENDBRANCH  15  16
ENDBRANCH   2  15
TORSDOF 7
ENDMDL
MODEL 8
REMARK VINA RESULT:    -6.252      2.652      4.666
REMARK INTER + INTRA:          -9.998
REMARK INTER:                  -8.900
REMARK INTRA:                  -1.098
REMARK UNBOUND:                -1.188
REMARK  Name = 
REMARK  8 active torsions:
REMARK  status: ('A' for Active; 'I' for Inactive)
REMARK    1  A    between atoms: C_1  and  C_2
REMARK    2  A    between atoms: C_2  and  C_3
REMARK    3  A    between atoms: C_2  and  C_14
REMARK    4  A    between atoms: C_3  and  O_4
REMARK    5  A    between atoms: O_4  and  C_5
REMARK    6  A    between atoms: C_8  and  C_9
REMARK    7  A    between atoms: C_18  and  O_19
REMARK    8  A    between atoms: O_19  and  C_20
REMARK                            x       y       z     vdW  Elec       q    Type
REMARK                         _______ _______ _______ _____ _____    ______ ____
ROOT
ATOM      1  C   UNL     1      49.290   7.568  11.790  0.00  0.00    +0.000 C 
ATOM      2  C   UNL     1      48.449   8.527  12.635  0.00  0.00    +0.000 C 
ENDROOT
BRANCH   2   3
ATOM      3  C   UNL     1      48.597   8.217  14.119  0.00  0.00    +0.000 A 
ATOM      4  C   UNL     1      48.256   9.191  15.065  0.00  0.00    +0.000 A 
ATOM      5  C   UNL     1      48.423   8.942  16.426  0.00  0.00    +0.000 A 
ATOM      6  C   UNL     1      48.886   7.700  16.863  0.00  0.00    +0.000 A 
ATOM      7  C   UNL     1      49.150   6.683  15.944  0.00  0.00    +0.000 A 
ATOM      8  C   UNL     1      49.051   6.963  14.576  0.00  0.00    +0.000 A 
BRANCH   7   9
ATOM      9  O   UNL     1      49.471   5.385  16.263  0.00  0.00    +0.000 OA
BRANCH   9  10
ATOM     10  C   UNL     1      48.713   4.784  17.325  0.00  0.00    +0.000 C 
ATOM     11  C   UNL     1      49.360   3.481  17.746  0.00  0.00    +0.000 C 
ATOM     12  C   UNL     1      48.655   2.430  16.919  0.00  0.00    +0.000 C 
ATOM     13  O   UNL     1      47.353   2.926  16.611  0.00  0.00    +0.000 OA
ATOM     14  C   UNL     1      47.322   4.335  16.877  0.00  0.00    +0.000 C 
ENDBRANCH   9  10
ENDBRANCH   7   9
ENDBRANCH   2   3
BRANCH   2  15
ATOM     15  C   UNL     1      46.966   8.520  12.230  0.00  0.00    +0.000 C 
BRANCH  15  16
ATOM     16  O   UNL     1      46.172   7.762  13.152  0.00  0.00    +0.000 OA
BRANCH  16  17
ATOM     17  C   UNL     1      45.740   6.548  12.686  0.00  0.00    +0.000 A 
ATOM     18  C   UNL     1      45.769   5.346  13.391  0.00  0.00    +0.000 A 
ATOM     19  C   UNL     1      45.276   4.183  12.807  0.00  0.00    +0.000 A 
ATOM     20  C   UNL     1      44.765   4.258  11.520  0.00  0.00    +0.000 A 
ATOM     21  N   UNL     1      44.723   5.404  10.788  0.00  0.00    +0.000 NA
ATOM     22  C   UNL     1      45.219   6.516  11.394  0.00  0.00    +0.000 A 
BRANCH  20  23
ATOM     23  C   UNL     1      44.204   3.023  10.890  0.00  0.00    +0.000 C 
ATOM     24  N   UNL     1      44.988   2.438   9.932  0.00  0.00    +0.000 N 
ATOM     25  O   UNL     1      43.113   2.561  11.195  0.00  0.00    +0.000 OA
ATOM     26  H   UNL     1      45.875   2.861   9.689  0.00  0.00    +0.000 HD
ATOM     27  H   UNL     1      44.652   1.619   9.446  0.00  0.00    +0.000 HD
ENDBRANCH  20  23
ENDBRANCH  16  17
ENDBRANCH  15  16
ENDBRANCH   2  15
TORSDOF 7
ENDMDL
MODEL 9
REMARK VINA RESULT:    -6.220      3.211      5.011
REMARK INTER + INTRA:          -9.953
REMARK INTER:                  -9.096
REMARK INTRA:                  -0.857
REMARK UNBOUND:                -1.188
REMARK  Name = 
REMARK  8 active torsions:
REMARK  status: ('A' for Active; 'I' for Inactive)
REMARK    1  A    between atoms: C_1  and  C_2
REMARK    2  A    between atoms: C_2  and  C_3
REMARK    3  A    between atoms: C_2  and  C_14
REMARK    4  A    between atoms: C_3  and  O_4
REMARK    5  A    between atoms: O_4  and  C_5
REMARK    6  A    between atoms: C_8  and  C_9
REMARK    7  A    between atoms: C_18  and  O_19
REMARK    8  A    between atoms: O_19  and  C_20
REMARK                            x       y       z     vdW  Elec       q    Type
REMARK                         _______ _______ _______ _____ _____    ______ ____
ROOT
ATOM      1  C   UNL     1      44.412   7.322  11.396  0.00  0.00    +0.000 C 
ATOM      2  C   UNL     1      45.042   6.332  12.378  0.00  0.00    +0.000 C 
ENDROOT
BRANCH   2   3
ATOM      3  C   UNL     1      46.483   6.714  12.686  0.00  0.00    +0.000 A 
ATOM      4  C   UNL     1      47.179   6.034  13.692  0.00  0.00    +0.000 A 
ATOM      5  C   UNL     1      48.485   6.395  14.015  0.00  0.00    +0.000 A 
ATOM      6  C   UNL     1      49.132   7.409  13.307  0.00  0.00    +0.000 A 
ATOM      7  C   UNL     1      48.490   8.044  12.242  0.00  0.00    +0.000 A 
ATOM      8  C   UNL     1      47.154   7.727  11.970  0.00  0.00    +0.000 A 
BRANCH   7   9
ATOM      9  O   UNL     1      49.072   8.950  11.387  0.00  0.00    +0.000 OA
BRANCH   9  10
ATOM     10  C   UNL     1      49.135  10.309  11.847  0.00  0.00    +0.000 C 
ATOM     11  C   UNL     1      48.182  11.169  11.042  0.00  0.00    +0.000 C 
ATOM     12  C   UNL     1      49.035  11.721   9.921  0.00  0.00    +0.000 C 
ATOM     13  O   UNL     1      50.382  11.767  10.387  0.00  0.00    +0.000 OA
ATOM     14  C   UNL     1      50.489  10.964  11.571  0.00  0.00    +0.000 C 
ENDBRANCH   9  10
ENDBRANCH   7   9
ENDBRANCH   2   3
BRANCH   2  15
ATOM     15  C   UNL     1      44.965   4.880  11.879  0.00  0.00    +0.000 C 
BRANCH  15  16
ATOM     16  O   UNL     1      44.305   4.795  10.609  0.00  0.00    +0.000 OA
BRANCH  16  17
ATOM     17  C   UNL     1      44.968   4.065   9.658  0.00  0.00    +0.000 A 
ATOM     18  C   UNL     1      44.987   2.674   9.564  0.00  0.00    +0.000 A 
ATOM     19  C   UNL     1      45.684   2.054   8.531  0.00  0.00    +0.000 A 
ATOM     20  C   UNL     1      46.351   2.853   7.614  0.00  0.00    +0.000 A 
ATOM     21  N   UNL     1      46.370   4.213   7.668  0.00  0.00    +0.000 NA
ATOM     22  C   UNL     1      45.681   4.777   8.695  0.00  0.00    +0.000 A 
BRANCH  20  23
ATOM     23  C   UNL     1      47.080   2.203   6.481  0.00  0.00    +0.000 C 
ATOM     24  N   UNL     1      47.278   2.987   5.377  0.00  0.00    +0.000 N 
ATOM     25  O   UNL     1      47.470   1.044   6.523  0.00  0.00    +0.000 OA
ATOM     26  H   UNL     1      46.922   3.935   5.369  0.00  0.00    +0.000 HD
ATOM     27  H   UNL     1      47.735   2.597   4.566  0.00  0.00    +0.000 HD
ENDBRANCH  20  23
ENDBRANCH  16  17
ENDBRANCH  15  16
ENDBRANCH   2  15
TORSDOF 7
ENDMDL
