MODEL 1
REMARK VINA RESULT:    -6.563      0.000      0.000
REMARK INTER + INTRA:         -11.514
REMARK INTER:                  -9.824
REMARK INTRA:                  -1.690
REMARK UNBOUND:                -1.690
REMARK  Name = 
REMARK  9 active torsions:
REMARK  status: ('A' for Active; 'I' for Inactive)
REMARK    1  A    between atoms: N_1  and  C_2
REMARK    2  A    between atoms: C_9  and  C_10
REMARK    3  A    between atoms: C_10  and  O_12
REMARK    4  A    between atoms: O_12  and  C_13
REMARK    5  A    between atoms: C_13  and  C_14
REMARK    6  A    between atoms: C_17  and  N_18
REMARK    7  A    between atoms: N_18  and  C_19
REMARK    8  A    between atoms: C_19  and  C_20
REMARK    9  A    between atoms: C_20  and  N_21
REMARK                            x       y       z     vdW  Elec       q    Type
REMARK                         _______ _______ _______ _____ _____    ______ ____
ROOT
ATOM      1  C   UNL     1      47.785   8.966  12.642  0.00  0.00    +0.000 C 
ENDROOT
BRANCH   1   2
ATOM      2  C   UNL     1      48.590   8.492  13.823  0.00  0.00    +0.000 A 
ATOM      3  C   UNL     1      48.148   8.736  15.124  0.00  0.00    +0.000 A 
ATOM      4  C   UNL     1      48.917   8.335  16.217  0.00  0.00    +0.000 A 
ATOM      5  C   UNL     1      50.129   7.654  16.049  0.00  0.00    +0.000 A 
ATOM      6  C   UNL     1      50.587   7.460  14.740  0.00  0.00    +0.000 A 
ATOM      7  C   UNL     1      49.821   7.855  13.639  0.00  0.00    +0.000 A 
BRANCH   5   8
ATOM      8  N   UNL     1      50.967   7.291  17.116  0.00  0.00    +0.000 N 
ATOM      9  H   UNL     1      51.893   7.036  16.783  0.00  0.00    +0.000 HD
BRANCH   8  10
ATOM     10  C   UNL     1      50.427   6.329  18.078  0.00  0.00    +0.000 C 
BRANCH  10  11
ATOM     11  C   UNL     1      50.189   4.960  17.413  0.00  0.00    +0.000 C 
BRANCH  11  12
ATOM     12  N   UNL     1      49.506   3.983  18.291  0.00  0.00    +0.000 NA
ATOM     13  C   UNL     1      49.151   2.720  17.599  0.00  0.00    +0.000 C 
ATOM     14  C   UNL     1      48.049   2.890  16.542  0.00  0.00    +0.000 C 
ATOM     15  O   UNL     1      46.859   3.431  17.130  0.00  0.00    +0.000 OA
ATOM     16  C   UNL     1      47.125   4.681  17.783  0.00  0.00    +0.000 C 
ATOM     17  C   UNL     1      48.249   4.552  18.829  0.00  0.00    +0.000 C 
ENDBRANCH  11  12
ENDBRANCH  10  11
ENDBRANCH   8  10
ENDBRANCH   5   8
ENDBRANCH   1   2
BRANCH   1  18
ATOM     18  O   UNL     1      47.177   7.853  11.974  0.00  0.00    +0.000 OA
BRANCH  18  19
ATOM     19  C   UNL     1      46.001   7.449  12.518  0.00  0.00    +0.000 C 
ATOM     20  O   UNL     1      45.081   8.180  12.863  0.00  0.00    +0.000 OA
BRANCH  19  28
ATOM     21  C   UNL     1      43.842   5.170  11.432  0.00  0.00    +0.000 A 
ATOM     22  N   UNL     1      43.033   4.055  11.225  0.00  0.00    +0.000 NA
ATOM     23  C   UNL     1      43.403   2.929  11.755  0.00  0.00    +0.000 A 
ATOM     24  N   UNL     1      44.521   2.749  12.513  0.00  0.00    +0.000 N 
ATOM     25  C   UNL     1      45.333   3.803  12.768  0.00  0.00    +0.000 A 
ATOM     26  N   UNL     1      46.450   3.869  13.442  0.00  0.00    +0.000 NA
ATOM     27  C   UNL     1      46.812   5.211  13.367  0.00  0.00    +0.000 A 
ATOM     28  C   UNL     1      45.965   5.996  12.672  0.00  0.00    +0.000 A 
ATOM     29  C   UNL     1      44.941   5.116  12.208  0.00  0.00    +0.000 A 
ATOM     30  H   UNL     1      44.771   1.847  12.887  0.00  0.00    +0.000 HD
BRANCH  21  31
ATOM     31  N   UNL     1      43.463   6.336  10.802  0.00  0.00    +0.000 N 
ATOM     32  H   UNL     1      42.860   6.131  10.013  0.00  0.00    +0.000 HD
ATOM     33  H   UNL     1      43.081   7.051  11.427  0.00  0.00    +0.000 HD
ENDBRANCH  21  31
ENDBRANCH  19  28
ENDBRANCH  18  19
ENDBRANCH   1  18
TORSDOF 9
ENDMDL
MODEL 2
REMARK VINA RESULT:    -6.510      3.243      8.414
REMARK INTER + INTRA:         -11.436
REMARK INTER:                 -10.534
REMARK INTRA:                  -0.902
REMARK UNBOUND:                -1.690
REMARK  Name = 
REMARK  9 active torsions:
REMARK  status: ('A' for Active; 'I' for Inactive)
REMARK    1  A    between atoms: N_1  and  C_2
REMARK    2  A    between atoms: C_9  and  C_10
REMARK    3  A    between atoms: C_10  and  O_12
REMARK    4  A    between atoms: O_12  and  C_13
REMARK    5  A    between atoms: C_13  and  C_14
REMARK    6  A    between atoms: C_17  and  N_18
REMARK    7  A    between atoms: N_18  and  C_19
REMARK    8  A    between atoms: C_19  and  C_20
REMARK    9  A    between atoms: C_20  and  N_21
REMARK                            x       y       z     vdW  Elec       q    Type
REMARK                         _______ _______ _______ _____ _____    ______ ____
ROOT
ATOM      1  C   UNL     1      47.330   4.259  15.737  0.00  0.00    +0.000 C 
ENDROOT
BRANCH   1   2
ATOM      2  C   UNL     1      46.912   4.789  14.391  0.00  0.00    +0.000 A 
ATOM      3  C   UNL     1      45.888   4.169  13.674  0.00  0.00    +0.000 A 
ATOM      4  C   UNL     1      45.533   4.634  12.406  0.00  0.00    +0.000 A 
ATOM      5  C   UNL     1      46.163   5.745  11.832  0.00  0.00    +0.000 A 
ATOM      6  C   UNL     1      47.222   6.327  12.538  0.00  0.00    +0.000 A 
ATOM      7  C   UNL     1      47.582   5.870  13.809  0.00  0.00    +0.000 A 
BRANCH   5   8
ATOM      8  N   UNL     1      45.884   6.207  10.535  0.00  0.00    +0.000 N 
ATOM      9  H   UNL     1      45.454   7.129  10.560  0.00  0.00    +0.000 HD
BRANCH   8  10
ATOM     10  C   UNL     1      45.184   5.282   9.643  0.00  0.00    +0.000 C 
BRANCH  10  11
ATOM     11  C   UNL     1      46.122   4.773   8.532  0.00  0.00    +0.000 C 
BRANCH  11  12
ATOM     12  N   UNL     1      45.449   3.915   7.531  0.00  0.00    +0.000 NA
ATOM     13  C   UNL     1      44.683   2.798   8.135  0.00  0.00    +0.000 C 
ATOM     14  C   UNL     1      45.573   1.731   8.791  0.00  0.00    +0.000 C 
ATOM     15  O   UNL     1      46.495   1.182   7.841  0.00  0.00    +0.000 OA
ATOM     16  C   UNL     1      47.301   2.210   7.247  0.00  0.00    +0.000 C 
ATOM     17  C   UNL     1      46.438   3.314   6.606  0.00  0.00    +0.000 C 
ENDBRANCH  11  12
ENDBRANCH  10  11
ENDBRANCH   8  10
ENDBRANCH   5   8
ENDBRANCH   1   2
BRANCH   1  18
ATOM     18  O   UNL     1      48.608   4.792  16.108  0.00  0.00    +0.000 OA
BRANCH  18  19
ATOM     19  C   UNL     1      48.839   4.814  17.444  0.00  0.00    +0.000 C 
ATOM     20  O   UNL     1      48.013   5.071  18.311  0.00  0.00    +0.000 OA
BRANCH  19  28
ATOM     21  C   UNL     1      50.603   2.020  17.096  0.00  0.00    +0.000 A 
ATOM     22  N   UNL     1      51.509   0.966  17.185  0.00  0.00    +0.000 NA
ATOM     23  C   UNL     1      52.667   1.203  17.724  0.00  0.00    +0.000 A 
ATOM     24  N   UNL     1      53.067   2.406  18.224  0.00  0.00    +0.000 N 
ATOM     25  C   UNL     1      52.218   3.462  18.187  0.00  0.00    +0.000 A 
ATOM     26  N   UNL     1      52.384   4.696  18.582  0.00  0.00    +0.000 NA
ATOM     27  C   UNL     1      51.165   5.307  18.299  0.00  0.00    +0.000 A 
ATOM     28  C   UNL     1      50.237   4.506  17.741  0.00  0.00    +0.000 A 
ATOM     29  C   UNL     1      50.876   3.236  17.607  0.00  0.00    +0.000 A 
ATOM     30  H   UNL     1      53.985   2.540  18.617  0.00  0.00    +0.000 HD
BRANCH  21  31
ATOM     31  N   UNL     1      49.409   1.759  16.459  0.00  0.00    +0.000 N 
ATOM     32  H   UNL     1      49.556   1.663  15.460  0.00  0.00    +0.000 HD
ATOM     33  H   UNL     1      48.871   0.988  16.864  0.00  0.00    +0.000 HD
ENDBRANCH  21  31
ENDBRANCH  19  28
ENDBRANCH  18  19
ENDBRANCH   1  18
TORSDOF 9
ENDMDL
MODEL 3
REMARK VINA RESULT:    -6.395      1.992      6.434
REMARK INTER + INTRA:         -11.263
REMARK INTER:                 -10.300
REMARK INTRA:                  -0.963
REMARK UNBOUND:                -1.690
REMARK  Name = 
REMARK  9 active torsions:
REMARK  status: ('A' for Active; 'I' for Inactive)
REMARK    1  A    between atoms: N_1  and  C_2
REMARK    2  A    between atoms: C_9  and  C_10
REMARK    3  A    between atoms: C_10  and  O_12
REMARK    4  A    between atoms: O_12  and  C_13
REMARK    5  A    between atoms: C_13  and  C_14
REMARK    6  A    between atoms: C_17  and  N_18
REMARK    7  A    between atoms: N_18  and  C_19
REMARK    8  A    between atoms: C_19  and  C_20
REMARK    9  A    between atoms: C_20  and  N_21
REMARK                            x       y       z     vdW  Elec       q    Type
REMARK                         _______ _______ _______ _____ _____    ______ ____
ROOT
ATOM      1  C   UNL     1      49.065   7.492  13.557  0.00  0.00    +0.000 C 
ENDROOT
BRANCH   1   2
ATOM      2  C   UNL     1      47.722   7.593  12.884  0.00  0.00    +0.000 A 
ATOM      3  C   UNL     1      46.750   8.468  13.371  0.00  0.00    +0.000 A 
ATOM      4  C   UNL     1      45.490   8.528  12.773  0.00  0.00    +0.000 A 
ATOM      5  C   UNL     1      45.172   7.743  11.657  0.00  0.00    +0.000 A 
ATOM      6  C   UNL     1      46.137   6.833  11.208  0.00  0.00    +0.000 A 
ATOM      7  C   UNL     1      47.402   6.769  11.799  0.00  0.00    +0.000 A 
BRANCH   5   8
ATOM      8  N   UNL     1      43.899   7.722  11.064  0.00  0.00    +0.000 N 
ATOM      9  H   UNL     1      43.483   8.651  11.060  0.00  0.00    +0.000 HD
BRANCH   8  10
ATOM     10  C   UNL     1      42.973   6.690  11.531  0.00  0.00    +0.000 C 
BRANCH  10  11
ATOM     11  C   UNL     1      43.179   5.374  10.757  0.00  0.00    +0.000 C 
BRANCH  11  12
ATOM     12  N   UNL     1      42.881   4.163  11.552  0.00  0.00    +0.000 NA
ATOM     13  C   UNL     1      43.130   4.336  13.003  0.00  0.00    +0.000 C 
ATOM     14  C   UNL     1      44.618   4.483  13.355  0.00  0.00    +0.000 C 
ATOM     15  O   UNL     1      45.362   3.343  12.905  0.00  0.00    +0.000 OA
ATOM     16  C   UNL     1      45.198   3.142  11.494  0.00  0.00    +0.000 C 
ATOM     17  C   UNL     1      43.713   3.022  11.102  0.00  0.00    +0.000 C 
ENDBRANCH  11  12
ENDBRANCH  10  11
ENDBRANCH   8  10
ENDBRANCH   5   8
ENDBRANCH   1   2
BRANCH   1  18
ATOM     18  O   UNL     1      49.020   6.525  14.615  0.00  0.00    +0.000 OA
BRANCH  18  19
ATOM     19  C   UNL     1      49.153   7.052  15.858  0.00  0.00    +0.000 C 
ATOM     20  O   UNL     1      49.149   8.244  16.138  0.00  0.00    +0.000 OA
BRANCH  19  28
ATOM     21  C   UNL     1      47.411   4.293  16.486  0.00  0.00    +0.000 A 
ATOM     22  N   UNL     1      46.788   3.175  17.037  0.00  0.00    +0.000 NA
ATOM     23  C   UNL     1      47.300   2.666  18.117  0.00  0.00    +0.000 A 
ATOM     24  N   UNL     1      48.398   3.145  18.766  0.00  0.00    +0.000 N 
ATOM     25  C   UNL     1      49.030   4.245  18.289  0.00  0.00    +0.000 A 
ATOM     26  N   UNL     1      50.094   4.866  18.724  0.00  0.00    +0.000 NA
ATOM     27  C   UNL     1      50.253   5.926  17.836  0.00  0.00    +0.000 A 
ATOM     28  C   UNL     1      49.329   5.999  16.858  0.00  0.00    +0.000 A 
ATOM     29  C   UNL     1      48.470   4.880  17.076  0.00  0.00    +0.000 A 
ATOM     30  H   UNL     1      48.763   2.700  19.593  0.00  0.00    +0.000 HD
BRANCH  21  31
ATOM     31  N   UNL     1      46.890   4.772  15.303  0.00  0.00    +0.000 N 
ATOM     32  H   UNL     1      47.175   4.184  14.528  0.00  0.00    +0.000 HD
ATOM     33  H   UNL     1      45.882   4.951  15.325  0.00  0.00    +0.000 HD
ENDBRANCH  21  31
ENDBRANCH  19  28
ENDBRANCH  18  19
ENDBRANCH   1  18
TORSDOF 9
ENDMDL
MODEL 4
REMARK VINA RESULT:    -6.336      1.940      2.799
REMARK INTER + INTRA:         -11.174
REMARK INTER:                  -9.928
REMARK INTRA:                  -1.246
REMARK UNBOUND:                -1.690
REMARK  Name = 
REMARK  9 active torsions:
REMARK  status: ('A' for Active; 'I' for Inactive)
REMARK    1  A    between atoms: N_1  and  C_2
REMARK    2  A    between atoms: C_9  and  C_10
REMARK    3  A    between atoms: C_10  and  O_12
REMARK    4  A    between atoms: O_12  and  C_13
REMARK    5  A    between atoms: C_13  and  C_14
REMARK    6  A    between atoms: C_17  and  N_18
REMARK    7  A    between atoms: N_18  and  C_19
REMARK    8  A    between atoms: C_19  and  C_20
REMARK    9  A    between atoms: C_20  and  N_21
REMARK                            x       y       z     vdW  Elec       q    Type
REMARK                         _______ _______ _______ _____ _____    ______ ____
ROOT
ATOM      1  C   UNL     1      45.434   7.644  11.975  0.00  0.00    +0.000 C 
ENDROOT
BRANCH   1   2
ATOM      2  C   UNL     1      46.781   7.577  12.645  0.00  0.00    +0.000 A 
ATOM      3  C   UNL     1      47.678   6.556  12.329  0.00  0.00    +0.000 A 
ATOM      4  C   UNL     1      48.908   6.469  12.984  0.00  0.00    +0.000 A 
ATOM      5  C   UNL     1      49.293   7.411  13.946  0.00  0.00    +0.000 A 
ATOM      6  C   UNL     1      48.365   8.401  14.291  0.00  0.00    +0.000 A 
ATOM      7  C   UNL     1      47.132   8.498  13.638  0.00  0.00    +0.000 A 
BRANCH   5   8
ATOM      8  N   UNL     1      50.490   7.326  14.675  0.00  0.00    +0.000 N 
ATOM      9  H   UNL     1      51.048   6.532  14.371  0.00  0.00    +0.000 HD
BRANCH   8  10
ATOM     10  C   UNL     1      50.381   7.415  16.132  0.00  0.00    +0.000 C 
BRANCH  10  11
ATOM     11  C   UNL     1      50.674   6.054  16.790  0.00  0.00    +0.000 C 
BRANCH  11  12
ATOM     12  N   UNL     1      49.746   5.713  17.892  0.00  0.00    +0.000 NA
ATOM     13  C   UNL     1      49.921   4.332  18.402  0.00  0.00    +0.000 C 
ATOM     14  C   UNL     1      49.492   3.251  17.398  0.00  0.00    +0.000 C 
ATOM     15  O   UNL     1      48.119   3.422  17.022  0.00  0.00    +0.000 OA
ATOM     16  C   UNL     1      47.889   4.729  16.479  0.00  0.00    +0.000 C 
ATOM     17  C   UNL     1      48.338   5.839  17.449  0.00  0.00    +0.000 C 
ENDBRANCH  11  12
ENDBRANCH  10  11
ENDBRANCH   8  10
ENDBRANCH   5   8
ENDBRANCH   1   2
BRANCH   1  18
ATOM     18  O   UNL     1      44.580   6.605  12.470  0.00  0.00    +0.000 OA
BRANCH  18  19
ATOM     19  C   UNL     1      43.632   6.194  11.590  0.00  0.00    +0.000 C 
ATOM     20  O   UNL     1      42.782   6.903  11.067  0.00  0.00    +0.000 OA
BRANCH  19  28
ATOM     21  C   UNL     1      45.298   4.458   9.299  0.00  0.00    +0.000 A 
ATOM     22  N   UNL     1      45.771   3.521   8.382  0.00  0.00    +0.000 NA
ATOM     23  C   UNL     1      45.405   2.284   8.533  0.00  0.00    +0.000 A 
ATOM     24  N   UNL     1      44.582   1.825   9.517  0.00  0.00    +0.000 N 
ATOM     25  C   UNL     1      44.072   2.694  10.424  0.00  0.00    +0.000 A 
ATOM     26  N   UNL     1      43.290   2.488  11.448  0.00  0.00    +0.000 NA
ATOM     27  C   UNL     1      43.100   3.756  11.990  0.00  0.00    +0.000 A 
ATOM     28  C   UNL     1      43.732   4.756  11.345  0.00  0.00    +0.000 A 
ATOM     29  C   UNL     1      44.437   4.121  10.278  0.00  0.00    +0.000 A 
ATOM     30  H   UNL     1      44.343   0.849   9.599  0.00  0.00    +0.000 HD
BRANCH  21  31
ATOM     31  N   UNL     1      45.755   5.750   9.156  0.00  0.00    +0.000 N 
ATOM     32  H   UNL     1      45.802   6.002   8.175  0.00  0.00    +0.000 HD
ATOM     33  H   UNL     1      45.260   6.441   9.726  0.00  0.00    +0.000 HD
ENDBRANCH  21  31
ENDBRANCH  19  28
ENDBRANCH  18  19
ENDBRANCH   1  18
TORSDOF 9
ENDMDL
MODEL 5
REMARK VINA RESULT:    -6.123      2.577      3.486
REMARK INTER + INTRA:         -10.856
REMARK INTER:                  -9.571
REMARK INTRA:                  -1.285
REMARK UNBOUND:                -1.690
REMARK  Name = 
REMARK  9 active torsions:
REMARK  status: ('A' for Active; 'I' for Inactive)
REMARK    1  A    between atoms: N_1  and  C_2
REMARK    2  A    between atoms: C_9  and  C_10
REMARK    3  A    between atoms: C_10  and  O_12
REMARK    4  A    between atoms: O_12  and  C_13
REMARK    5  A    between atoms: C_13  and  C_14
REMARK    6  A    between atoms: C_17  and  N_18
REMARK    7  A    between atoms: N_18  and  C_19
REMARK    8  A    between atoms: C_19  and  C_20
REMARK    9  A    between atoms: C_20  and  N_21
REMARK                            x       y       z     vdW  Elec       q    Type
REMARK                         _______ _______ _______ _____ _____    ______ ____
ROOT
ATOM      1  C   UNL     1      46.893   6.194  12.814  0.00  0.00    +0.000 C 
ENDROOT
BRANCH   1   2
ATOM      2  C   UNL     1      47.451   5.746  14.138  0.00  0.00    +0.000 A 
ATOM      3  C   UNL     1      47.024   4.550  14.718  0.00  0.00    +0.000 A 
ATOM      4  C   UNL     1      47.509   4.159  15.967  0.00  0.00    +0.000 A 
ATOM      5  C   UNL     1      48.454   4.927  16.659  0.00  0.00    +0.000 A 
ATOM      6  C   UNL     1      48.837   6.148  16.091  0.00  0.00    +0.000 A 
ATOM      7  C   UNL     1      48.360   6.547  14.839  0.00  0.00    +0.000 A 
BRANCH   5   8
ATOM      8  N   UNL     1      48.920   4.606  17.944  0.00  0.00    +0.000 N 
ATOM      9  H   UNL     1      48.159   4.284  18.538  0.00  0.00    +0.000 HD
BRANCH   8  10
ATOM     10  C   UNL     1      49.770   5.598  18.603  0.00  0.00    +0.000 C 
BRANCH  10  11
ATOM     11  C   UNL     1      49.204   5.980  19.984  0.00  0.00    +0.000 C 
BRANCH  11  12
ATOM     12  N   UNL     1      47.762   6.315  19.964  0.00  0.00    +0.000 NA
ATOM     13  C   UNL     1      47.467   7.599  19.287  0.00  0.00    +0.000 C 
ATOM     14  C   UNL     1      47.978   8.828  20.055  0.00  0.00    +0.000 C 
ATOM     15  O   UNL     1      47.416   8.874  21.373  0.00  0.00    +0.000 OA
ATOM     16  C   UNL     1      47.702   7.673  22.102  0.00  0.00    +0.000 C 
ATOM     17  C   UNL     1      47.230   6.417  21.343  0.00  0.00    +0.000 C 
ENDBRANCH  11  12
ENDBRANCH  10  11
ENDBRANCH   8  10
ENDBRANCH   5   8
ENDBRANCH   1   2
BRANCH   1  18
ATOM     18  O   UNL     1      45.664   6.907  13.006  0.00  0.00    +0.000 OA
BRANCH  18  19
ATOM     19  C   UNL     1      44.710   6.636  12.081  0.00  0.00    +0.000 C 
ATOM     20  O   UNL     1      44.142   7.458  11.373  0.00  0.00    +0.000 OA
BRANCH  19  28
ATOM     21  C   UNL     1      45.125   4.368   9.688  0.00  0.00    +0.000 A 
ATOM     22  N   UNL     1      45.059   3.276   8.825  0.00  0.00    +0.000 NA
ATOM     23  C   UNL     1      44.505   2.187   9.264  0.00  0.00    +0.000 A 
ATOM     24  N   UNL     1      43.968   2.025  10.506  0.00  0.00    +0.000 N 
ATOM     25  C   UNL     1      43.982   3.061  11.380  0.00  0.00    +0.000 A 
ATOM     26  N   UNL     1      43.550   3.136  12.611  0.00  0.00    +0.000 NA
ATOM     27  C   UNL     1      43.824   4.448  12.985  0.00  0.00    +0.000 A 
ATOM     28  C   UNL     1      44.412   5.205  12.038  0.00  0.00    +0.000 A 
ATOM     29  C   UNL     1      44.578   4.334  10.919  0.00  0.00    +0.000 A 
ATOM     30  H   UNL     1      43.565   1.150  10.802  0.00  0.00    +0.000 HD
BRANCH  21  31
ATOM     31  N   UNL     1      45.778   5.488   9.223  0.00  0.00    +0.000 N 
ATOM     32  H   UNL     1      46.770   5.427   9.424  0.00  0.00    +0.000 HD
ATOM     33  H   UNL     1      45.579   5.721   8.246  0.00  0.00    +0.000 HD
ENDBRANCH  21  31
ENDBRANCH  19  28
ENDBRANCH  18  19
ENDBRANCH   1  18
TORSDOF 9
ENDMDL
MODEL 6
REMARK VINA RESULT:    -6.114      2.353      6.622
REMARK INTER + INTRA:         -10.842
REMARK INTER:                  -9.155
REMARK INTRA:                  -1.687
REMARK UNBOUND:                -1.690
REMARK  Name = 
REMARK  9 active torsions:
REMARK  status: ('A' for Active; 'I' for Inactive)
REMARK    1  A    between atoms: N_1  and  C_2
REMARK    2  A    between atoms: C_9  and  C_10
REMARK    3  A    between atoms: C_10  and  O_12
REMARK    4  A    between atoms: O_12  and  C_13
REMARK    5  A    between atoms: C_13  and  C_14
REMARK    6  A    between atoms: C_17  and  N_18
REMARK    7  A    between atoms: N_18  and  C_19
REMARK    8  A    between atoms: C_19  and  C_20
REMARK    9  A    between atoms: C_20  and  N_21
REMARK                            x       y       z     vdW  Elec       q    Type
REMARK                         _______ _______ _______ _____ _____    ______ ____
ROOT
ATOM      1  C   UNL     1      49.224   7.404  17.209  0.00  0.00    +0.000 C 
ENDROOT
BRANCH   1   2
ATOM      2  C   UNL     1      48.663   7.560  15.820  0.00  0.00    +0.000 A 
ATOM      3  C   UNL     1      48.134   8.783  15.404  0.00  0.00    +0.000 A 
ATOM      4  C   UNL     1      47.574   8.913  14.132  0.00  0.00    +0.000 A 
ATOM      5  C   UNL     1      47.553   7.843  13.229  0.00  0.00    +0.000 A 
ATOM      6  C   UNL     1      48.041   6.609  13.675  0.00  0.00    +0.000 A 
ATOM      7  C   UNL     1      48.606   6.470  14.946  0.00  0.00    +0.000 A 
BRANCH   5   8
ATOM      8  N   UNL     1      46.943   7.910  11.966  0.00  0.00    +0.000 N 
ATOM      9  H   UNL     1      47.341   8.661  11.407  0.00  0.00    +0.000 HD
BRANCH   8  10
ATOM     10  C   UNL     1      45.480   7.900  11.940  0.00  0.00    +0.000 C 
BRANCH  10  11
ATOM     11  C   UNL     1      44.944   6.496  11.602  0.00  0.00    +0.000 C 
BRANCH  11  12
ATOM     12  N   UNL     1      44.295   5.816  12.745  0.00  0.00    +0.000 NA
ATOM     13  C   UNL     1      45.099   4.701  13.300  0.00  0.00    +0.000 C 
ATOM     14  C   UNL     1      45.214   3.498  12.351  0.00  0.00    +0.000 C 
ATOM     15  O   UNL     1      43.917   2.991  12.012  0.00  0.00    +0.000 OA
ATOM     16  C   UNL     1      43.097   4.013  11.428  0.00  0.00    +0.000 C 
ATOM     17  C   UNL     1      42.986   5.249  12.342  0.00  0.00    +0.000 C 
ENDBRANCH  11  12
ENDBRANCH  10  11
ENDBRANCH   8  10
ENDBRANCH   5   8
ENDBRANCH   1   2
BRANCH   1  18
ATOM     18  O   UNL     1      48.180   7.065  18.132  0.00  0.00    +0.000 OA
BRANCH  18  19
ATOM     19  C   UNL     1      48.434   5.963  18.881  0.00  0.00    +0.000 C 
ATOM     20  O   UNL     1      48.811   5.958  20.046  0.00  0.00    +0.000 OA
BRANCH  19  28
ATOM     21  C   UNL     1      50.479   3.466  18.090  0.00  0.00    +0.000 A 
ATOM     22  N   UNL     1      51.149   2.390  17.512  0.00  0.00    +0.000 NA
ATOM     23  C   UNL     1      50.484   1.627  16.698  0.00  0.00    +0.000 A 
ATOM     24  N   UNL     1      49.178   1.800  16.351  0.00  0.00    +0.000 N 
ATOM     25  C   UNL     1      48.482   2.844  16.864  0.00  0.00    +0.000 A 
ATOM     26  N   UNL     1      47.236   3.196  16.694  0.00  0.00    +0.000 NA
ATOM     27  C   UNL     1      47.104   4.351  17.460  0.00  0.00    +0.000 A 
ATOM     28  C   UNL     1      48.220   4.741  18.107  0.00  0.00    +0.000 A 
ATOM     29  C   UNL     1      49.202   3.760  17.776  0.00  0.00    +0.000 A 
ATOM     30  H   UNL     1      48.705   1.166  15.726  0.00  0.00    +0.000 HD
BRANCH  21  31
ATOM     31  N   UNL     1      51.186   4.220  19.002  0.00  0.00    +0.000 N 
ATOM     32  H   UNL     1      50.573   4.886  19.460  0.00  0.00    +0.000 HD
ATOM     33  H   UNL     1      51.750   3.673  19.658  0.00  0.00    +0.000 HD
ENDBRANCH  21  31
ENDBRANCH  19  28
ENDBRANCH  18  19
ENDBRANCH   1  18
TORSDOF 9
ENDMDL
MODEL 7
REMARK VINA RESULT:    -5.986      2.418      6.622
REMARK INTER + INTRA:         -10.650
REMARK INTER:                  -8.936
REMARK INTRA:                  -1.714
REMARK UNBOUND:                -1.690
REMARK  Name = 
REMARK  9 active torsions:
REMARK  status: ('A' for Active; 'I' for Inactive)
REMARK    1  A    between atoms: N_1  and  C_2
REMARK    2  A    between atoms: C_9  and  C_10
REMARK    3  A    between atoms: C_10  and  O_12
REMARK    4  A    between atoms: O_12  and  C_13
REMARK    5  A    between atoms: C_13  and  C_14
REMARK    6  A    between atoms: C_17  and  N_18
REMARK    7  A    between atoms: N_18  and  C_19
REMARK    8  A    between atoms: C_19  and  C_20
REMARK    9  A    between atoms: C_20  and  N_21
REMARK                            x       y       z     vdW  Elec       q    Type
REMARK                         _______ _______ _______ _____ _____    ______ ____
ROOT
ATOM      1  C   UNL     1      50.334   8.230  16.780  0.00  0.00    +0.000 C 
ENDROOT
BRANCH   1   2
ATOM      2  C   UNL     1      49.388   8.054  15.622  0.00  0.00    +0.000 A 
ATOM      3  C   UNL     1      49.543   6.985  14.738  0.00  0.00    +0.000 A 
ATOM      4  C   UNL     1      48.692   6.848  13.640  0.00  0.00    +0.000 A 
ATOM      5  C   UNL     1      47.646   7.750  13.408  0.00  0.00    +0.000 A 
ATOM      6  C   UNL     1      47.531   8.845  14.272  0.00  0.00    +0.000 A 
ATOM      7  C   UNL     1      48.377   8.989  15.376  0.00  0.00    +0.000 A 
BRANCH   5   8
ATOM      8  N   UNL     1      46.808   7.689  12.283  0.00  0.00    +0.000 N 
ATOM      9  H   UNL     1      46.995   8.460  11.646  0.00  0.00    +0.000 HD
BRANCH   8  10
ATOM     10  C   UNL     1      45.379   7.498  12.535  0.00  0.00    +0.000 C 
BRANCH  10  11
ATOM     11  C   UNL     1      45.045   6.004  12.710  0.00  0.00    +0.000 C 
BRANCH  11  12
ATOM     12  N   UNL     1      43.598   5.704  12.626  0.00  0.00    +0.000 NA
ATOM     13  C   UNL     1      43.241   4.377  13.181  0.00  0.00    +0.000 C 
ATOM     14  C   UNL     1      43.768   3.202  12.343  0.00  0.00    +0.000 C 
ATOM     15  O   UNL     1      43.278   3.275  10.998  0.00  0.00    +0.000 OA
ATOM     16  C   UNL     1      43.627   4.523  10.386  0.00  0.00    +0.000 C 
ATOM     17  C   UNL     1      43.139   5.725  11.218  0.00  0.00    +0.000 C 
ENDBRANCH  11  12
ENDBRANCH  10  11
ENDBRANCH   8  10
ENDBRANCH   5   8
ENDBRANCH   1   2
BRANCH   1  18
ATOM     18  O   UNL     1      49.603   8.337  18.009  0.00  0.00    +0.000 OA
BRANCH  18  19
ATOM     19  C   UNL     1      49.762   7.283  18.847  0.00  0.00    +0.000 C 
ATOM     20  O   UNL     1      50.692   7.118  19.626  0.00  0.00    +0.000 OA
BRANCH  19  28
ATOM     21  C   UNL     1      49.641   4.295  17.399  0.00  0.00    +0.000 A 
ATOM     22  N   UNL     1      49.290   3.112  16.752  0.00  0.00    +0.000 NA
ATOM     23  C   UNL     1      48.044   2.748  16.785  0.00  0.00    +0.000 A 
ATOM     24  N   UNL     1      47.041   3.438  17.397  0.00  0.00    +0.000 N 
ATOM     25  C   UNL     1      47.319   4.608  18.022  0.00  0.00    +0.000 A 
ATOM     26  N   UNL     1      46.539   5.423  18.680  0.00  0.00    +0.000 NA
ATOM     27  C   UNL     1      47.385   6.454  19.077  0.00  0.00    +0.000 A 
ATOM     28  C   UNL     1      48.670   6.322  18.694  0.00  0.00    +0.000 A 
ATOM     29  C   UNL     1      48.721   5.082  17.989  0.00  0.00    +0.000 A 
ATOM     30  H   UNL     1      46.092   3.101  17.407  0.00  0.00    +0.000 HD
BRANCH  21  31
ATOM     31  N   UNL     1      50.979   4.624  17.408  0.00  0.00    +0.000 N 
ATOM     32  H   UNL     1      51.344   4.644  16.461  0.00  0.00    +0.000 HD
ATOM     33  H   UNL     1      51.207   5.464  17.945  0.00  0.00    +0.000 HD
ENDBRANCH  21  31
ENDBRANCH  19  28
ENDBRANCH  18  19
ENDBRANCH   1  18
TORSDOF 9
ENDMDL
MODEL 8
REMARK VINA RESULT:    -5.949      2.306      6.366
REMARK INTER + INTRA:         -10.596
REMARK INTER:                  -8.844
REMARK INTRA:                  -1.752
REMARK UNBOUND:                -1.690
REMARK  Name = 
REMARK  9 active torsions:
REMARK  status: ('A' for Active; 'I' for Inactive)
REMARK    1  A    between atoms: N_1  and  C_2
REMARK    2  A    between atoms: C_9  and  C_10
REMARK    3  A    between atoms: C_10  and  O_12
REMARK    4  A    between atoms: O_12  and  C_13
REMARK    5  A    between atoms: C_13  and  C_14
REMARK    6  A    between atoms: C_17  and  N_18
REMARK    7  A    between atoms: N_18  and  C_19
REMARK    8  A    between atoms: C_19  and  C_20
REMARK    9  A    between atoms: C_20  and  N_21
REMARK                            x       y       z     vdW  Elec       q    Type
REMARK                         _______ _______ _______ _____ _____    ______ ____
ROOT
ATOM      1  C   UNL     1      49.923   8.366  17.065  0.00  0.00    +0.000 C 
ENDROOT
BRANCH   1   2
ATOM      2  C   UNL     1      49.186   8.175  15.766  0.00  0.00    +0.000 A 
ATOM      3  C   UNL     1      48.134   9.024  15.418  0.00  0.00    +0.000 A 
ATOM      4  C   UNL     1      47.423   8.817  14.235  0.00  0.00    +0.000 A 
ATOM      5  C   UNL     1      47.758   7.784  13.350  0.00  0.00    +0.000 A 
ATOM      6  C   UNL     1      48.782   6.910  13.733  0.00  0.00    +0.000 A 
ATOM      7  C   UNL     1      49.502   7.111  14.915  0.00  0.00    +0.000 A 
BRANCH   5   8
ATOM      8  N   UNL     1      47.030   7.500  12.183  0.00  0.00    +0.000 N 
ATOM      9  H   UNL     1      47.335   8.088  11.411  0.00  0.00    +0.000 HD
BRANCH   8  10
ATOM     10  C   UNL     1      45.574   7.445  12.312  0.00  0.00    +0.000 C 
BRANCH  10  11
ATOM     11  C   UNL     1      45.116   6.055  12.792  0.00  0.00    +0.000 C 
BRANCH  11  12
ATOM     12  N   UNL     1      45.595   4.943  11.942  0.00  0.00    +0.000 NA
ATOM     13  C   UNL     1      45.059   4.986  10.561  0.00  0.00    +0.000 C 
ATOM     14  C   UNL     1      43.551   4.703  10.480  0.00  0.00    +0.000 C 
ATOM     15  O   UNL     1      43.243   3.421  11.042  0.00  0.00    +0.000 OA
ATOM     16  C   UNL     1      43.699   3.326  12.399  0.00  0.00    +0.000 C 
ATOM     17  C   UNL     1      45.204   3.635  12.519  0.00  0.00    +0.000 C 
ENDBRANCH  11  12
ENDBRANCH  10  11
ENDBRANCH   8  10
ENDBRANCH   5   8
ENDBRANCH   1   2
BRANCH   1  18
ATOM     18  O   UNL     1      49.171   7.809  18.151  0.00  0.00    +0.000 OA
BRANCH  18  19
ATOM     19  C   UNL     1      49.854   6.905  18.897  0.00  0.00    +0.000 C 
ATOM     20  O   UNL     1      50.330   7.104  20.007  0.00  0.00    +0.000 OA
BRANCH  19  28
ATOM     21  C   UNL     1      47.571   4.728  17.854  0.00  0.00    +0.000 A 
ATOM     22  N   UNL     1      46.844   3.610  17.452  0.00  0.00    +0.000 NA
ATOM     23  C   UNL     1      47.504   2.585  17.004  0.00  0.00    +0.000 A 
ATOM     24  N   UNL     1      48.861   2.509  16.904  0.00  0.00    +0.000 N 
ATOM     25  C   UNL     1      49.621   3.557  17.303  0.00  0.00    +0.000 A 
ATOM     26  N   UNL     1      50.917   3.719  17.286  0.00  0.00    +0.000 NA
ATOM     27  C   UNL     1      51.107   4.986  17.831  0.00  0.00    +0.000 A 
ATOM     28  C   UNL     1      49.979   5.630  18.193  0.00  0.00    +0.000 A 
ATOM     29  C   UNL     1      48.918   4.740  17.848  0.00  0.00    +0.000 A 
ATOM     30  H   UNL     1      49.322   1.694  16.532  0.00  0.00    +0.000 HD
BRANCH  21  31
ATOM     31  N   UNL     1      46.844   5.826  18.262  0.00  0.00    +0.000 N 
ATOM     32  H   UNL     1      46.807   6.519  17.521  0.00  0.00    +0.000 HD
ATOM     33  H   UNL     1      45.925   5.606  18.654  0.00  0.00    +0.000 HD
ENDBRANCH  21  31
ENDBRANCH  19  28
ENDBRANCH  18  19
ENDBRANCH   1  18
TORSDOF 9
ENDMDL
MODEL 9
REMARK VINA RESULT:    -5.816      4.897      8.426
REMARK INTER + INTRA:         -10.396
REMARK INTER:                  -9.286
REMARK INTRA:                  -1.110
REMARK UNBOUND:                -1.690
REMARK  Name = 
REMARK  9 active torsions:
REMARK  status: ('A' for Active; 'I' for Inactive)
REMARK    1  A    between atoms: N_1  and  C_2
REMARK    2  A    between atoms: C_9  and  C_10
REMARK    3  A    between atoms: C_10  and  O_12
REMARK    4  A    between atoms: O_12  and  C_13
REMARK    5  A    between atoms: C_13  and  C_14
REMARK    6  A    between atoms: C_17  and  N_18
REMARK    7  A    between atoms: N_18  and  C_19
REMARK    8  A    between atoms: C_19  and  C_20
REMARK    9  A    between atoms: C_20  and  N_21
REMARK                            x       y       z     vdW  Elec       q    Type
REMARK                         _______ _______ _______ _____ _____    ______ ____
ROOT
ATOM      1  C   UNL     1      45.950   9.111  12.169  0.00  0.00    +0.000 C 
ENDROOT
BRANCH   1   2
ATOM      2  C   UNL     1      44.939  10.028  11.534  0.00  0.00    +0.000 A 
ATOM      3  C   UNL     1      45.086  11.413  11.624  0.00  0.00    +0.000 A 
ATOM      4  C   UNL     1      44.124  12.262  11.074  0.00  0.00    +0.000 A 
ATOM      5  C   UNL     1      43.008  11.760  10.393  0.00  0.00    +0.000 A 
ATOM      6  C   UNL     1      42.846  10.370  10.352  0.00  0.00    +0.000 A 
ATOM      7  C   UNL     1      43.805   9.512  10.898  0.00  0.00    +0.000 A 
BRANCH   5   8
ATOM      8  N   UNL     1      41.984  12.573   9.881  0.00  0.00    +0.000 N 
ATOM      9  H   UNL     1      41.977  13.482  10.338  0.00  0.00    +0.000 HD
BRANCH   8  10
ATOM     10  C   UNL     1      40.651  11.975   9.791  0.00  0.00    +0.000 C 
BRANCH  10  11
ATOM     11  C   UNL     1      39.783  12.381  10.997  0.00  0.00    +0.000 C 
BRANCH  11  12
ATOM     12  N   UNL     1      39.578  11.291  11.977  0.00  0.00    +0.000 NA
ATOM     13  C   UNL     1      38.945  10.086  11.392  0.00  0.00    +0.000 C 
ATOM     14  C   UNL     1      37.481  10.302  10.980  0.00  0.00    +0.000 C 
ATOM     15  O   UNL     1      36.694  10.724  12.101  0.00  0.00    +0.000 OA
ATOM     16  C   UNL     1      37.229  11.916  12.691  0.00  0.00    +0.000 C 
ATOM     17  C   UNL     1      38.708  11.743  13.089  0.00  0.00    +0.000 C 
ENDBRANCH  11  12
ENDBRANCH  10  11
ENDBRANCH   8  10
ENDBRANCH   5   8
ENDBRANCH   1   2
BRANCH   1  18
ATOM     18  O   UNL     1      45.825   7.786  11.634  0.00  0.00    +0.000 OA
BRANCH  18  19
ATOM     19  C   UNL     1      46.845   6.954  11.959  0.00  0.00    +0.000 C 
ATOM     20  O   UNL     1      48.039   7.201  11.843  0.00  0.00    +0.000 OA
BRANCH  19  28
ATOM     21  C   UNL     1      44.877   4.663  10.575  0.00  0.00    +0.000 A 
ATOM     22  N   UNL     1      43.976   3.639  10.288  0.00  0.00    +0.000 NA
ATOM     23  C   UNL     1      43.735   2.765  11.218  0.00  0.00    +0.000 A 
ATOM     24  N   UNL     1      44.288   2.771  12.463  0.00  0.00    +0.000 N 
ATOM     25  C   UNL     1      45.153   3.757  12.806  0.00  0.00    +0.000 A 
ATOM     26  N   UNL     1      45.810   3.958  13.916  0.00  0.00    +0.000 NA
ATOM     27  C   UNL     1      46.524   5.130  13.679  0.00  0.00    +0.000 A 
ATOM     28  C   UNL     1      46.341   5.676  12.461  0.00  0.00    +0.000 A 
ATOM     29  C   UNL     1      45.440   4.795  11.791  0.00  0.00    +0.000 A 
ATOM     30  H   UNL     1      44.079   2.056  13.142  0.00  0.00    +0.000 HD
BRANCH  21  31
ATOM     31  N   UNL     1      45.167   5.538   9.550  0.00  0.00    +0.000 N 
ATOM     32  H   UNL     1      44.953   5.115   8.653  0.00  0.00    +0.000 HD
ATOM     33  H   UNL     1      44.762   6.472   9.662  0.00  0.00    +0.000 HD
ENDBRANCH  21  31
ENDBRANCH  19  28
ENDBRANCH  18  19
ENDBRANCH   1  18
TORSDOF 9
ENDMDL
