MODEL 1
REMARK VINA RESULT:    -9.149      0.000      0.000
REMARK INTER + INTRA:         -15.391
REMARK INTER:                 -13.696
REMARK INTRA:                  -1.695
REMARK UNBOUND:                -1.695
REMARK  Name = 
REMARK  10 active torsions:
REMARK  status: ('A' for Active; 'I' for Inactive)
REMARK    1  A    between atoms: C_1  and  C_2
REMARK    2  A    between atoms: C_2  and  C_3
REMARK    3  A    between atoms: C_2  and  N_10
REMARK    4  A    between atoms: C_3  and  C_4
REMARK    5  A    between atoms: N_10  and  C_11
REMARK    6  A    between atoms: C_14  and  C_15
REMARK    7  A    between atoms: C_15  and  N_16
REMARK    8  A    between atoms: C_17  and  C_19
REMARK    9  A    between atoms: C_30  and  C_31
REMARK   10  A    between atoms: C_31  and  O_33
REMARK                            x       y       z     vdW  Elec       q    Type
REMARK                         _______ _______ _______ _____ _____    ______ ____
ROOT
ATOM      1  C   UNL     1      44.922   5.540  10.836  0.00  0.00    +0.000 A 
ATOM      2  C   UNL     1      46.193   6.022  10.482  0.00  0.00    +0.000 A 
ATOM      3  C   UNL     1      46.905   6.900  11.306  0.00  0.00    +0.000 A 
ATOM      4  C   UNL     1      46.352   7.366  12.499  0.00  0.00    +0.000 A 
ATOM      5  C   UNL     1      45.044   6.988  12.815  0.00  0.00    +0.000 A 
ATOM      6  C   UNL     1      44.331   6.085  12.001  0.00  0.00    +0.000 A 
ENDROOT
BRANCH   1   7
ATOM      7  N   UNL     1      44.185   4.664  10.001  0.00  0.00    +0.000 N 
ATOM      8  H   UNL     1      44.530   4.785   9.041  0.00  0.00    +0.000 HD
BRANCH   7  10
ATOM      9  C   UNL     1      45.125   2.864  11.417  0.00  0.00    +0.000 C 
ATOM     10  C   UNL     1      44.095   3.219  10.343  0.00  0.00    +0.000 C 
BRANCH  10  11
ATOM     11  C   UNL     1      44.192   2.341   9.072  0.00  0.00    +0.000 C 
BRANCH  11  12
ATOM     12  C   UNL     1      45.467   2.410   8.264  0.00  0.00    +0.000 A 
ATOM     13  C   UNL     1      46.286   1.287   8.081  0.00  0.00    +0.000 A 
ATOM     14  C   UNL     1      47.467   1.369   7.342  0.00  0.00    +0.000 A 
ATOM     15  C   UNL     1      47.825   2.569   6.735  0.00  0.00    +0.000 A 
ATOM     16  C   UNL     1      46.999   3.683   6.872  0.00  0.00    +0.000 A 
ATOM     17  C   UNL     1      45.830   3.606   7.632  0.00  0.00    +0.000 A 
ENDBRANCH  11  12
ENDBRANCH  10  11
ENDBRANCH   7  10
ENDBRANCH   1   7
BRANCH   6  18
ATOM     18  C   UNL     1      42.961   5.737  12.473  0.00  0.00    +0.000 C 
ATOM     19  O   UNL     1      42.755   5.010  13.432  0.00  0.00    +0.000 OA
BRANCH  18  20
ATOM     20  O   UNL     1      41.967   6.231  11.706  0.00  0.00    +0.000 OA
ATOM     21  H   UNL     1      42.280   6.969  11.131  0.00  0.00    +0.000 HD
ENDBRANCH  18  20
ENDBRANCH   6  18
BRANCH   4  22
ATOM     22  C   UNL     1      47.125   8.290  13.398  0.00  0.00    +0.000 C 
BRANCH  22  23
ATOM     23  N   UNL     1      47.533   7.617  14.605  0.00  0.00    +0.000 N 
ATOM     24  C   UNL     1      48.741   6.975  14.681  0.00  0.00    +0.000 C 
ATOM     25  O   UNL     1      49.551   7.005  13.759  0.00  0.00    +0.000 OA
ATOM     26  H   UNL     1      46.804   7.390  15.275  0.00  0.00    +0.000 HD
BRANCH  24  27
ATOM     27  C   UNL     1      49.046   6.293  15.946  0.00  0.00    +0.000 A 
ATOM     28  C   UNL     1      50.077   6.767  16.746  0.00  0.00    +0.000 A 
ATOM     29  S   UNL     1      50.274   5.894  18.198  0.00  0.00    +0.000 S 
ATOM     30  C   UNL     1      49.023   4.817  17.783  0.00  0.00    +0.000 A 
ATOM     31  N   UNL     1      48.693   3.782  18.602  0.00  0.00    +0.000 NA
ATOM     32  C   UNL     1      47.754   3.022  18.148  0.00  0.00    +0.000 A 
ATOM     33  N   UNL     1      47.105   3.210  16.954  0.00  0.00    +0.000 N 
ATOM     34  C   UNL     1      47.370   4.270  16.119  0.00  0.00    +0.000 A 
ATOM     35  O   UNL     1      46.716   4.454  15.098  0.00  0.00    +0.000 OA
ATOM     36  C   UNL     1      48.443   5.137  16.568  0.00  0.00    +0.000 A 
ATOM     37  H   UNL     1      46.367   2.586  16.664  0.00  0.00    +0.000 HD
ENDBRANCH  24  27
ENDBRANCH  22  23
ENDBRANCH   4  22
TORSDOF 9
ENDMDL
MODEL 2
REMARK VINA RESULT:    -8.499      2.489      3.249
REMARK INTER + INTRA:         -14.417
REMARK INTER:                 -12.573
REMARK INTRA:                  -1.844
REMARK UNBOUND:                -1.695
REMARK  Name = 
REMARK  10 active torsions:
REMARK  status: ('A' for Active; 'I' for Inactive)
REMARK    1  A    between atoms: C_1  and  C_2
REMARK    2  A    between atoms: C_2  and  C_3
REMARK    3  A    between atoms: C_2  and  N_10
REMARK    4  A    between atoms: C_3  and  C_4
REMARK    5  A    between atoms: N_10  and  C_11
REMARK    6  A    between atoms: C_14  and  C_15
REMARK    7  A    between atoms: C_15  and  N_16
REMARK    8  A    between atoms: C_17  and  C_19
REMARK    9  A    between atoms: C_30  and  C_31
REMARK   10  A    between atoms: C_31  and  O_33
REMARK                            x       y       z     vdW  Elec       q    Type
REMARK                         _______ _______ _______ _____ _____    ______ ____
ROOT
ATOM      1  C   UNL     1      45.963   5.212  12.218  0.00  0.00    +0.000 A 
ATOM      2  C   UNL     1      45.748   6.424  11.540  0.00  0.00    +0.000 A 
ATOM      3  C   UNL     1      46.295   7.629  11.991  0.00  0.00    +0.000 A 
ATOM      4  C   UNL     1      47.044   7.677  13.167  0.00  0.00    +0.000 A 
ATOM      5  C   UNL     1      47.175   6.505  13.917  0.00  0.00    +0.000 A 
ATOM      6  C   UNL     1      46.646   5.283  13.455  0.00  0.00    +0.000 A 
ENDROOT
BRANCH   1   7
ATOM      7  N   UNL     1      45.398   3.989  11.779  0.00  0.00    +0.000 N 
ATOM      8  H   UNL     1      45.108   3.463  12.611  0.00  0.00    +0.000 HD
BRANCH   7  10
ATOM      9  C   UNL     1      42.956   4.226  11.444  0.00  0.00    +0.000 C 
ATOM     10  C   UNL     1      44.309   4.001  10.766  0.00  0.00    +0.000 C 
BRANCH  10  11
ATOM     11  C   UNL     1      44.360   2.729   9.883  0.00  0.00    +0.000 C 
BRANCH  11  12
ATOM     12  C   UNL     1      45.356   2.699   8.748  0.00  0.00    +0.000 A 
ATOM     13  C   UNL     1      45.707   3.860   8.043  0.00  0.00    +0.000 A 
ATOM     14  C   UNL     1      46.620   3.814   6.988  0.00  0.00    +0.000 A 
ATOM     15  C   UNL     1      47.231   2.611   6.650  0.00  0.00    +0.000 A 
ATOM     16  C   UNL     1      46.925   1.457   7.369  0.00  0.00    +0.000 A 
ATOM     17  C   UNL     1      45.993   1.499   8.408  0.00  0.00    +0.000 A 
ENDBRANCH  11  12
ENDBRANCH  10  11
ENDBRANCH   7  10
ENDBRANCH   1   7
BRANCH   6  18
ATOM     18  C   UNL     1      46.890   4.104  14.334  0.00  0.00    +0.000 C 
ATOM     19  O   UNL     1      47.252   3.020  13.903  0.00  0.00    +0.000 OA
BRANCH  18  20
ATOM     20  O   UNL     1      46.602   4.312  15.635  0.00  0.00    +0.000 OA
ATOM     21  H   UNL     1      47.122   5.061  16.010  0.00  0.00    +0.000 HD
ENDBRANCH  18  20
ENDBRANCH   6  18
BRANCH   4  22
ATOM     22  C   UNL     1      47.654   8.967  13.641  0.00  0.00    +0.000 C 
BRANCH  22  23
ATOM     23  N   UNL     1      47.426   9.161  15.050  0.00  0.00    +0.000 N 
ATOM     24  C   UNL     1      48.443   9.007  15.956  0.00  0.00    +0.000 C 
ATOM     25  O   UNL     1      49.596   8.771  15.604  0.00  0.00    +0.000 OA
ATOM     26  H   UNL     1      46.463   9.129  15.371  0.00  0.00    +0.000 HD
BRANCH  24  27
ATOM     27  C   UNL     1      48.098   9.197  17.371  0.00  0.00    +0.000 A 
ATOM     28  C   UNL     1      47.879  10.480  17.855  0.00  0.00    +0.000 A 
ATOM     29  S   UNL     1      47.446  10.524  19.504  0.00  0.00    +0.000 S 
ATOM     30  C   UNL     1      47.591   8.834  19.643  0.00  0.00    +0.000 A 
ATOM     31  N   UNL     1      47.381   8.212  20.835  0.00  0.00    +0.000 NA
ATOM     32  C   UNL     1      47.562   6.934  20.808  0.00  0.00    +0.000 A 
ATOM     33  N   UNL     1      47.921   6.219  19.693  0.00  0.00    +0.000 N 
ATOM     34  C   UNL     1      48.094   6.799  18.458  0.00  0.00    +0.000 A 
ATOM     35  O   UNL     1      48.335   6.120  17.465  0.00  0.00    +0.000 OA
ATOM     36  C   UNL     1      47.935   8.241  18.441  0.00  0.00    +0.000 A 
ATOM     37  H   UNL     1      48.031   5.217  19.736  0.00  0.00    +0.000 HD
ENDBRANCH  24  27
ENDBRANCH  22  23
ENDBRANCH   4  22
TORSDOF 9
ENDMDL
MODEL 3
REMARK VINA RESULT:    -7.898      2.146      2.920
REMARK INTER + INTRA:         -13.518
REMARK INTER:                 -11.677
REMARK INTRA:                  -1.841
REMARK UNBOUND:                -1.695
REMARK  Name = 
REMARK  10 active torsions:
REMARK  status: ('A' for Active; 'I' for Inactive)
REMARK    1  A    between atoms: C_1  and  C_2
REMARK    2  A    between atoms: C_2  and  C_3
REMARK    3  A    between atoms: C_2  and  N_10
REMARK    4  A    between atoms: C_3  and  C_4
REMARK    5  A    between atoms: N_10  and  C_11
REMARK    6  A    between atoms: C_14  and  C_15
REMARK    7  A    between atoms: C_15  and  N_16
REMARK    8  A    between atoms: C_17  and  C_19
REMARK    9  A    between atoms: C_30  and  C_31
REMARK   10  A    between atoms: C_31  and  O_33
REMARK                            x       y       z     vdW  Elec       q    Type
REMARK                         _______ _______ _______ _____ _____    ______ ____
ROOT
ATOM      1  C   UNL     1      46.158   5.280  12.257  0.00  0.00    +0.000 A 
ATOM      2  C   UNL     1      46.183   6.481  11.528  0.00  0.00    +0.000 A 
ATOM      3  C   UNL     1      47.033   7.536  11.873  0.00  0.00    +0.000 A 
ATOM      4  C   UNL     1      47.860   7.449  12.994  0.00  0.00    +0.000 A 
ATOM      5  C   UNL     1      47.768   6.310  13.798  0.00  0.00    +0.000 A 
ATOM      6  C   UNL     1      46.932   5.233  13.442  0.00  0.00    +0.000 A 
ENDROOT
BRANCH   1   7
ATOM      7  N   UNL     1      45.288   4.212  11.926  0.00  0.00    +0.000 N 
ATOM      8  H   UNL     1      44.745   3.979  12.766  0.00  0.00    +0.000 HD
BRANCH   7  10
ATOM      9  C   UNL     1      43.015   4.838  11.170  0.00  0.00    +0.000 C 
ATOM     10  C   UNL     1      44.393   4.329  10.743  0.00  0.00    +0.000 C 
BRANCH  10  11
ATOM     11  C   UNL     1      44.348   3.001   9.948  0.00  0.00    +0.000 C 
BRANCH  11  12
ATOM     12  C   UNL     1      45.328   2.827   8.811  0.00  0.00    +0.000 A 
ATOM     13  C   UNL     1      45.767   3.916   8.043  0.00  0.00    +0.000 A 
ATOM     14  C   UNL     1      46.663   3.738   6.988  0.00  0.00    +0.000 A 
ATOM     15  C   UNL     1      47.169   2.472   6.712  0.00  0.00    +0.000 A 
ATOM     16  C   UNL     1      46.775   1.387   7.493  0.00  0.00    +0.000 A 
ATOM     17  C   UNL     1      45.860   1.562   8.534  0.00  0.00    +0.000 A 
ENDBRANCH  11  12
ENDBRANCH  10  11
ENDBRANCH   7  10
ENDBRANCH   1   7
BRANCH   6  18
ATOM     18  C   UNL     1      46.956   4.065  14.367  0.00  0.00    +0.000 C 
ATOM     19  O   UNL     1      47.202   2.929  13.993  0.00  0.00    +0.000 OA
BRANCH  18  20
ATOM     20  O   UNL     1      46.610   4.356  15.638  0.00  0.00    +0.000 OA
ATOM     21  H   UNL     1      47.207   5.034  16.035  0.00  0.00    +0.000 HD
ENDBRANCH  18  20
ENDBRANCH   6  18
BRANCH   4  22
ATOM     22  C   UNL     1      48.792   8.573  13.353  0.00  0.00    +0.000 C 
BRANCH  22  23
ATOM     23  N   UNL     1      49.064   8.588  14.768  0.00  0.00    +0.000 N 
ATOM     24  C   UNL     1      50.287   8.207  15.255  0.00  0.00    +0.000 C 
ATOM     25  O   UNL     1      51.217   7.908  14.511  0.00  0.00    +0.000 OA
ATOM     26  H   UNL     1      48.263   8.608  15.392  0.00  0.00    +0.000 HD
BRANCH  24  27
ATOM     27  C   UNL     1      50.451   8.228  16.714  0.00  0.00    +0.000 A 
ATOM     28  C   UNL     1      50.920   9.380  17.333  0.00  0.00    +0.000 A 
ATOM     29  S   UNL     1      51.011   9.256  19.031  0.00  0.00    +0.000 S 
ATOM     30  C   UNL     1      50.479   7.641  18.996  0.00  0.00    +0.000 A 
ATOM     31  N   UNL     1      50.364   6.919  20.143  0.00  0.00    +0.000 NA
ATOM     32  C   UNL     1      49.987   5.697  19.969  0.00  0.00    +0.000 A 
ATOM     33  N   UNL     1      49.701   5.133  18.751  0.00  0.00    +0.000 N 
ATOM     34  C   UNL     1      49.754   5.838  17.572  0.00  0.00    +0.000 A 
ATOM     35  O   UNL     1      49.414   5.328  16.510  0.00  0.00    +0.000 OA
ATOM     36  C   UNL     1      50.206   7.210  17.709  0.00  0.00    +0.000 A 
ATOM     37  H   UNL     1      49.396   4.174  18.685  0.00  0.00    +0.000 HD
ENDBRANCH  24  27
ENDBRANCH  22  23
ENDBRANCH   4  22
TORSDOF 9
ENDMDL
MODEL 4
REMARK VINA RESULT:    -7.837      2.356      3.206
REMARK INTER + INTRA:         -13.427
REMARK INTER:                 -11.556
REMARK INTRA:                  -1.870
REMARK UNBOUND:                -1.695
REMARK  Name = 
REMARK  10 active torsions:
REMARK  status: ('A' for Active; 'I' for Inactive)
REMARK    1  A    between atoms: C_1  and  C_2
REMARK    2  A    between atoms: C_2  and  C_3
REMARK    3  A    between atoms: C_2  and  N_10
REMARK    4  A    between atoms: C_3  and  C_4
REMARK    5  A    between atoms: N_10  and  C_11
REMARK    6  A    between atoms: C_14  and  C_15
REMARK    7  A    between atoms: C_15  and  N_16
REMARK    8  A    between atoms: C_17  and  C_19
REMARK    9  A    between atoms: C_30  and  C_31
REMARK   10  A    between atoms: C_31  and  O_33
REMARK                            x       y       z     vdW  Elec       q    Type
REMARK                         _______ _______ _______ _____ _____    ______ ____
ROOT
ATOM      1  C   UNL     1      45.965   5.834  12.553  0.00  0.00    +0.000 A 
ATOM      2  C   UNL     1      46.187   7.074  11.930  0.00  0.00    +0.000 A 
ATOM      3  C   UNL     1      47.361   7.804  12.139  0.00  0.00    +0.000 A 
ATOM      4  C   UNL     1      48.342   7.343  13.018  0.00  0.00    +0.000 A 
ATOM      5  C   UNL     1      48.091   6.170  13.734  0.00  0.00    +0.000 A 
ATOM      6  C   UNL     1      46.921   5.416  13.509  0.00  0.00    +0.000 A 
ENDROOT
BRANCH   1   7
ATOM      7  N   UNL     1      44.772   5.095  12.361  0.00  0.00    +0.000 N 
ATOM      8  H   UNL     1      44.160   5.274  13.167  0.00  0.00    +0.000 HD
BRANCH   7  10
ATOM      9  C   UNL     1      42.709   6.002  11.334  0.00  0.00    +0.000 C 
ATOM     10  C   UNL     1      44.012   5.236  11.090  0.00  0.00    +0.000 C 
BRANCH  10  11
ATOM     11  C   UNL     1      43.808   3.861  10.410  0.00  0.00    +0.000 C 
BRANCH  11  12
ATOM     12  C   UNL     1      44.808   3.441   9.358  0.00  0.00    +0.000 A 
ATOM     13  C   UNL     1      45.102   2.091   9.117  0.00  0.00    +0.000 A 
ATOM     14  C   UNL     1      46.037   1.718   8.150  0.00  0.00    +0.000 A 
ATOM     15  C   UNL     1      46.661   2.692   7.376  0.00  0.00    +0.000 A 
ATOM     16  C   UNL     1      46.347   4.035   7.574  0.00  0.00    +0.000 A 
ATOM     17  C   UNL     1      45.430   4.408   8.558  0.00  0.00    +0.000 A 
ENDBRANCH  11  12
ENDBRANCH  10  11
ENDBRANCH   7  10
ENDBRANCH   1   7
BRANCH   6  18
ATOM     18  C   UNL     1      46.796   4.167  14.312  0.00  0.00    +0.000 C 
ATOM     19  O   UNL     1      46.765   4.164  15.532  0.00  0.00    +0.000 OA
BRANCH  18  20
ATOM     20  O   UNL     1      46.798   3.034  13.579  0.00  0.00    +0.000 OA
ATOM     21  H   UNL     1      47.664   2.565  13.631  0.00  0.00    +0.000 HD
ENDBRANCH  18  20
ENDBRANCH   6  18
BRANCH   4  22
ATOM     22  C   UNL     1      49.616   8.115  13.225  0.00  0.00    +0.000 C 
BRANCH  22  23
ATOM     23  N   UNL     1      50.540   7.378  14.048  0.00  0.00    +0.000 N 
ATOM     24  C   UNL     1      51.126   7.956  15.143  0.00  0.00    +0.000 C 
ATOM     25  O   UNL     1      50.837   9.093  15.509  0.00  0.00    +0.000 OA
ATOM     26  H   UNL     1      50.956   6.544  13.643  0.00  0.00    +0.000 HD
BRANCH  24  27
ATOM     27  C   UNL     1      52.077   7.129  15.896  0.00  0.00    +0.000 A 
ATOM     28  C   UNL     1      53.433   7.425  15.841  0.00  0.00    +0.000 A 
ATOM     29  S   UNL     1      54.397   6.398  16.804  0.00  0.00    +0.000 S 
ATOM     30  C   UNL     1      53.042   5.487  17.284  0.00  0.00    +0.000 A 
ATOM     31  N   UNL     1      53.181   4.412  18.105  0.00  0.00    +0.000 NA
ATOM     32  C   UNL     1      52.079   3.789  18.359  0.00  0.00    +0.000 A 
ATOM     33  N   UNL     1      50.847   4.152  17.876  0.00  0.00    +0.000 N 
ATOM     34  C   UNL     1      50.653   5.260  17.085  0.00  0.00    +0.000 A 
ATOM     35  O   UNL     1      49.528   5.604  16.737  0.00  0.00    +0.000 OA
ATOM     36  C   UNL     1      51.867   5.977  16.742  0.00  0.00    +0.000 A 
ATOM     37  H   UNL     1      50.021   3.630  18.125  0.00  0.00    +0.000 HD
ENDBRANCH  24  27
ENDBRANCH  22  23
ENDBRANCH   4  22
TORSDOF 9
ENDMDL
MODEL 5
REMARK VINA RESULT:    -7.734      2.388      3.730
REMARK INTER + INTRA:         -13.272
REMARK INTER:                 -11.731
REMARK INTRA:                  -1.541
REMARK UNBOUND:                -1.695
REMARK  Name = 
REMARK  10 active torsions:
REMARK  status: ('A' for Active; 'I' for Inactive)
REMARK    1  A    between atoms: C_1  and  C_2
REMARK    2  A    between atoms: C_2  and  C_3
REMARK    3  A    between atoms: C_2  and  N_10
REMARK    4  A    between atoms: C_3  and  C_4
REMARK    5  A    between atoms: N_10  and  C_11
REMARK    6  A    between atoms: C_14  and  C_15
REMARK    7  A    between atoms: C_15  and  N_16
REMARK    8  A    between atoms: C_17  and  C_19
REMARK    9  A    between atoms: C_30  and  C_31
REMARK   10  A    between atoms: C_31  and  O_33
REMARK                            x       y       z     vdW  Elec       q    Type
REMARK                         _______ _______ _______ _____ _____    ______ ____
ROOT
ATOM      1  C   UNL     1      45.725   4.992  11.933  0.00  0.00    +0.000 A 
ATOM      2  C   UNL     1      46.011   3.673  12.323  0.00  0.00    +0.000 A 
ATOM      3  C   UNL     1      46.568   3.377  13.571  0.00  0.00    +0.000 A 
ATOM      4  C   UNL     1      46.903   4.396  14.463  0.00  0.00    +0.000 A 
ATOM      5  C   UNL     1      46.732   5.720  14.051  0.00  0.00    +0.000 A 
ATOM      6  C   UNL     1      46.149   6.024  12.804  0.00  0.00    +0.000 A 
ENDROOT
BRANCH   1   7
ATOM      7  N   UNL     1      45.177   5.304  10.664  0.00  0.00    +0.000 N 
ATOM      8  H   UNL     1      45.885   5.079   9.955  0.00  0.00    +0.000 HD
BRANCH   7  10
ATOM      9  C   UNL     1      42.840   4.950  11.401  0.00  0.00    +0.000 C 
ATOM     10  C   UNL     1      43.855   4.747  10.274  0.00  0.00    +0.000 C 
BRANCH  10  11
ATOM     11  C   UNL     1      43.987   3.274   9.814  0.00  0.00    +0.000 C 
BRANCH  11  12
ATOM     12  C   UNL     1      45.041   2.952   8.780  0.00  0.00    +0.000 A 
ATOM     13  C   UNL     1      45.495   3.913   7.865  0.00  0.00    +0.000 A 
ATOM     14  C   UNL     1      46.461   3.596   6.908  0.00  0.00    +0.000 A 
ATOM     15  C   UNL     1      47.020   2.323   6.881  0.00  0.00    +0.000 A 
ATOM     16  C   UNL     1      46.611   1.370   7.812  0.00  0.00    +0.000 A 
ATOM     17  C   UNL     1      45.627   1.680   8.753  0.00  0.00    +0.000 A 
ENDBRANCH  11  12
ENDBRANCH  10  11
ENDBRANCH   7  10
ENDBRANCH   1   7
BRANCH   6  18
ATOM     18  C   UNL     1      45.990   7.476  12.505  0.00  0.00    +0.000 C 
ATOM     19  O   UNL     1      46.939   8.223  12.327  0.00  0.00    +0.000 OA
BRANCH  18  20
ATOM     20  O   UNL     1      44.713   7.910  12.524  0.00  0.00    +0.000 OA
ATOM     21  H   UNL     1      44.243   7.632  13.346  0.00  0.00    +0.000 HD
ENDBRANCH  18  20
ENDBRANCH   6  18
BRANCH   4  22
ATOM     22  C   UNL     1      47.479   4.078  15.816  0.00  0.00    +0.000 C 
BRANCH  22  23
ATOM     23  N   UNL     1      47.498   5.246  16.658  0.00  0.00    +0.000 N 
ATOM     24  C   UNL     1      48.650   5.644  17.285  0.00  0.00    +0.000 C 
ATOM     25  O   UNL     1      49.720   5.070  17.102  0.00  0.00    +0.000 OA
ATOM     26  H   UNL     1      46.603   5.586  16.997  0.00  0.00    +0.000 HD
BRANCH  24  27
ATOM     27  C   UNL     1      48.554   6.830  18.146  0.00  0.00    +0.000 A 
ATOM     28  C   UNL     1      48.615   6.679  19.526  0.00  0.00    +0.000 A 
ATOM     29  S   UNL     1      48.534   8.154  20.379  0.00  0.00    +0.000 S 
ATOM     30  C   UNL     1      48.360   9.041  18.938  0.00  0.00    +0.000 A 
ATOM     31  N   UNL     1      48.207  10.392  18.965  0.00  0.00    +0.000 NA
ATOM     32  C   UNL     1      48.047  10.934  17.804  0.00  0.00    +0.000 A 
ATOM     33  N   UNL     1      48.040  10.248  16.616  0.00  0.00    +0.000 N 
ATOM     34  C   UNL     1      48.242   8.890  16.537  0.00  0.00    +0.000 A 
ATOM     35  O   UNL     1      48.311   8.320  15.453  0.00  0.00    +0.000 OA
ATOM     36  C   UNL     1      48.393   8.228  17.818  0.00  0.00    +0.000 A 
ATOM     37  H   UNL     1      47.925  10.735  15.740  0.00  0.00    +0.000 HD
ENDBRANCH  24  27
ENDBRANCH  22  23
ENDBRANCH   4  22
TORSDOF 9
ENDMDL
MODEL 6
REMARK VINA RESULT:    -7.638      2.816      3.720
REMARK INTER + INTRA:         -13.129
REMARK INTER:                 -11.618
REMARK INTRA:                  -1.511
REMARK UNBOUND:                -1.695
REMARK  Name = 
REMARK  10 active torsions:
REMARK  status: ('A' for Active; 'I' for Inactive)
REMARK    1  A    between atoms: C_1  and  C_2
REMARK    2  A    between atoms: C_2  and  C_3
REMARK    3  A    between atoms: C_2  and  N_10
REMARK    4  A    between atoms: C_3  and  C_4
REMARK    5  A    between atoms: N_10  and  C_11
REMARK    6  A    between atoms: C_14  and  C_15
REMARK    7  A    between atoms: C_15  and  N_16
REMARK    8  A    between atoms: C_17  and  C_19
REMARK    9  A    between atoms: C_30  and  C_31
REMARK   10  A    between atoms: C_31  and  O_33
REMARK                            x       y       z     vdW  Elec       q    Type
REMARK                         _______ _______ _______ _____ _____    ______ ____
ROOT
ATOM      1  C   UNL     1      46.485   4.567  13.020  0.00  0.00    +0.000 A 
ATOM      2  C   UNL     1      46.689   3.818  14.190  0.00  0.00    +0.000 A 
ATOM      3  C   UNL     1      47.344   4.352  15.304  0.00  0.00    +0.000 A 
ATOM      4  C   UNL     1      47.863   5.647  15.274  0.00  0.00    +0.000 A 
ATOM      5  C   UNL     1      47.771   6.369  14.081  0.00  0.00    +0.000 A 
ATOM      6  C   UNL     1      47.090   5.846  12.964  0.00  0.00    +0.000 A 
ENDROOT
BRANCH   1   7
ATOM      7  N   UNL     1      45.837   4.030  11.880  0.00  0.00    +0.000 N 
ATOM      8  H   UNL     1      46.101   3.040  11.809  0.00  0.00    +0.000 HD
BRANCH   7  10
ATOM      9  C   UNL     1      43.628   3.139  12.557  0.00  0.00    +0.000 C 
ATOM     10  C   UNL     1      44.367   4.189  11.724  0.00  0.00    +0.000 C 
BRANCH  10  11
ATOM     11  C   UNL     1      43.965   4.192  10.228  0.00  0.00    +0.000 C 
BRANCH  11  12
ATOM     12  C   UNL     1      44.898   3.520   9.248  0.00  0.00    +0.000 A 
ATOM     13  C   UNL     1      45.048   2.126   9.210  0.00  0.00    +0.000 A 
ATOM     14  C   UNL     1      45.922   1.520   8.306  0.00  0.00    +0.000 A 
ATOM     15  C   UNL     1      46.628   2.298   7.394  0.00  0.00    +0.000 A 
ATOM     16  C   UNL     1      46.456   3.681   7.390  0.00  0.00    +0.000 A 
ATOM     17  C   UNL     1      45.600   4.289   8.311  0.00  0.00    +0.000 A 
ENDBRANCH  11  12
ENDBRANCH  10  11
ENDBRANCH   7  10
ENDBRANCH   1   7
BRANCH   6  18
ATOM     18  C   UNL     1      47.034   6.735  11.769  0.00  0.00    +0.000 C 
ATOM     19  O   UNL     1      48.033   7.200  11.242  0.00  0.00    +0.000 OA
BRANCH  18  20
ATOM     20  O   UNL     1      45.785   7.044  11.366  0.00  0.00    +0.000 OA
ATOM     21  H   UNL     1      45.790   7.607  10.555  0.00  0.00    +0.000 HD
ENDBRANCH  18  20
ENDBRANCH   6  18
BRANCH   4  22
ATOM     22  C   UNL     1      48.547   6.232  16.479  0.00  0.00    +0.000 C 
BRANCH  22  23
ATOM     23  N   UNL     1      49.683   5.436  16.867  0.00  0.00    +0.000 N 
ATOM     24  C   UNL     1      49.978   5.226  18.189  0.00  0.00    +0.000 C 
ATOM     25  O   UNL     1      49.254   5.643  19.090  0.00  0.00    +0.000 OA
ATOM     26  H   UNL     1      50.401   5.283  16.166  0.00  0.00    +0.000 HD
BRANCH  24  27
ATOM     27  C   UNL     1      51.175   4.427  18.478  0.00  0.00    +0.000 A 
ATOM     28  C   UNL     1      52.192   4.973  19.251  0.00  0.00    +0.000 A 
ATOM     29  S   UNL     1      53.490   3.902  19.530  0.00  0.00    +0.000 S 
ATOM     30  C   UNL     1      52.765   2.690  18.581  0.00  0.00    +0.000 A 
ATOM     31  N   UNL     1      53.387   1.497  18.378  0.00  0.00    +0.000 NA
ATOM     32  C   UNL     1      52.744   0.685  17.608  0.00  0.00    +0.000 A 
ATOM     33  N   UNL     1      51.528   0.951  17.032  0.00  0.00    +0.000 N 
ATOM     34  C   UNL     1      50.840   2.122  17.250  0.00  0.00    +0.000 A 
ATOM     35  O   UNL     1      49.718   2.295  16.785  0.00  0.00    +0.000 OA
ATOM     36  C   UNL     1      51.535   3.085  18.082  0.00  0.00    +0.000 A 
ATOM     37  H   UNL     1      51.071   0.265  16.451  0.00  0.00    +0.000 HD
ENDBRANCH  24  27
ENDBRANCH  22  23
ENDBRANCH   4  22
TORSDOF 9
ENDMDL
MODEL 7
REMARK VINA RESULT:    -7.541      3.329      9.041
REMARK INTER + INTRA:         -12.983
REMARK INTER:                 -10.694
REMARK INTRA:                  -2.289
REMARK UNBOUND:                -1.695
REMARK  Name = 
REMARK  10 active torsions:
REMARK  status: ('A' for Active; 'I' for Inactive)
REMARK    1  A    between atoms: C_1  and  C_2
REMARK    2  A    between atoms: C_2  and  C_3
REMARK    3  A    between atoms: C_2  and  N_10
REMARK    4  A    between atoms: C_3  and  C_4
REMARK    5  A    between atoms: N_10  and  C_11
REMARK    6  A    between atoms: C_14  and  C_15
REMARK    7  A    between atoms: C_15  and  N_16
REMARK    8  A    between atoms: C_17  and  C_19
REMARK    9  A    between atoms: C_30  and  C_31
REMARK   10  A    between atoms: C_31  and  O_33
REMARK                            x       y       z     vdW  Elec       q    Type
REMARK                         _______ _______ _______ _____ _____    ______ ____
ROOT
ATOM      1  C   UNL     1      49.381   5.456  17.353  0.00  0.00    +0.000 A 
ATOM      2  C   UNL     1      50.002   6.605  16.835  0.00  0.00    +0.000 A 
ATOM      3  C   UNL     1      49.590   7.189  15.633  0.00  0.00    +0.000 A 
ATOM      4  C   UNL     1      48.566   6.617  14.876  0.00  0.00    +0.000 A 
ATOM      5  C   UNL     1      48.012   5.412  15.315  0.00  0.00    +0.000 A 
ATOM      6  C   UNL     1      48.406   4.832  16.538  0.00  0.00    +0.000 A 
ENDROOT
BRANCH   1   7
ATOM      7  N   UNL     1      49.803   4.848  18.561  0.00  0.00    +0.000 N 
ATOM      8  H   UNL     1      50.791   4.590  18.453  0.00  0.00    +0.000 HD
BRANCH   7  10
ATOM      9  C   UNL     1      50.275   4.789  20.991  0.00  0.00    +0.000 C 
ATOM     10  C   UNL     1      49.587   5.549  19.855  0.00  0.00    +0.000 C 
BRANCH  10  11
ATOM     11  C   UNL     1      48.080   5.807  20.101  0.00  0.00    +0.000 C 
BRANCH  11  12
ATOM     12  C   UNL     1      47.630   7.239  20.275  0.00  0.00    +0.000 A 
ATOM     13  C   UNL     1      47.369   7.781  21.541  0.00  0.00    +0.000 A 
ATOM     14  C   UNL     1      46.942   9.103  21.685  0.00  0.00    +0.000 A 
ATOM     15  C   UNL     1      46.812   9.916  20.564  0.00  0.00    +0.000 A 
ATOM     16  C   UNL     1      47.110   9.404  19.302  0.00  0.00    +0.000 A 
ATOM     17  C   UNL     1      47.513   8.075  19.157  0.00  0.00    +0.000 A 
ENDBRANCH  11  12
ENDBRANCH  10  11
ENDBRANCH   7  10
ENDBRANCH   1   7
BRANCH   6  18
ATOM     18  C   UNL     1      47.709   3.567  16.905  0.00  0.00    +0.000 C 
ATOM     19  O   UNL     1      46.553   3.538  17.298  0.00  0.00    +0.000 OA
BRANCH  18  20
ATOM     20  O   UNL     1      48.486   2.466  16.840  0.00  0.00    +0.000 OA
ATOM     21  H   UNL     1      49.019   2.344  17.660  0.00  0.00    +0.000 HD
ENDBRANCH  18  20
ENDBRANCH   6  18
BRANCH   4  22
ATOM     22  C   UNL     1      48.105   7.257  13.596  0.00  0.00    +0.000 C 
BRANCH  22  23
ATOM     23  N   UNL     1      47.415   6.306  12.761  0.00  0.00    +0.000 N 
ATOM     24  C   UNL     1      46.422   6.708  11.907  0.00  0.00    +0.000 C 
ATOM     25  O   UNL     1      46.128   7.892  11.765  0.00  0.00    +0.000 OA
ATOM     26  H   UNL     1      47.480   5.327  13.026  0.00  0.00    +0.000 HD
BRANCH  24  27
ATOM     27  C   UNL     1      45.761   5.655  11.124  0.00  0.00    +0.000 A 
ATOM     28  C   UNL     1      45.893   5.648   9.742  0.00  0.00    +0.000 A 
ATOM     29  S   UNL     1      45.103   4.338   8.986  0.00  0.00    +0.000 S 
ATOM     30  C   UNL     1      44.512   3.766  10.476  0.00  0.00    +0.000 A 
ATOM     31  N   UNL     1      43.715   2.664  10.533  0.00  0.00    +0.000 NA
ATOM     32  C   UNL     1      43.306   2.364  11.720  0.00  0.00    +0.000 A 
ATOM     33  N   UNL     1      43.632   3.057  12.858  0.00  0.00    +0.000 N 
ATOM     34  C   UNL     1      44.473   4.145  12.854  0.00  0.00    +0.000 A 
ATOM     35  O   UNL     1      44.809   4.692  13.898  0.00  0.00    +0.000 OA
ATOM     36  C   UNL     1      44.935   4.545  11.538  0.00  0.00    +0.000 A 
ATOM     37  H   UNL     1      43.290   2.759  13.759  0.00  0.00    +0.000 HD
ENDBRANCH  24  27
ENDBRANCH  22  23
ENDBRANCH   4  22
TORSDOF 9
ENDMDL
MODEL 8
REMARK VINA RESULT:    -7.539      4.442      6.146
REMARK INTER + INTRA:         -12.980
REMARK INTER:                 -11.427
REMARK INTRA:                  -1.553
REMARK UNBOUND:                -1.695
REMARK  Name = 
REMARK  10 active torsions:
REMARK  status: ('A' for Active; 'I' for Inactive)
REMARK    1  A    between atoms: C_1  and  C_2
REMARK    2  A    between atoms: C_2  and  C_3
REMARK    3  A    between atoms: C_2  and  N_10
REMARK    4  A    between atoms: C_3  and  C_4
REMARK    5  A    between atoms: N_10  and  C_11
REMARK    6  A    between atoms: C_14  and  C_15
REMARK    7  A    between atoms: C_15  and  N_16
REMARK    8  A    between atoms: C_17  and  C_19
REMARK    9  A    between atoms: C_30  and  C_31
REMARK   10  A    between atoms: C_31  and  O_33
REMARK                            x       y       z     vdW  Elec       q    Type
REMARK                         _______ _______ _______ _____ _____    ______ ____
ROOT
ATOM      1  C   UNL     1      46.265   5.392  12.248  0.00  0.00    +0.000 A 
ATOM      2  C   UNL     1      46.376   6.558  11.473  0.00  0.00    +0.000 A 
ATOM      3  C   UNL     1      47.331   7.541  11.752  0.00  0.00    +0.000 A 
ATOM      4  C   UNL     1      48.185   7.416  12.848  0.00  0.00    +0.000 A 
ATOM      5  C   UNL     1      48.016   6.319  13.698  0.00  0.00    +0.000 A 
ATOM      6  C   UNL     1      47.073   5.313  13.408  0.00  0.00    +0.000 A 
ENDROOT
BRANCH   1   7
ATOM      7  N   UNL     1      45.290   4.398  11.984  0.00  0.00    +0.000 N 
ATOM      8  H   UNL     1      44.666   4.350  12.798  0.00  0.00    +0.000 HD
BRANCH   7  10
ATOM      9  C   UNL     1      43.106   5.026  11.000  0.00  0.00    +0.000 C 
ATOM     10  C   UNL     1      44.500   4.456  10.726  0.00  0.00    +0.000 C 
BRANCH  10  11
ATOM     11  C   UNL     1      44.481   3.079  10.019  0.00  0.00    +0.000 C 
BRANCH  11  12
ATOM     12  C   UNL     1      45.435   2.865   8.867  0.00  0.00    +0.000 A 
ATOM     13  C   UNL     1      45.903   1.588   8.524  0.00  0.00    +0.000 A 
ATOM     14  C   UNL     1      46.793   1.408   7.464  0.00  0.00    +0.000 A 
ATOM     15  C   UNL     1      47.195   2.500   6.702  0.00  0.00    +0.000 A 
ATOM     16  C   UNL     1      46.705   3.769   7.003  0.00  0.00    +0.000 A 
ATOM     17  C   UNL     1      45.833   3.952   8.078  0.00  0.00    +0.000 A 
ENDBRANCH  11  12
ENDBRANCH  10  11
ENDBRANCH   7  10
ENDBRANCH   1   7
BRANCH   6  18
ATOM     18  C   UNL     1      47.021   4.181  14.376  0.00  0.00    +0.000 C 
ATOM     19  O   UNL     1      47.276   3.029  14.061  0.00  0.00    +0.000 OA
BRANCH  18  20
ATOM     20  O   UNL     1      46.596   4.523  15.610  0.00  0.00    +0.000 OA
ATOM     21  H   UNL     1      47.190   5.189  16.030  0.00  0.00    +0.000 HD
ENDBRANCH  18  20
ENDBRANCH   6  18
BRANCH   4  22
ATOM     22  C   UNL     1      49.229   8.460  13.136  0.00  0.00    +0.000 C 
BRANCH  22  23
ATOM     23  N   UNL     1      49.892   8.876  11.926  0.00  0.00    +0.000 N 
ATOM     24  C   UNL     1      51.258   8.837  11.822  0.00  0.00    +0.000 C 
ATOM     25  O   UNL     1      51.965   8.384  12.718  0.00  0.00    +0.000 OA
ATOM     26  H   UNL     1      49.358   9.453  11.282  0.00  0.00    +0.000 HD
BRANCH  24  27
ATOM     27  C   UNL     1      51.835   9.313  10.558  0.00  0.00    +0.000 A 
ATOM     28  C   UNL     1      51.722  10.655  10.217  0.00  0.00    +0.000 A 
ATOM     29  S   UNL     1      52.482  11.053   8.743  0.00  0.00    +0.000 S 
ATOM     30  C   UNL     1      52.941   9.436   8.481  0.00  0.00    +0.000 A 
ATOM     31  N   UNL     1      53.613   9.075   7.354  0.00  0.00    +0.000 NA
ATOM     32  C   UNL     1      53.865   7.812   7.264  0.00  0.00    +0.000 A 
ATOM     33  N   UNL     1      53.518   6.877   8.207  0.00  0.00    +0.000 N 
ATOM     34  C   UNL     1      52.884   7.203   9.383  0.00  0.00    +0.000 A 
ATOM     35  O   UNL     1      52.660   6.355  10.240  0.00  0.00    +0.000 OA
ATOM     36  C   UNL     1      52.547   8.608   9.518  0.00  0.00    +0.000 A 
ATOM     37  H   UNL     1      53.759   5.906   8.083  0.00  0.00    +0.000 HD
ENDBRANCH  24  27
ENDBRANCH  22  23
ENDBRANCH   4  22
TORSDOF 9
ENDMDL
MODEL 9
REMARK VINA RESULT:    -7.524      3.104      8.167
REMARK INTER + INTRA:         -12.958
REMARK INTER:                 -11.148
REMARK INTRA:                  -1.810
REMARK UNBOUND:                -1.695
REMARK  Name = 
REMARK  10 active torsions:
REMARK  status: ('A' for Active; 'I' for Inactive)
REMARK    1  A    between atoms: C_1  and  C_2
REMARK    2  A    between atoms: C_2  and  C_3
REMARK    3  A    between atoms: C_2  and  N_10
REMARK    4  A    between atoms: C_3  and  C_4
REMARK    5  A    between atoms: N_10  and  C_11
REMARK    6  A    between atoms: C_14  and  C_15
REMARK    7  A    between atoms: C_15  and  N_16
REMARK    8  A    between atoms: C_17  and  C_19
REMARK    9  A    between atoms: C_30  and  C_31
REMARK   10  A    between atoms: C_31  and  O_33
REMARK                            x       y       z     vdW  Elec       q    Type
REMARK                         _______ _______ _______ _____ _____    ______ ____
ROOT
ATOM      1  C   UNL     1      48.712   6.193  17.242  0.00  0.00    +0.000 A 
ATOM      2  C   UNL     1      49.326   7.357  16.751  0.00  0.00    +0.000 A 
ATOM      3  C   UNL     1      49.212   7.743  15.412  0.00  0.00    +0.000 A 
ATOM      4  C   UNL     1      48.515   6.953  14.498  0.00  0.00    +0.000 A 
ATOM      5  C   UNL     1      47.993   5.734  14.939  0.00  0.00    +0.000 A 
ATOM      6  C   UNL     1      48.083   5.351  16.292  0.00  0.00    +0.000 A 
ENDROOT
BRANCH   1   7
ATOM      7  N   UNL     1      48.836   5.783  18.592  0.00  0.00    +0.000 N 
ATOM      8  H   UNL     1      48.182   5.006  18.744  0.00  0.00    +0.000 HD
BRANCH   7  10
ATOM      9  C   UNL     1      50.670   6.573  20.056  0.00  0.00    +0.000 C 
ATOM     10  C   UNL     1      50.177   5.449  19.142  0.00  0.00    +0.000 C 
BRANCH  10  11
ATOM     11  C   UNL     1      51.168   5.089  18.007  0.00  0.00    +0.000 C 
BRANCH  11  12
ATOM     12  C   UNL     1      51.606   3.648  17.886  0.00  0.00    +0.000 A 
ATOM     13  C   UNL     1      50.744   2.653  17.404  0.00  0.00    +0.000 A 
ATOM     14  C   UNL     1      51.159   1.324  17.309  0.00  0.00    +0.000 A 
ATOM     15  C   UNL     1      52.461   0.977  17.654  0.00  0.00    +0.000 A 
ATOM     16  C   UNL     1      53.344   1.962  18.094  0.00  0.00    +0.000 A 
ATOM     17  C   UNL     1      52.920   3.288  18.212  0.00  0.00    +0.000 A 
ENDBRANCH  11  12
ENDBRANCH  10  11
ENDBRANCH   7  10
ENDBRANCH   1   7
BRANCH   6  18
ATOM     18  C   UNL     1      47.452   4.045  16.636  0.00  0.00    +0.000 C 
ATOM     19  O   UNL     1      47.505   3.071  15.902  0.00  0.00    +0.000 OA
BRANCH  18  20
ATOM     20  O   UNL     1      46.753   4.053  17.789  0.00  0.00    +0.000 OA
ATOM     21  H   UNL     1      47.064   3.354  18.412  0.00  0.00    +0.000 HD
ENDBRANCH  18  20
ENDBRANCH   6  18
BRANCH   4  22
ATOM     22  C   UNL     1      48.371   7.379  13.063  0.00  0.00    +0.000 C 
BRANCH  22  23
ATOM     23  N   UNL     1      47.645   6.395  12.301  0.00  0.00    +0.000 N 
ATOM     24  C   UNL     1      46.424   6.687  11.752  0.00  0.00    +0.000 C 
ATOM     25  O   UNL     1      45.933   7.811  11.824  0.00  0.00    +0.000 OA
ATOM     26  H   UNL     1      47.916   5.423  12.424  0.00  0.00    +0.000 HD
BRANCH  24  27
ATOM     27  C   UNL     1      45.754   5.604  11.021  0.00  0.00    +0.000 A 
ATOM     28  C   UNL     1      45.839   5.560   9.636  0.00  0.00    +0.000 A 
ATOM     29  S   UNL     1      45.045   4.218   8.944  0.00  0.00    +0.000 S 
ATOM     30  C   UNL     1      44.512   3.680  10.468  0.00  0.00    +0.000 A 
ATOM     31  N   UNL     1      43.735   2.569  10.582  0.00  0.00    +0.000 NA
ATOM     32  C   UNL     1      43.370   2.296  11.790  0.00  0.00    +0.000 A 
ATOM     33  N   UNL     1      43.723   3.026  12.897  0.00  0.00    +0.000 N 
ATOM     34  C   UNL     1      44.547   4.124  12.835  0.00  0.00    +0.000 A 
ATOM     35  O   UNL     1      44.910   4.706  13.852  0.00  0.00    +0.000 OA
ATOM     36  C   UNL     1      44.958   4.495  11.493  0.00  0.00    +0.000 A 
ATOM     37  H   UNL     1      43.416   2.748  13.817  0.00  0.00    +0.000 HD
ENDBRANCH  24  27
ENDBRANCH  22  23
ENDBRANCH   4  22
TORSDOF 9
ENDMDL
