MODEL 1
REMARK VINA RESULT:    -7.960      0.000      0.000
REMARK INTER + INTRA:         -10.958
REMARK INTER:                 -10.287
REMARK INTRA:                  -0.671
REMARK UNBOUND:                -0.671
REMARK  Name = 
REMARK  5 active torsions:
REMARK  status: ('A' for Active; 'I' for Inactive)
REMARK    1  A    between atoms: C_2  and  C_3
REMARK    2  A    between atoms: C_6  and  O_7
REMARK    3  A    between atoms: O_7  and  C_8
REMARK    4  A    between atoms: C_8  and  C_9
REMARK    5  A    between atoms: N_12  and  C_13
REMARK                            x       y       z     vdW  Elec       q    Type
REMARK                         _______ _______ _______ _____ _____    ______ ____
ROOT
ATOM      1  C   UNL     1      43.552   4.755  12.244  0.00  0.00    +0.000 C 
ATOM      2  C   UNL     1      44.058   6.058  12.893  0.00  0.00    +0.000 C 
ATOM      3  C   UNL     1      45.575   6.226  12.808  0.00  0.00    +0.000 C 
ATOM      4  N   UNL     1      46.248   5.020  13.296  0.00  0.00    +0.000 N 
ATOM      5  C   UNL     1      45.886   3.770  12.628  0.00  0.00    +0.000 C 
ATOM      6  C   UNL     1      44.374   3.555  12.751  0.00  0.00    +0.000 C 
ENDROOT
BRANCH   4   7
ATOM      7  C   UNL     1      47.049   5.017  14.426  0.00  0.00    +0.000 A 
ATOM      8  C   UNL     1      48.026   5.997  14.667  0.00  0.00    +0.000 A 
ATOM      9  N   UNL     1      48.848   6.066  15.750  0.00  0.00    +0.000 NA
ATOM     10  C   UNL     1      48.693   5.094  16.671  0.00  0.00    +0.000 A 
ATOM     11  C   UNL     1      47.765   4.080  16.546  0.00  0.00    +0.000 A 
ATOM     12  F   UNL     1      47.662   3.133  17.489  0.00  0.00    +0.000 F 
ATOM     13  C   UNL     1      46.940   4.043  15.426  0.00  0.00    +0.000 A 
ENDBRANCH   4   7
BRANCH   1  14
ATOM     14  C   UNL     1      43.540   4.796  10.705  0.00  0.00    +0.000 C 
BRANCH  14  15
ATOM     15  O   UNL     1      43.625   3.469  10.176  0.00  0.00    +0.000 OA
BRANCH  15  19
ATOM     16  C   UNL     1      46.581   2.441   7.497  0.00  0.00    +0.000 A 
ATOM     17  C   UNL     1      46.209   3.778   7.532  0.00  0.00    +0.000 A 
ATOM     18  C   UNL     1      45.215   4.176   8.430  0.00  0.00    +0.000 A 
ATOM     19  C   UNL     1      44.617   3.233   9.265  0.00  0.00    +0.000 A 
ATOM     20  C   UNL     1      45.068   1.922   9.162  0.00  0.00    +0.000 A 
ATOM     21  N   UNL     1      46.030   1.500   8.300  0.00  0.00    +0.000 NA
BRANCH  16  23
ATOM     22  N   UNL     1      48.415   1.581   5.866  0.00  0.00    +0.000 NA
ATOM     23  C   UNL     1      47.588   1.984   6.576  0.00  0.00    +0.000 C 
ENDBRANCH  16  23
ENDBRANCH  15  19
ENDBRANCH  14  15
ENDBRANCH   1  14
TORSDOF 5
ENDMDL
MODEL 2
REMARK VINA RESULT:    -7.361      1.473      1.909
REMARK INTER + INTRA:         -10.184
REMARK INTER:                  -9.621
REMARK INTRA:                  -0.563
REMARK UNBOUND:                -0.671
REMARK  Name = 
REMARK  5 active torsions:
REMARK  status: ('A' for Active; 'I' for Inactive)
REMARK    1  A    between atoms: C_2  and  C_3
REMARK    2  A    between atoms: C_6  and  O_7
REMARK    3  A    between atoms: O_7  and  C_8
REMARK    4  A    between atoms: C_8  and  C_9
REMARK    5  A    between atoms: N_12  and  C_13
REMARK                            x       y       z     vdW  Elec       q    Type
REMARK                         _______ _______ _______ _____ _____    ______ ____
ROOT
ATOM      1  C   UNL     1      43.797   5.773  11.813  0.00  0.00    +0.000 C 
ATOM      2  C   UNL     1      44.693   6.992  12.106  0.00  0.00    +0.000 C 
ATOM      3  C   UNL     1      46.186   6.665  12.079  0.00  0.00    +0.000 C 
ATOM      4  N   UNL     1      46.468   5.504  12.926  0.00  0.00    +0.000 N 
ATOM      5  C   UNL     1      45.725   4.285  12.609  0.00  0.00    +0.000 C 
ATOM      6  C   UNL     1      44.223   4.579  12.687  0.00  0.00    +0.000 C 
ENDROOT
BRANCH   4   7
ATOM      7  C   UNL     1      47.255   5.583  14.063  0.00  0.00    +0.000 A 
ATOM      8  C   UNL     1      47.282   4.574  15.041  0.00  0.00    +0.000 A 
ATOM      9  N   UNL     1      48.029   4.576  16.179  0.00  0.00    +0.000 NA
ATOM     10  C   UNL     1      48.813   5.655  16.369  0.00  0.00    +0.000 A 
ATOM     11  C   UNL     1      48.873   6.707  15.478  0.00  0.00    +0.000 A 
ATOM     12  F   UNL     1      49.663   7.761  15.724  0.00  0.00    +0.000 F 
ATOM     13  C   UNL     1      48.097   6.670  14.323  0.00  0.00    +0.000 A 
ENDBRANCH   4   7
BRANCH   1  14
ATOM     14  C   UNL     1      43.763   5.376  10.325  0.00  0.00    +0.000 C 
BRANCH  14  15
ATOM     15  O   UNL     1      43.706   3.952  10.197  0.00  0.00    +0.000 OA
BRANCH  15  19
ATOM     16  C   UNL     1      46.530   2.517   7.561  0.00  0.00    +0.000 A 
ATOM     17  C   UNL     1      45.882   1.578   8.354  0.00  0.00    +0.000 A 
ATOM     18  C   UNL     1      44.911   2.018   9.258  0.00  0.00    +0.000 A 
ATOM     19  C   UNL     1      44.614   3.376   9.352  0.00  0.00    +0.000 A 
ATOM     20  C   UNL     1      45.309   4.234   8.506  0.00  0.00    +0.000 A 
ATOM     21  N   UNL     1      46.259   3.843   7.617  0.00  0.00    +0.000 NA
BRANCH  16  23
ATOM     22  N   UNL     1      48.335   1.760   5.850  0.00  0.00    +0.000 NA
ATOM     23  C   UNL     1      47.549   2.111   6.629  0.00  0.00    +0.000 C 
ENDBRANCH  16  23
ENDBRANCH  15  19
ENDBRANCH  14  15
ENDBRANCH   1  14
TORSDOF 5
ENDMDL
MODEL 3
REMARK VINA RESULT:    -7.262      2.400      2.963
REMARK INTER + INTRA:         -10.056
REMARK INTER:                  -9.425
REMARK INTRA:                  -0.631
REMARK UNBOUND:                -0.671
REMARK  Name = 
REMARK  5 active torsions:
REMARK  status: ('A' for Active; 'I' for Inactive)
REMARK    1  A    between atoms: C_2  and  C_3
REMARK    2  A    between atoms: C_6  and  O_7
REMARK    3  A    between atoms: O_7  and  C_8
REMARK    4  A    between atoms: C_8  and  C_9
REMARK    5  A    between atoms: N_12  and  C_13
REMARK                            x       y       z     vdW  Elec       q    Type
REMARK                         _______ _______ _______ _____ _____    ______ ____
ROOT
ATOM      1  C   UNL     1      43.871   5.026  12.066  0.00  0.00    +0.000 C 
ATOM      2  C   UNL     1      44.522   6.140  11.223  0.00  0.00    +0.000 C 
ATOM      3  C   UNL     1      46.038   5.992  11.093  0.00  0.00    +0.000 C 
ATOM      4  N   UNL     1      46.646   5.815  12.414  0.00  0.00    +0.000 N 
ATOM      5  C   UNL     1      46.142   4.694  13.206  0.00  0.00    +0.000 C 
ATOM      6  C   UNL     1      44.630   4.854  13.395  0.00  0.00    +0.000 C 
ENDROOT
BRANCH   4   7
ATOM      7  C   UNL     1      47.521   6.738  12.962  0.00  0.00    +0.000 A 
ATOM      8  C   UNL     1      48.126   6.559  14.217  0.00  0.00    +0.000 A 
ATOM      9  N   UNL     1      48.997   7.415  14.821  0.00  0.00    +0.000 NA
ATOM     10  C   UNL     1      49.297   8.534  14.133  0.00  0.00    +0.000 A 
ATOM     11  C   UNL     1      48.767   8.818  12.891  0.00  0.00    +0.000 A 
ATOM     12  F   UNL     1      49.093   9.953  12.257  0.00  0.00    +0.000 F 
ATOM     13  C   UNL     1      47.882   7.919  12.303  0.00  0.00    +0.000 A 
ENDBRANCH   4   7
BRANCH   1  14
ATOM     14  C   UNL     1      43.755   3.680  11.326  0.00  0.00    +0.000 C 
BRANCH  14  15
ATOM     15  O   UNL     1      43.634   3.902   9.918  0.00  0.00    +0.000 OA
BRANCH  15  19
ATOM     16  C   UNL     1      46.557   2.468   7.394  0.00  0.00    +0.000 A 
ATOM     17  C   UNL     1      46.024   1.567   8.307  0.00  0.00    +0.000 A 
ATOM     18  C   UNL     1      45.025   2.007   9.179  0.00  0.00    +0.000 A 
ATOM     19  C   UNL     1      44.585   3.328   9.122  0.00  0.00    +0.000 A 
ATOM     20  C   UNL     1      45.173   4.148   8.164  0.00  0.00    +0.000 A 
ATOM     21  N   UNL     1      46.148   3.756   7.302  0.00  0.00    +0.000 NA
BRANCH  16  23
ATOM     22  N   UNL     1      48.427   1.688   5.764  0.00  0.00    +0.000 NA
ATOM     23  C   UNL     1      47.601   2.063   6.489  0.00  0.00    +0.000 C 
ENDBRANCH  16  23
ENDBRANCH  15  19
ENDBRANCH  14  15
ENDBRANCH   1  14
TORSDOF 5
ENDMDL
MODEL 4
REMARK VINA RESULT:    -7.078      3.039      3.769
REMARK INTER + INTRA:          -9.818
REMARK INTER:                  -9.586
REMARK INTRA:                  -0.232
REMARK UNBOUND:                -0.671
REMARK  Name = 
REMARK  5 active torsions:
REMARK  status: ('A' for Active; 'I' for Inactive)
REMARK    1  A    between atoms: C_2  and  C_3
REMARK    2  A    between atoms: C_6  and  O_7
REMARK    3  A    between atoms: O_7  and  C_8
REMARK    4  A    between atoms: C_8  and  C_9
REMARK    5  A    between atoms: N_12  and  C_13
REMARK                            x       y       z     vdW  Elec       q    Type
REMARK                         _______ _______ _______ _____ _____    ______ ____
ROOT
ATOM      1  C   UNL     1      43.608   3.800  12.522  0.00  0.00    +0.000 C 
ATOM      2  C   UNL     1      42.873   5.127  12.244  0.00  0.00    +0.000 C 
ATOM      3  C   UNL     1      43.602   6.022  11.243  0.00  0.00    +0.000 C 
ATOM      4  N   UNL     1      45.003   6.191  11.636  0.00  0.00    +0.000 N 
ATOM      5  C   UNL     1      45.775   4.959  11.797  0.00  0.00    +0.000 C 
ATOM      6  C   UNL     1      45.090   4.071  12.840  0.00  0.00    +0.000 C 
ENDROOT
BRANCH   4   7
ATOM      7  C   UNL     1      45.533   7.417  12.002  0.00  0.00    +0.000 A 
ATOM      8  C   UNL     1      46.730   7.541  12.727  0.00  0.00    +0.000 A 
ATOM      9  N   UNL     1      47.316   8.706  13.119  0.00  0.00    +0.000 NA
ATOM     10  C   UNL     1      46.674   9.838  12.768  0.00  0.00    +0.000 A 
ATOM     11  C   UNL     1      45.493   9.842  12.054  0.00  0.00    +0.000 A 
ATOM     12  F   UNL     1      44.893  10.998  11.742  0.00  0.00    +0.000 F 
ATOM     13  C   UNL     1      44.924   8.632  11.667  0.00  0.00    +0.000 A 
ENDBRANCH   4   7
BRANCH   1  14
ATOM     14  C   UNL     1      43.473   2.771  11.384  0.00  0.00    +0.000 C 
BRANCH  14  15
ATOM     15  O   UNL     1      43.549   3.427  10.115  0.00  0.00    +0.000 OA
BRANCH  15  19
ATOM     16  C   UNL     1      46.495   2.411   7.420  0.00  0.00    +0.000 A 
ATOM     17  C   UNL     1      46.034   1.399   8.252  0.00  0.00    +0.000 A 
ATOM     18  C   UNL     1      45.030   1.695   9.178  0.00  0.00    +0.000 A 
ATOM     19  C   UNL     1      44.514   2.987   9.253  0.00  0.00    +0.000 A 
ATOM     20  C   UNL     1      45.034   3.927   8.368  0.00  0.00    +0.000 A 
ATOM     21  N   UNL     1      46.011   3.675   7.458  0.00  0.00    +0.000 NA
BRANCH  16  23
ATOM     22  N   UNL     1      48.352   1.963   5.656  0.00  0.00    +0.000 NA
ATOM     23  C   UNL     1      47.541   2.155   6.465  0.00  0.00    +0.000 C 
ENDBRANCH  16  23
ENDBRANCH  15  19
ENDBRANCH  14  15
ENDBRANCH   1  14
TORSDOF 5
ENDMDL
MODEL 5
REMARK VINA RESULT:    -6.686      1.859      2.141
REMARK INTER + INTRA:          -9.311
REMARK INTER:                  -8.940
REMARK INTRA:                  -0.372
REMARK UNBOUND:                -0.671
REMARK  Name = 
REMARK  5 active torsions:
REMARK  status: ('A' for Active; 'I' for Inactive)
REMARK    1  A    between atoms: C_2  and  C_3
REMARK    2  A    between atoms: C_6  and  O_7
REMARK    3  A    between atoms: O_7  and  C_8
REMARK    4  A    between atoms: C_8  and  C_9
REMARK    5  A    between atoms: N_12  and  C_13
REMARK                            x       y       z     vdW  Elec       q    Type
REMARK                         _______ _______ _______ _____ _____    ______ ____
ROOT
ATOM      1  C   UNL     1      43.915   5.304  12.705  0.00  0.00    +0.000 C 
ATOM      2  C   UNL     1      44.486   6.583  12.062  0.00  0.00    +0.000 C 
ATOM      3  C   UNL     1      45.894   6.398  11.495  0.00  0.00    +0.000 C 
ATOM      4  N   UNL     1      46.772   5.798  12.502  0.00  0.00    +0.000 N 
ATOM      5  C   UNL     1      46.329   4.519  13.057  0.00  0.00    +0.000 C 
ATOM      6  C   UNL     1      44.940   4.698  13.680  0.00  0.00    +0.000 C 
ENDROOT
BRANCH   4   7
ATOM      7  C   UNL     1      47.866   6.462  13.030  0.00  0.00    +0.000 A 
ATOM      8  C   UNL     1      48.795   7.151  12.232  0.00  0.00    +0.000 A 
ATOM      9  N   UNL     1      49.890   7.829  12.674  0.00  0.00    +0.000 NA
ATOM     10  C   UNL     1      50.084   7.831  14.008  0.00  0.00    +0.000 A 
ATOM     11  C   UNL     1      49.240   7.192  14.892  0.00  0.00    +0.000 A 
ATOM     12  F   UNL     1      49.488   7.218  16.209  0.00  0.00    +0.000 F 
ATOM     13  C   UNL     1      48.128   6.510  14.405  0.00  0.00    +0.000 A 
ENDBRANCH   4   7
BRANCH   1  14
ATOM     14  C   UNL     1      43.449   4.253  11.679  0.00  0.00    +0.000 C 
BRANCH  14  15
ATOM     15  O   UNL     1      43.593   4.765  10.351  0.00  0.00    +0.000 OA
BRANCH  15  19
ATOM     16  C   UNL     1      46.142   2.520   8.018  0.00  0.00    +0.000 A 
ATOM     17  C   UNL     1      46.102   3.885   7.763  0.00  0.00    +0.000 A 
ATOM     18  C   UNL     1      45.256   4.688   8.534  0.00  0.00    +0.000 A 
ATOM     19  C   UNL     1      44.474   4.113   9.533  0.00  0.00    +0.000 A 
ATOM     20  C   UNL     1      44.596   2.740   9.719  0.00  0.00    +0.000 A 
ATOM     21  N   UNL     1      45.404   1.929   8.988  0.00  0.00    +0.000 NA
BRANCH  16  23
ATOM     22  N   UNL     1      47.693   0.947   6.648  0.00  0.00    +0.000 NA
ATOM     23  C   UNL     1      46.984   1.653   7.237  0.00  0.00    +0.000 C 
ENDBRANCH  16  23
ENDBRANCH  15  19
ENDBRANCH  14  15
ENDBRANCH   1  14
TORSDOF 5
ENDMDL
MODEL 6
REMARK VINA RESULT:    -6.675      1.594      2.025
REMARK INTER + INTRA:          -9.297
REMARK INTER:                  -8.566
REMARK INTRA:                  -0.731
REMARK UNBOUND:                -0.671
REMARK  Name = 
REMARK  5 active torsions:
REMARK  status: ('A' for Active; 'I' for Inactive)
REMARK    1  A    between atoms: C_2  and  C_3
REMARK    2  A    between atoms: C_6  and  O_7
REMARK    3  A    between atoms: O_7  and  C_8
REMARK    4  A    between atoms: C_8  and  C_9
REMARK    5  A    between atoms: N_12  and  C_13
REMARK                            x       y       z     vdW  Elec       q    Type
REMARK                         _______ _______ _______ _____ _____    ______ ____
ROOT
ATOM      1  C   UNL     1      45.173   6.599  12.526  0.00  0.00    +0.000 C 
ATOM      2  C   UNL     1      46.296   7.367  13.249  0.00  0.00    +0.000 C 
ATOM      3  C   UNL     1      47.547   6.522  13.491  0.00  0.00    +0.000 C 
ATOM      4  N   UNL     1      47.187   5.255  14.132  0.00  0.00    +0.000 N 
ATOM      5  C   UNL     1      46.209   4.433  13.420  0.00  0.00    +0.000 C 
ATOM      6  C   UNL     1      44.926   5.245  13.217  0.00  0.00    +0.000 C 
ENDROOT
BRANCH   4   7
ATOM      7  C   UNL     1      47.607   4.918  15.408  0.00  0.00    +0.000 A 
ATOM      8  C   UNL     1      47.231   3.721  16.040  0.00  0.00    +0.000 A 
ATOM      9  N   UNL     1      47.603   3.317  17.287  0.00  0.00    +0.000 NA
ATOM     10  C   UNL     1      48.411   4.158  17.963  0.00  0.00    +0.000 A 
ATOM     11  C   UNL     1      48.848   5.360  17.445  0.00  0.00    +0.000 A 
ATOM     12  F   UNL     1      49.642   6.162  18.167  0.00  0.00    +0.000 F 
ATOM     13  C   UNL     1      48.449   5.739  16.166  0.00  0.00    +0.000 A 
ENDBRANCH   4   7
BRANCH   1  14
ATOM     14  C   UNL     1      45.429   6.405  11.020  0.00  0.00    +0.000 C 
BRANCH  14  15
ATOM     15  O   UNL     1      44.559   5.394  10.499  0.00  0.00    +0.000 OA
BRANCH  15  19
ATOM     16  C   UNL     1      46.115   2.379   8.161  0.00  0.00    +0.000 A 
ATOM     17  C   UNL     1      46.339   3.681   7.731  0.00  0.00    +0.000 A 
ATOM     18  C   UNL     1      45.836   4.737   8.496  0.00  0.00    +0.000 A 
ATOM     19  C   UNL     1      45.123   4.471   9.664  0.00  0.00    +0.000 A 
ATOM     20  C   UNL     1      44.963   3.134  10.014  0.00  0.00    +0.000 A 
ATOM     21  N   UNL     1      45.436   2.083   9.295  0.00  0.00    +0.000 NA
BRANCH  16  23
ATOM     22  N   UNL     1      47.017   0.344   6.818  0.00  0.00    +0.000 NA
ATOM     23  C   UNL     1      46.599   1.261   7.395  0.00  0.00    +0.000 C 
ENDBRANCH  16  23
ENDBRANCH  15  19
ENDBRANCH  14  15
ENDBRANCH   1  14
TORSDOF 5
ENDMDL
MODEL 7
REMARK VINA RESULT:    -5.648      3.596      8.122
REMARK INTER + INTRA:          -7.970
REMARK INTER:                  -7.294
REMARK INTRA:                  -0.675
REMARK UNBOUND:                -0.671
REMARK  Name = 
REMARK  5 active torsions:
REMARK  status: ('A' for Active; 'I' for Inactive)
REMARK    1  A    between atoms: C_2  and  C_3
REMARK    2  A    between atoms: C_6  and  O_7
REMARK    3  A    between atoms: O_7  and  C_8
REMARK    4  A    between atoms: C_8  and  C_9
REMARK    5  A    between atoms: N_12  and  C_13
REMARK                            x       y       z     vdW  Elec       q    Type
REMARK                         _______ _______ _______ _____ _____    ______ ____
ROOT
ATOM      1  C   UNL     1      46.636   8.358  12.126  0.00  0.00    +0.000 C 
ATOM      2  C   UNL     1      45.189   8.171  11.631  0.00  0.00    +0.000 C 
ATOM      3  C   UNL     1      44.570   6.841  12.059  0.00  0.00    +0.000 C 
ATOM      4  N   UNL     1      45.463   5.731  11.716  0.00  0.00    +0.000 N 
ATOM      5  C   UNL     1      46.817   5.806  12.264  0.00  0.00    +0.000 C 
ATOM      6  C   UNL     1      47.475   7.109  11.798  0.00  0.00    +0.000 C 
ENDROOT
BRANCH   4   7
ATOM      7  C   UNL     1      45.119   4.754  10.796  0.00  0.00    +0.000 A 
ATOM      8  C   UNL     1      44.355   3.626  11.137  0.00  0.00    +0.000 A 
ATOM      9  N   UNL     1      43.974   2.627  10.293  0.00  0.00    +0.000 NA
ATOM     10  C   UNL     1      44.376   2.750   9.013  0.00  0.00    +0.000 A 
ATOM     11  C   UNL     1      45.129   3.814   8.560  0.00  0.00    +0.000 A 
ATOM     12  F   UNL     1      45.510   3.879   7.277  0.00  0.00    +0.000 F 
ATOM     13  C   UNL     1      45.498   4.819   9.450  0.00  0.00    +0.000 A 
ENDBRANCH   4   7
BRANCH   1  14
ATOM     14  C   UNL     1      46.736   8.704  13.623  0.00  0.00    +0.000 C 
BRANCH  14  15
ATOM     15  O   UNL     1      48.108   8.816  14.013  0.00  0.00    +0.000 OA
BRANCH  15  19
ATOM     16  C   UNL     1      49.295   6.686  17.334  0.00  0.00    +0.000 A 
ATOM     17  C   UNL     1      48.867   7.990  17.549  0.00  0.00    +0.000 A 
ATOM     18  C   UNL     1      48.449   8.749  16.453  0.00  0.00    +0.000 A 
ATOM     19  C   UNL     1      48.469   8.193  15.175  0.00  0.00    +0.000 A 
ATOM     20  C   UNL     1      48.903   6.876  15.067  0.00  0.00    +0.000 A 
ATOM     21  N   UNL     1      49.319   6.109  16.108  0.00  0.00    +0.000 NA
BRANCH  16  23
ATOM     22  N   UNL     1      50.121   5.179  19.285  0.00  0.00    +0.000 NA
ATOM     23  C   UNL     1      49.752   5.874  18.431  0.00  0.00    +0.000 C 
ENDBRANCH  16  23
ENDBRANCH  15  19
ENDBRANCH  14  15
ENDBRANCH   1  14
TORSDOF 5
ENDMDL
MODEL 8
REMARK VINA RESULT:    -5.471      3.888      8.530
REMARK INTER + INTRA:          -7.741
REMARK INTER:                  -7.084
REMARK INTRA:                  -0.657
REMARK UNBOUND:                -0.671
REMARK  Name = 
REMARK  5 active torsions:
REMARK  status: ('A' for Active; 'I' for Inactive)
REMARK    1  A    between atoms: C_2  and  C_3
REMARK    2  A    between atoms: C_6  and  O_7
REMARK    3  A    between atoms: O_7  and  C_8
REMARK    4  A    between atoms: C_8  and  C_9
REMARK    5  A    between atoms: N_12  and  C_13
REMARK                            x       y       z     vdW  Elec       q    Type
REMARK                         _______ _______ _______ _____ _____    ______ ____
ROOT
ATOM      1  C   UNL     1      48.224   7.803  12.874  0.00  0.00    +0.000 C 
ATOM      2  C   UNL     1      46.920   8.176  12.142  0.00  0.00    +0.000 C 
ATOM      3  C   UNL     1      45.682   7.500  12.731  0.00  0.00    +0.000 C 
ATOM      4  N   UNL     1      45.902   6.057  12.855  0.00  0.00    +0.000 N 
ATOM      5  C   UNL     1      47.065   5.652  13.643  0.00  0.00    +0.000 C 
ATOM      6  C   UNL     1      48.325   6.275  13.034  0.00  0.00    +0.000 C 
ENDROOT
BRANCH   4   7
ATOM      7  C   UNL     1      45.166   5.126  12.140  0.00  0.00    +0.000 A 
ATOM      8  C   UNL     1      44.539   4.025  12.747  0.00  0.00    +0.000 A 
ATOM      9  N   UNL     1      43.799   3.071  12.117  0.00  0.00    +0.000 NA
ATOM     10  C   UNL     1      43.664   3.215  10.784  0.00  0.00    +0.000 A 
ATOM     11  C   UNL     1      44.231   4.256  10.077  0.00  0.00    +0.000 A 
ATOM     12  F   UNL     1      44.072   4.343   8.750  0.00  0.00    +0.000 F 
ATOM     13  C   UNL     1      44.980   5.214  10.756  0.00  0.00    +0.000 A 
ENDBRANCH   4   7
BRANCH   1  14
ATOM     14  C   UNL     1      48.390   8.507  14.233  0.00  0.00    +0.000 C 
BRANCH  14  15
ATOM     15  O   UNL     1      49.226   7.725  15.093  0.00  0.00    +0.000 OA
BRANCH  15  19
ATOM     16  C   UNL     1      47.946   6.805  18.900  0.00  0.00    +0.000 A 
ATOM     17  C   UNL     1      47.961   8.151  18.555  0.00  0.00    +0.000 A 
ATOM     18  C   UNL     1      48.381   8.510  17.271  0.00  0.00    +0.000 A 
ATOM     19  C   UNL     1      48.777   7.525  16.369  0.00  0.00    +0.000 A 
ATOM     20  C   UNL     1      48.714   6.206  16.807  0.00  0.00    +0.000 A 
ATOM     21  N   UNL     1      48.313   5.820  18.046  0.00  0.00    +0.000 NA
BRANCH  16  23
ATOM     22  N   UNL     1      47.164   6.083  21.272  0.00  0.00    +0.000 NA
ATOM     23  C   UNL     1      47.537   6.391  20.217  0.00  0.00    +0.000 C 
ENDBRANCH  16  23
ENDBRANCH  15  19
ENDBRANCH  14  15
ENDBRANCH   1  14
TORSDOF 5
ENDMDL
MODEL 9
REMARK VINA RESULT:    -5.039      4.194      5.490
REMARK INTER + INTRA:          -7.182
REMARK INTER:                  -6.475
REMARK INTRA:                  -0.708
REMARK UNBOUND:                -0.671
REMARK  Name = 
REMARK  5 active torsions:
REMARK  status: ('A' for Active; 'I' for Inactive)
REMARK    1  A    between atoms: C_2  and  C_3
REMARK    2  A    between atoms: C_6  and  O_7
REMARK    3  A    between atoms: O_7  and  C_8
REMARK    4  A    between atoms: C_8  and  C_9
REMARK    5  A    between atoms: N_12  and  C_13
REMARK                            x       y       z     vdW  Elec       q    Type
REMARK                         _______ _______ _______ _____ _____    ______ ____
ROOT
ATOM      1  C   UNL     1      46.741   8.619  13.307  0.00  0.00    +0.000 C 
ATOM      2  C   UNL     1      47.549   9.757  12.653  0.00  0.00    +0.000 C 
ATOM      3  C   UNL     1      48.487   9.273  11.547  0.00  0.00    +0.000 C 
ATOM      4  N   UNL     1      49.310   8.162  12.029  0.00  0.00    +0.000 N 
ATOM      5  C   UNL     1      48.582   7.006  12.551  0.00  0.00    +0.000 C 
ATOM      6  C   UNL     1      47.677   7.462  13.700  0.00  0.00    +0.000 C 
ENDROOT
BRANCH   4   7
ATOM      7  C   UNL     1      50.687   8.249  12.147  0.00  0.00    +0.000 A 
ATOM      8  C   UNL     1      51.327   8.597  13.349  0.00  0.00    +0.000 A 
ATOM      9  N   UNL     1      52.670   8.700  13.546  0.00  0.00    +0.000 NA
ATOM     10  C   UNL     1      53.445   8.438  12.475  0.00  0.00    +0.000 A 
ATOM     11  C   UNL     1      52.933   8.085  11.243  0.00  0.00    +0.000 A 
ATOM     12  F   UNL     1      53.752   7.846  10.210  0.00  0.00    +0.000 F 
ATOM     13  C   UNL     1      51.554   7.987  11.079  0.00  0.00    +0.000 A 
ENDBRANCH   4   7
BRANCH   1  14
ATOM     14  C   UNL     1      45.578   8.109  12.436  0.00  0.00    +0.000 C 
BRANCH  14  15
ATOM     15  O   UNL     1      44.935   7.001  13.073  0.00  0.00    +0.000 OA
BRANCH  15  19
ATOM     16  C   UNL     1      44.709   3.709  10.605  0.00  0.00    +0.000 A 
ATOM     17  C   UNL     1      44.237   3.550  11.902  0.00  0.00    +0.000 A 
ATOM     18  C   UNL     1      44.287   4.642  12.774  0.00  0.00    +0.000 A 
ATOM     19  C   UNL     1      44.807   5.858  12.334  0.00  0.00    +0.000 A 
ATOM     20  C   UNL     1      45.242   5.918  11.014  0.00  0.00    +0.000 A 
ATOM     21  N   UNL     1      45.211   4.878  10.141  0.00  0.00    +0.000 NA
BRANCH  16  23
ATOM     22  N   UNL     1      44.731   1.714   8.938  0.00  0.00    +0.000 NA
ATOM     23  C   UNL     1      44.693   2.607   9.680  0.00  0.00    +0.000 C 
ENDBRANCH  16  23
ENDBRANCH  15  19
ENDBRANCH  14  15
ENDBRANCH   1  14
TORSDOF 5
ENDMDL
