MODEL 1
REMARK VINA RESULT:    -7.028      0.000      0.000
REMARK INTER + INTRA:         -11.133
REMARK INTER:                  -9.904
REMARK INTRA:                  -1.229
REMARK UNBOUND:                -1.229
REMARK  Name = 
REMARK  8 active torsions:
REMARK  status: ('A' for Active; 'I' for Inactive)
REMARK    1  A    between atoms: C_1  and  O_2
REMARK    2  A    between atoms: O_2  and  C_3
REMARK    3  A    between atoms: C_8  and  C_9
REMARK    4  A    between atoms: N_11  and  C_12
REMARK    5  A    between atoms: C_12  and  C_13
REMARK    6  A    between atoms: C_16  and  C_17
REMARK    7  A    between atoms: C_17  and  N_18
REMARK    8  A    between atoms: C_19  and  C_21
REMARK                            x       y       z     vdW  Elec       q    Type
REMARK                         _______ _______ _______ _____ _____    ______ ____
ROOT
ATOM      1  C   UNL     1      50.312   7.561  15.239  0.00  0.00    +0.000 A 
ATOM      2  C   UNL     1      50.788   7.980  13.989  0.00  0.00    +0.000 A 
ATOM      3  C   UNL     1      49.929   8.069  12.886  0.00  0.00    +0.000 A 
ATOM      4  C   UNL     1      48.568   7.761  13.013  0.00  0.00    +0.000 A 
ATOM      5  C   UNL     1      48.092   7.343  14.263  0.00  0.00    +0.000 A 
ATOM      6  C   UNL     1      48.950   7.254  15.365  0.00  0.00    +0.000 A 
ENDROOT
BRANCH   1   7
ATOM      7  C   UNL     1      51.253   7.401  16.408  0.00  0.00    +0.000 C 
BRANCH   7  10
ATOM      8  C   UNL     1      51.061   5.272  17.632  0.00  0.00    +0.000 C 
ATOM      9  O   UNL     1      50.176   5.726  18.348  0.00  0.00    +0.000 OA
ATOM     10  N   UNL     1      51.663   6.038  16.642  0.00  0.00    +0.000 N 
ATOM     11  H   UNL     1      52.396   5.601  16.092  0.00  0.00    +0.000 HD
BRANCH   8  17
ATOM     12  C   UNL     1      50.879   2.740  17.273  0.00  0.00    +0.000 A 
ATOM     13  C   UNL     1      51.482   1.488  17.429  0.00  0.00    +0.000 A 
ATOM     14  C   UNL     1      52.720   1.378  18.055  0.00  0.00    +0.000 A 
ATOM     15  C   UNL     1      53.335   2.532  18.508  0.00  0.00    +0.000 A 
ATOM     16  N   UNL     1      52.808   3.766  18.370  0.00  0.00    +0.000 NA
ATOM     17  C   UNL     1      51.586   3.856  17.748  0.00  0.00    +0.000 A 
BRANCH  12  19
ATOM     18  C   UNL     1      48.507   2.729  17.436  0.00  0.00    +0.000 C 
ATOM     19  O   UNL     1      49.676   2.908  16.644  0.00  0.00    +0.000 OA
ENDBRANCH  12  19
ENDBRANCH   8  17
ENDBRANCH   7  10
ENDBRANCH   1   7
BRANCH   4  20
ATOM     20  C   UNL     1      47.640   7.838  11.826  0.00  0.00    +0.000 C 
BRANCH  20  21
ATOM     21  N   UNL     1      46.945   6.592  11.612  0.00  0.00    +0.000 N 
ATOM     22  C   UNL     1      45.593   6.484  11.827  0.00  0.00    +0.000 C 
ATOM     23  O   UNL     1      44.913   7.446  12.175  0.00  0.00    +0.000 OA
ATOM     24  H   UNL     1      47.512   5.751  11.555  0.00  0.00    +0.000 HD
BRANCH  22  25
ATOM     25  C   UNL     1      44.981   5.175  11.559  0.00  0.00    +0.000 A 
ATOM     26  C   UNL     1      44.281   4.522  12.565  0.00  0.00    +0.000 A 
ATOM     27  S   UNL     1      43.586   3.045  12.067  0.00  0.00    +0.000 S 
ATOM     28  C   UNL     1      44.246   3.198  10.505  0.00  0.00    +0.000 A 
ATOM     29  N   UNL     1      44.045   2.236   9.564  0.00  0.00    +0.000 NA
ATOM     30  C   UNL     1      44.626   2.466   8.435  0.00  0.00    +0.000 A 
ATOM     31  N   UNL     1      45.387   3.572   8.159  0.00  0.00    +0.000 N 
ATOM     32  C   UNL     1      45.598   4.580   9.070  0.00  0.00    +0.000 A 
ATOM     33  O   UNL     1      46.260   5.571   8.782  0.00  0.00    +0.000 OA
ATOM     34  C   UNL     1      44.970   4.369  10.360  0.00  0.00    +0.000 A 
ATOM     35  H   UNL     1      45.812   3.695   7.252  0.00  0.00    +0.000 HD
ENDBRANCH  22  25
ENDBRANCH  20  21
ENDBRANCH   4  20
TORSDOF 7
ENDMDL
MODEL 2
REMARK VINA RESULT:    -6.951      5.068     10.609
REMARK INTER + INTRA:         -11.024
REMARK INTER:                 -10.097
REMARK INTRA:                  -0.927
REMARK UNBOUND:                -1.229
REMARK  Name = 
REMARK  8 active torsions:
REMARK  status: ('A' for Active; 'I' for Inactive)
REMARK    1  A    between atoms: C_1  and  O_2
REMARK    2  A    between atoms: O_2  and  C_3
REMARK    3  A    between atoms: C_8  and  C_9
REMARK    4  A    between atoms: N_11  and  C_12
REMARK    5  A    between atoms: C_12  and  C_13
REMARK    6  A    between atoms: C_16  and  C_17
REMARK    7  A    between atoms: C_17  and  N_18
REMARK    8  A    between atoms: C_19  and  C_21
REMARK                            x       y       z     vdW  Elec       q    Type
REMARK                         _______ _______ _______ _____ _____    ______ ____
ROOT
ATOM      1  C   UNL     1      44.614   8.911  11.601  0.00  0.00    +0.000 A 
ATOM      2  C   UNL     1      45.629   8.869  12.567  0.00  0.00    +0.000 A 
ATOM      3  C   UNL     1      46.108   7.646  13.055  0.00  0.00    +0.000 A 
ATOM      4  C   UNL     1      45.596   6.434  12.571  0.00  0.00    +0.000 A 
ATOM      5  C   UNL     1      44.582   6.475  11.605  0.00  0.00    +0.000 A 
ATOM      6  C   UNL     1      44.104   7.698  11.118  0.00  0.00    +0.000 A 
ENDROOT
BRANCH   1   7
ATOM      7  C   UNL     1      44.054  10.230  11.129  0.00  0.00    +0.000 C 
BRANCH   7  10
ATOM      8  C   UNL     1      41.694  10.925  11.239  0.00  0.00    +0.000 C 
ATOM      9  O   UNL     1      41.565  10.794  10.027  0.00  0.00    +0.000 OA
ATOM     10  N   UNL     1      42.902  10.673  11.875  0.00  0.00    +0.000 N 
ATOM     11  H   UNL     1      42.941  10.811  12.881  0.00  0.00    +0.000 HD
BRANCH   8  17
ATOM     12  C   UNL     1      39.240  10.966  11.979  0.00  0.00    +0.000 A 
ATOM     13  C   UNL     1      38.302  11.435  12.905  0.00  0.00    +0.000 A 
ATOM     14  C   UNL     1      38.697  12.284  13.935  0.00  0.00    +0.000 A 
ATOM     15  C   UNL     1      40.031  12.643  14.019  0.00  0.00    +0.000 A 
ATOM     16  N   UNL     1      40.980  12.209  13.164  0.00  0.00    +0.000 NA
ATOM     17  C   UNL     1      40.573  11.368  12.157  0.00  0.00    +0.000 A 
BRANCH  12  19
ATOM     18  C   UNL     1      37.902  10.544  10.059  0.00  0.00    +0.000 C 
ATOM     19  O   UNL     1      38.911  10.110  10.965  0.00  0.00    +0.000 OA
ENDBRANCH  12  19
ENDBRANCH   8  17
ENDBRANCH   7  10
ENDBRANCH   1   7
BRANCH   4  20
ATOM     20  C   UNL     1      46.094   5.112  13.103  0.00  0.00    +0.000 C 
BRANCH  20  21
ATOM     21  N   UNL     1      46.681   5.252  14.413  0.00  0.00    +0.000 N 
ATOM     22  C   UNL     1      47.301   4.196  15.032  0.00  0.00    +0.000 C 
ATOM     23  O   UNL     1      47.414   3.100  14.487  0.00  0.00    +0.000 OA
ATOM     24  H   UNL     1      46.398   6.058  14.962  0.00  0.00    +0.000 HD
BRANCH  22  25
ATOM     25  C   UNL     1      47.883   4.451  16.357  0.00  0.00    +0.000 A 
ATOM     26  C   UNL     1      47.491   3.680  17.444  0.00  0.00    +0.000 A 
ATOM     27  S   UNL     1      48.308   4.071  18.890  0.00  0.00    +0.000 S 
ATOM     28  C   UNL     1      49.173   5.323  18.128  0.00  0.00    +0.000 A 
ATOM     29  N   UNL     1      50.051   6.091  18.827  0.00  0.00    +0.000 NA
ATOM     30  C   UNL     1      50.615   7.022  18.133  0.00  0.00    +0.000 A 
ATOM     31  N   UNL     1      50.382   7.253  16.802  0.00  0.00    +0.000 N 
ATOM     32  C   UNL     1      49.521   6.488  16.050  0.00  0.00    +0.000 A 
ATOM     33  O   UNL     1      49.358   6.702  14.854  0.00  0.00    +0.000 OA
ATOM     34  C   UNL     1      48.856   5.429  16.784  0.00  0.00    +0.000 A 
ATOM     35  H   UNL     1      50.860   7.996  16.314  0.00  0.00    +0.000 HD
ENDBRANCH  22  25
ENDBRANCH  20  21
ENDBRANCH   4  20
TORSDOF 7
ENDMDL
MODEL 3
REMARK VINA RESULT:    -6.800      5.155      8.144
REMARK INTER + INTRA:         -10.812
REMARK INTER:                  -9.500
REMARK INTRA:                  -1.312
REMARK UNBOUND:                -1.229
REMARK  Name = 
REMARK  8 active torsions:
REMARK  status: ('A' for Active; 'I' for Inactive)
REMARK    1  A    between atoms: C_1  and  O_2
REMARK    2  A    between atoms: O_2  and  C_3
REMARK    3  A    between atoms: C_8  and  C_9
REMARK    4  A    between atoms: N_11  and  C_12
REMARK    5  A    between atoms: C_12  and  C_13
REMARK    6  A    between atoms: C_16  and  C_17
REMARK    7  A    between atoms: C_17  and  N_18
REMARK    8  A    between atoms: C_19  and  C_21
REMARK                            x       y       z     vdW  Elec       q    Type
REMARK                         _______ _______ _______ _____ _____    ______ ____
ROOT
ATOM      1  C   UNL     1      49.041   6.991  13.937  0.00  0.00    +0.000 A 
ATOM      2  C   UNL     1      50.065   7.657  14.624  0.00  0.00    +0.000 A 
ATOM      3  C   UNL     1      51.082   8.323  13.928  0.00  0.00    +0.000 A 
ATOM      4  C   UNL     1      51.085   8.359  12.527  0.00  0.00    +0.000 A 
ATOM      5  C   UNL     1      50.060   7.694  11.840  0.00  0.00    +0.000 A 
ATOM      6  C   UNL     1      49.045   7.028  12.535  0.00  0.00    +0.000 A 
ENDROOT
BRANCH   1   7
ATOM      7  C   UNL     1      47.986   6.217  14.688  0.00  0.00    +0.000 C 
BRANCH   7  10
ATOM      8  C   UNL     1      46.661   4.551  13.449  0.00  0.00    +0.000 C 
ATOM      9  O   UNL     1      47.463   3.664  13.719  0.00  0.00    +0.000 OA
ATOM     10  N   UNL     1      46.844   5.857  13.883  0.00  0.00    +0.000 N 
ATOM     11  H   UNL     1      46.145   6.543  13.615  0.00  0.00    +0.000 HD
BRANCH   8  17
ATOM     12  C   UNL     1      44.966   5.228  11.649  0.00  0.00    +0.000 A 
ATOM     13  C   UNL     1      43.802   4.893  10.949  0.00  0.00    +0.000 A 
ATOM     14  C   UNL     1      43.117   3.719  11.248  0.00  0.00    +0.000 A 
ATOM     15  C   UNL     1      43.619   2.897  12.242  0.00  0.00    +0.000 A 
ATOM     16  N   UNL     1      44.744   3.163  12.938  0.00  0.00    +0.000 NA
ATOM     17  C   UNL     1      45.409   4.324  12.627  0.00  0.00    +0.000 A 
BRANCH  12  19
ATOM     18  C   UNL     1      45.001   7.598  11.456  0.00  0.00    +0.000 C 
ATOM     19  O   UNL     1      45.692   6.355  11.379  0.00  0.00    +0.000 OA
ENDBRANCH  12  19
ENDBRANCH   8  17
ENDBRANCH   7  10
ENDBRANCH   1   7
BRANCH   4  20
ATOM     20  C   UNL     1      52.185   9.060  11.769  0.00  0.00    +0.000 C 
BRANCH  20  21
ATOM     21  N   UNL     1      52.335   8.530  10.435  0.00  0.00    +0.000 N 
ATOM     22  C   UNL     1      53.407   8.873   9.649  0.00  0.00    +0.000 C 
ATOM     23  O   UNL     1      54.299   9.614  10.055  0.00  0.00    +0.000 OA
ATOM     24  H   UNL     1      51.512   8.117  10.007  0.00  0.00    +0.000 HD
BRANCH  22  25
ATOM     25  C   UNL     1      53.473   8.261   8.315  0.00  0.00    +0.000 A 
ATOM     26  C   UNL     1      53.404   9.063   7.183  0.00  0.00    +0.000 A 
ATOM     27  S   UNL     1      53.557   8.198   5.720  0.00  0.00    +0.000 S 
ATOM     28  C   UNL     1      53.663   6.713   6.546  0.00  0.00    +0.000 A 
ATOM     29  N   UNL     1      53.786   5.542   5.865  0.00  0.00    +0.000 NA
ATOM     30  C   UNL     1      53.825   4.491   6.614  0.00  0.00    +0.000 A 
ATOM     31  N   UNL     1      53.756   4.505   7.983  0.00  0.00    +0.000 N 
ATOM     32  C   UNL     1      53.655   5.665   8.714  0.00  0.00    +0.000 A 
ATOM     33  O   UNL     1      53.625   5.645   9.940  0.00  0.00    +0.000 OA
ATOM     34  C   UNL     1      53.602   6.877   7.919  0.00  0.00    +0.000 A 
ATOM     35  H   UNL     1      53.797   3.647   8.512  0.00  0.00    +0.000 HD
ENDBRANCH  22  25
ENDBRANCH  20  21
ENDBRANCH   4  20
TORSDOF 7
ENDMDL
MODEL 4
REMARK VINA RESULT:    -6.799      3.348      9.053
REMARK INTER + INTRA:         -10.810
REMARK INTER:                 -10.247
REMARK INTRA:                  -0.563
REMARK UNBOUND:                -1.229
REMARK  Name = 
REMARK  8 active torsions:
REMARK  status: ('A' for Active; 'I' for Inactive)
REMARK    1  A    between atoms: C_1  and  O_2
REMARK    2  A    between atoms: O_2  and  C_3
REMARK    3  A    between atoms: C_8  and  C_9
REMARK    4  A    between atoms: N_11  and  C_12
REMARK    5  A    between atoms: C_12  and  C_13
REMARK    6  A    between atoms: C_16  and  C_17
REMARK    7  A    between atoms: C_17  and  N_18
REMARK    8  A    between atoms: C_19  and  C_21
REMARK                            x       y       z     vdW  Elec       q    Type
REMARK                         _______ _______ _______ _____ _____    ______ ____
ROOT
ATOM      1  C   UNL     1      45.302   6.049  11.295  0.00  0.00    +0.000 A 
ATOM      2  C   UNL     1      44.871   7.374  11.439  0.00  0.00    +0.000 A 
ATOM      3  C   UNL     1      45.559   8.267  12.272  0.00  0.00    +0.000 A 
ATOM      4  C   UNL     1      46.708   7.860  12.963  0.00  0.00    +0.000 A 
ATOM      5  C   UNL     1      47.139   6.535  12.819  0.00  0.00    +0.000 A 
ATOM      6  C   UNL     1      46.452   5.643  11.988  0.00  0.00    +0.000 A 
ENDROOT
BRANCH   1   7
ATOM      7  C   UNL     1      44.521   5.071  10.452  0.00  0.00    +0.000 C 
BRANCH   7  10
ATOM      8  C   UNL     1      45.427   3.299   9.003  0.00  0.00    +0.000 C 
ATOM      9  O   UNL     1      45.050   2.427   9.777  0.00  0.00    +0.000 OA
ATOM     10  N   UNL     1      45.214   4.646   9.261  0.00  0.00    +0.000 N 
ATOM     11  H   UNL     1      45.561   5.315   8.580  0.00  0.00    +0.000 HD
BRANCH   8  17
ATOM     12  C   UNL     1      46.634   1.730   7.373  0.00  0.00    +0.000 A 
ATOM     13  C   UNL     1      47.276   1.592   6.137  0.00  0.00    +0.000 A 
ATOM     14  C   UNL     1      47.442   2.695   5.305  0.00  0.00    +0.000 A 
ATOM     15  C   UNL     1      46.953   3.919   5.726  0.00  0.00    +0.000 A 
ATOM     16  N   UNL     1      46.313   4.107   6.899  0.00  0.00    +0.000 NA
ATOM     17  C   UNL     1      46.155   3.007   7.706  0.00  0.00    +0.000 A 
BRANCH  12  19
ATOM     18  C   UNL     1      46.653  -0.626   7.690  0.00  0.00    +0.000 C 
ATOM     19  O   UNL     1      46.421   0.676   8.217  0.00  0.00    +0.000 OA
ENDBRANCH  12  19
ENDBRANCH   8  17
ENDBRANCH   7  10
ENDBRANCH   1   7
BRANCH   4  20
ATOM     20  C   UNL     1      47.444   8.810  13.875  0.00  0.00    +0.000 C 
BRANCH  20  21
ATOM     21  N   UNL     1      47.709   8.215  15.162  0.00  0.00    +0.000 N 
ATOM     22  C   UNL     1      48.952   7.724  15.477  0.00  0.00    +0.000 C 
ATOM     23  O   UNL     1      49.897   7.799  14.696  0.00  0.00    +0.000 OA
ATOM     24  H   UNL     1      46.905   7.937  15.717  0.00  0.00    +0.000 HD
BRANCH  22  25
ATOM     25  C   UNL     1      49.120   7.157  16.823  0.00  0.00    +0.000 A 
ATOM     26  C   UNL     1      49.652   7.938  17.840  0.00  0.00    +0.000 A 
ATOM     27  S   UNL     1      49.720   7.144  19.348  0.00  0.00    +0.000 S 
ATOM     28  C   UNL     1      49.095   5.707  18.683  0.00  0.00    +0.000 A 
ATOM     29  N   UNL     1      48.921   4.599  19.451  0.00  0.00    +0.000 NA
ATOM     30  C   UNL     1      48.468   3.573  18.812  0.00  0.00    +0.000 A 
ATOM     31  N   UNL     1      48.170   3.556  17.474  0.00  0.00    +0.000 N 
ATOM     32  C   UNL     1      48.309   4.657  16.663  0.00  0.00    +0.000 A 
ATOM     33  O   UNL     1      48.005   4.617  15.476  0.00  0.00    +0.000 OA
ATOM     34  C   UNL     1      48.820   5.838  17.332  0.00  0.00    +0.000 A 
ATOM     35  H   UNL     1      47.814   2.721  17.033  0.00  0.00    +0.000 HD
ENDBRANCH  22  25
ENDBRANCH  20  21
ENDBRANCH   4  20
TORSDOF 7
ENDMDL
MODEL 5
REMARK VINA RESULT:    -6.788      1.344      2.114
REMARK INTER + INTRA:         -10.795
REMARK INTER:                  -9.666
REMARK INTRA:                  -1.129
REMARK UNBOUND:                -1.229
REMARK  Name = 
REMARK  8 active torsions:
REMARK  status: ('A' for Active; 'I' for Inactive)
REMARK    1  A    between atoms: C_1  and  O_2
REMARK    2  A    between atoms: O_2  and  C_3
REMARK    3  A    between atoms: C_8  and  C_9
REMARK    4  A    between atoms: N_11  and  C_12
REMARK    5  A    between atoms: C_12  and  C_13
REMARK    6  A    between atoms: C_16  and  C_17
REMARK    7  A    between atoms: C_17  and  N_18
REMARK    8  A    between atoms: C_19  and  C_21
REMARK                            x       y       z     vdW  Elec       q    Type
REMARK                         _______ _______ _______ _____ _____    ______ ____
ROOT
ATOM      1  C   UNL     1      50.488   7.245  15.545  0.00  0.00    +0.000 A 
ATOM      2  C   UNL     1      49.185   6.748  15.405  0.00  0.00    +0.000 A 
ATOM      3  C   UNL     1      48.411   7.068  14.282  0.00  0.00    +0.000 A 
ATOM      4  C   UNL     1      48.930   7.876  13.262  0.00  0.00    +0.000 A 
ATOM      5  C   UNL     1      50.234   8.373  13.401  0.00  0.00    +0.000 A 
ATOM      6  C   UNL     1      51.007   8.053  14.524  0.00  0.00    +0.000 A 
ENDROOT
BRANCH   1   7
ATOM      7  C   UNL     1      51.294   6.954  16.787  0.00  0.00    +0.000 C 
BRANCH   7  10
ATOM      8  C   UNL     1      51.619   4.902  18.109  0.00  0.00    +0.000 C 
ATOM      9  O   UNL     1      51.195   5.448  19.122  0.00  0.00    +0.000 OA
ATOM     10  N   UNL     1      51.712   5.578  16.900  0.00  0.00    +0.000 N 
ATOM     11  H   UNL     1      52.081   5.067  16.104  0.00  0.00    +0.000 HD
BRANCH   8  17
ATOM     12  C   UNL     1      51.366   2.450  17.404  0.00  0.00    +0.000 A 
ATOM     13  C   UNL     1      51.908   1.161  17.430  0.00  0.00    +0.000 A 
ATOM     14  C   UNL     1      53.095   0.912  18.113  0.00  0.00    +0.000 A 
ATOM     15  C   UNL     1      53.720   1.967  18.755  0.00  0.00    +0.000 A 
ATOM     16  N   UNL     1      53.251   3.232  18.751  0.00  0.00    +0.000 NA
ATOM     17  C   UNL     1      52.081   3.459  18.068  0.00  0.00    +0.000 A 
BRANCH  12  19
ATOM     18  C   UNL     1      49.005   2.721  17.472  0.00  0.00    +0.000 C 
ATOM     19  O   UNL     1      50.218   2.755  16.727  0.00  0.00    +0.000 OA
ENDBRANCH  12  19
ENDBRANCH   8  17
ENDBRANCH   7  10
ENDBRANCH   1   7
BRANCH   4  20
ATOM     20  C   UNL     1      48.098   8.240  12.057  0.00  0.00    +0.000 C 
BRANCH  20  21
ATOM     21  N   UNL     1      47.465   7.080  11.477  0.00  0.00    +0.000 N 
ATOM     22  C   UNL     1      46.098   6.973  11.413  0.00  0.00    +0.000 C 
ATOM     23  O   UNL     1      45.357   7.869  11.812  0.00  0.00    +0.000 OA
ATOM     24  H   UNL     1      48.038   6.250  11.362  0.00  0.00    +0.000 HD
BRANCH  22  25
ATOM     25  C   UNL     1      45.556   5.760  10.785  0.00  0.00    +0.000 A 
ATOM     26  C   UNL     1      45.767   5.530   9.431  0.00  0.00    +0.000 A 
ATOM     27  S   UNL     1      45.123   4.049   8.880  0.00  0.00    +0.000 S 
ATOM     28  C   UNL     1      44.490   3.689  10.419  0.00  0.00    +0.000 A 
ATOM     29  N   UNL     1      43.784   2.546  10.634  0.00  0.00    +0.000 NA
ATOM     30  C   UNL     1      43.338   2.414  11.838  0.00  0.00    +0.000 A 
ATOM     31  N   UNL     1      43.535   3.320  12.848  0.00  0.00    +0.000 N 
ATOM     32  C   UNL     1      44.261   4.476  12.683  0.00  0.00    +0.000 A 
ATOM     33  O   UNL     1      44.444   5.251  13.615  0.00  0.00    +0.000 OA
ATOM     34  C   UNL     1      44.782   4.676  11.344  0.00  0.00    +0.000 A 
ATOM     35  H   UNL     1      43.163   3.155  13.771  0.00  0.00    +0.000 HD
ENDBRANCH  22  25
ENDBRANCH  20  21
ENDBRANCH   4  20
TORSDOF 7
ENDMDL
MODEL 6
REMARK VINA RESULT:    -6.683      2.692      8.927
REMARK INTER + INTRA:         -10.646
REMARK INTER:                  -9.467
REMARK INTRA:                  -1.179
REMARK UNBOUND:                -1.229
REMARK  Name = 
REMARK  8 active torsions:
REMARK  status: ('A' for Active; 'I' for Inactive)
REMARK    1  A    between atoms: C_1  and  O_2
REMARK    2  A    between atoms: O_2  and  C_3
REMARK    3  A    between atoms: C_8  and  C_9
REMARK    4  A    between atoms: N_11  and  C_12
REMARK    5  A    between atoms: C_12  and  C_13
REMARK    6  A    between atoms: C_16  and  C_17
REMARK    7  A    between atoms: C_17  and  N_18
REMARK    8  A    between atoms: C_19  and  C_21
REMARK                            x       y       z     vdW  Elec       q    Type
REMARK                         _______ _______ _______ _____ _____    ______ ____
ROOT
ATOM      1  C   UNL     1      47.888   7.825  13.365  0.00  0.00    +0.000 A 
ATOM      2  C   UNL     1      48.103   6.587  13.985  0.00  0.00    +0.000 A 
ATOM      3  C   UNL     1      48.598   6.515  15.294  0.00  0.00    +0.000 A 
ATOM      4  C   UNL     1      48.868   7.682  16.022  0.00  0.00    +0.000 A 
ATOM      5  C   UNL     1      48.652   8.921  15.402  0.00  0.00    +0.000 A 
ATOM      6  C   UNL     1      48.158   8.992  14.094  0.00  0.00    +0.000 A 
ENDROOT
BRANCH   1   7
ATOM      7  C   UNL     1      47.421   7.899  11.932  0.00  0.00    +0.000 C 
BRANCH   7  10
ATOM      8  C   UNL     1      45.541   6.511  11.153  0.00  0.00    +0.000 C 
ATOM      9  O   UNL     1      44.746   7.425  11.341  0.00  0.00    +0.000 OA
ATOM     10  N   UNL     1      46.895   6.654  11.428  0.00  0.00    +0.000 N 
ATOM     11  H   UNL     1      47.495   5.853  11.256  0.00  0.00    +0.000 HD
BRANCH   8  17
ATOM     12  C   UNL     1      44.517   4.174  11.402  0.00  0.00    +0.000 A 
ATOM     13  C   UNL     1      44.186   2.967  10.779  0.00  0.00    +0.000 A 
ATOM     14  C   UNL     1      44.499   2.760   9.438  0.00  0.00    +0.000 A 
ATOM     15  C   UNL     1      45.133   3.776   8.745  0.00  0.00    +0.000 A 
ATOM     16  N   UNL     1      45.461   4.966   9.290  0.00  0.00    +0.000 NA
ATOM     17  C   UNL     1      45.142   5.153  10.613  0.00  0.00    +0.000 A 
BRANCH  12  19
ATOM     18  C   UNL     1      42.893   4.908  12.976  0.00  0.00    +0.000 C 
ATOM     19  O   UNL     1      44.210   4.440  12.708  0.00  0.00    +0.000 OA
ENDBRANCH  12  19
ENDBRANCH   8  17
ENDBRANCH   7  10
ENDBRANCH   1   7
BRANCH   4  20
ATOM     20  C   UNL     1      49.416   7.614  17.426  0.00  0.00    +0.000 C 
BRANCH  20  21
ATOM     21  N   UNL     1      50.363   6.535  17.576  0.00  0.00    +0.000 N 
ATOM     22  C   UNL     1      50.618   5.978  18.804  0.00  0.00    +0.000 C 
ATOM     23  O   UNL     1      50.031   6.347  19.819  0.00  0.00    +0.000 OA
ATOM     24  H   UNL     1      51.013   6.382  16.812  0.00  0.00    +0.000 HD
BRANCH  22  25
ATOM     25  C   UNL     1      51.585   4.872  18.843  0.00  0.00    +0.000 A 
ATOM     26  C   UNL     1      52.786   5.028  19.524  0.00  0.00    +0.000 A 
ATOM     27  S   UNL     1      53.761   3.628  19.519  0.00  0.00    +0.000 S 
ATOM     28  C   UNL     1      52.639   2.782  18.558  0.00  0.00    +0.000 A 
ATOM     29  N   UNL     1      52.881   1.504  18.163  0.00  0.00    +0.000 NA
ATOM     30  C   UNL     1      51.962   0.994  17.415  0.00  0.00    +0.000 A 
ATOM     31  N   UNL     1      50.820   1.645  17.027  0.00  0.00    +0.000 N 
ATOM     32  C   UNL     1      50.522   2.929  17.421  0.00  0.00    +0.000 A 
ATOM     33  O   UNL     1      49.477   3.473  17.081  0.00  0.00    +0.000 OA
ATOM     34  C   UNL     1      51.527   3.551  18.261  0.00  0.00    +0.000 A 
ATOM     35  H   UNL     1      50.135   1.189  16.443  0.00  0.00    +0.000 HD
ENDBRANCH  22  25
ENDBRANCH  20  21
ENDBRANCH   4  20
TORSDOF 7
ENDMDL
MODEL 7
REMARK VINA RESULT:    -6.540      2.740      8.548
REMARK INTER + INTRA:         -10.444
REMARK INTER:                  -9.165
REMARK INTRA:                  -1.279
REMARK UNBOUND:                -1.229
REMARK  Name = 
REMARK  8 active torsions:
REMARK  status: ('A' for Active; 'I' for Inactive)
REMARK    1  A    between atoms: C_1  and  O_2
REMARK    2  A    between atoms: O_2  and  C_3
REMARK    3  A    between atoms: C_8  and  C_9
REMARK    4  A    between atoms: N_11  and  C_12
REMARK    5  A    between atoms: C_12  and  C_13
REMARK    6  A    between atoms: C_16  and  C_17
REMARK    7  A    between atoms: C_17  and  N_18
REMARK    8  A    between atoms: C_19  and  C_21
REMARK                            x       y       z     vdW  Elec       q    Type
REMARK                         _______ _______ _______ _____ _____    ______ ____
ROOT
ATOM      1  C   UNL     1      48.465   8.179  13.540  0.00  0.00    +0.000 A 
ATOM      2  C   UNL     1      47.989   9.088  14.495  0.00  0.00    +0.000 A 
ATOM      3  C   UNL     1      48.482   9.079  15.806  0.00  0.00    +0.000 A 
ATOM      4  C   UNL     1      49.481   8.173  16.187  0.00  0.00    +0.000 A 
ATOM      5  C   UNL     1      49.959   7.264  15.233  0.00  0.00    +0.000 A 
ATOM      6  C   UNL     1      49.465   7.274  13.923  0.00  0.00    +0.000 A 
ENDROOT
BRANCH   1   7
ATOM      7  C   UNL     1      47.883   8.147  12.148  0.00  0.00    +0.000 C 
BRANCH   7  10
ATOM      8  C   UNL     1      45.867   6.733  12.177  0.00  0.00    +0.000 C 
ATOM      9  O   UNL     1      45.230   7.596  12.772  0.00  0.00    +0.000 OA
ATOM     10  N   UNL     1      47.199   6.918  11.832  0.00  0.00    +0.000 N 
ATOM     11  H   UNL     1      47.668   6.157  11.348  0.00  0.00    +0.000 HD
BRANCH   8  17
ATOM     12  C   UNL     1      45.249   4.285  12.619  0.00  0.00    +0.000 A 
ATOM     13  C   UNL     1      44.667   3.115  12.121  0.00  0.00    +0.000 A 
ATOM     14  C   UNL     1      44.173   3.075  10.820  0.00  0.00    +0.000 A 
ATOM     15  C   UNL     1      44.266   4.217  10.044  0.00  0.00    +0.000 A 
ATOM     16  N   UNL     1      44.802   5.377  10.478  0.00  0.00    +0.000 NA
ATOM     17  C   UNL     1      45.282   5.398  11.765  0.00  0.00    +0.000 A 
BRANCH  12  19
ATOM     18  C   UNL     1      46.993   3.793  14.158  0.00  0.00    +0.000 C 
ATOM     19  O   UNL     1      45.726   4.387  13.897  0.00  0.00    +0.000 OA
ENDBRANCH  12  19
ENDBRANCH   8  17
ENDBRANCH   7  10
ENDBRANCH   1   7
BRANCH   4  20
ATOM     20  C   UNL     1      50.007   8.144  17.601  0.00  0.00    +0.000 C 
BRANCH  20  21
ATOM     21  N   UNL     1      50.914   7.042  17.810  0.00  0.00    +0.000 N 
ATOM     22  C   UNL     1      50.559   5.963  18.581  0.00  0.00    +0.000 C 
ATOM     23  O   UNL     1      49.447   5.872  19.096  0.00  0.00    +0.000 OA
ATOM     24  H   UNL     1      51.894   7.203  17.595  0.00  0.00    +0.000 HD
BRANCH  22  25
ATOM     25  C   UNL     1      51.550   4.886  18.712  0.00  0.00    +0.000 A 
ATOM     26  C   UNL     1      52.720   5.108  19.427  0.00  0.00    +0.000 A 
ATOM     27  S   UNL     1      53.729   3.736  19.530  0.00  0.00    +0.000 S 
ATOM     28  C   UNL     1      52.665   2.813  18.575  0.00  0.00    +0.000 A 
ATOM     29  N   UNL     1      52.953   1.522  18.256  0.00  0.00    +0.000 NA
ATOM     30  C   UNL     1      52.074   0.951  17.502  0.00  0.00    +0.000 A 
ATOM     31  N   UNL     1      50.932   1.552  17.040  0.00  0.00    +0.000 N 
ATOM     32  C   UNL     1      50.589   2.845  17.355  0.00  0.00    +0.000 A 
ATOM     33  O   UNL     1      49.544   3.344  16.950  0.00  0.00    +0.000 OA
ATOM     34  C   UNL     1      51.546   3.536  18.198  0.00  0.00    +0.000 A 
ATOM     35  H   UNL     1      50.281   1.048  16.456  0.00  0.00    +0.000 HD
ENDBRANCH  22  25
ENDBRANCH  20  21
ENDBRANCH   4  20
TORSDOF 7
ENDMDL
MODEL 8
REMARK VINA RESULT:    -6.451      1.854      2.207
REMARK INTER + INTRA:         -10.319
REMARK INTER:                  -8.926
REMARK INTRA:                  -1.393
REMARK UNBOUND:                -1.229
REMARK  Name = 
REMARK  8 active torsions:
REMARK  status: ('A' for Active; 'I' for Inactive)
REMARK    1  A    between atoms: C_1  and  O_2
REMARK    2  A    between atoms: O_2  and  C_3
REMARK    3  A    between atoms: C_8  and  C_9
REMARK    4  A    between atoms: N_11  and  C_12
REMARK    5  A    between atoms: C_12  and  C_13
REMARK    6  A    between atoms: C_16  and  C_17
REMARK    7  A    between atoms: C_17  and  N_18
REMARK    8  A    between atoms: C_19  and  C_21
REMARK                            x       y       z     vdW  Elec       q    Type
REMARK                         _______ _______ _______ _____ _____    ______ ____
ROOT
ATOM      1  C   UNL     1      50.276   7.866  15.114  0.00  0.00    +0.000 A 
ATOM      2  C   UNL     1      50.745   7.870  13.793  0.00  0.00    +0.000 A 
ATOM      3  C   UNL     1      49.852   7.894  12.713  0.00  0.00    +0.000 A 
ATOM      4  C   UNL     1      48.468   7.937  12.930  0.00  0.00    +0.000 A 
ATOM      5  C   UNL     1      47.999   7.934  14.251  0.00  0.00    +0.000 A 
ATOM      6  C   UNL     1      48.891   7.910  15.330  0.00  0.00    +0.000 A 
ENDROOT
BRANCH   1   7
ATOM      7  C   UNL     1      51.237   7.772  16.273  0.00  0.00    +0.000 C 
BRANCH   7  10
ATOM      8  C   UNL     1      50.676   5.922  17.799  0.00  0.00    +0.000 C 
ATOM      9  O   UNL     1      51.203   5.104  17.054  0.00  0.00    +0.000 OA
ATOM     10  N   UNL     1      50.638   7.274  17.487  0.00  0.00    +0.000 N 
ATOM     11  H   UNL     1      50.177   7.895  18.146  0.00  0.00    +0.000 HD
BRANCH   8  17
ATOM     12  C   UNL     1      48.627   5.522  19.286  0.00  0.00    +0.000 A 
ATOM     13  C   UNL     1      48.148   5.152  20.547  0.00  0.00    +0.000 A 
ATOM     14  C   UNL     1      49.037   4.857  21.577  0.00  0.00    +0.000 A 
ATOM     15  C   UNL     1      50.394   4.933  21.318  0.00  0.00    +0.000 A 
ATOM     16  N   UNL     1      50.911   5.269  20.119  0.00  0.00    +0.000 NA
ATOM     17  C   UNL     1      50.019   5.554  19.113  0.00  0.00    +0.000 A 
BRANCH  12  19
ATOM     18  C   UNL     1      47.326   4.685  17.481  0.00  0.00    +0.000 C 
ATOM     19  O   UNL     1      47.799   5.797  18.233  0.00  0.00    +0.000 OA
ENDBRANCH  12  19
ENDBRANCH   8  17
ENDBRANCH   7  10
ENDBRANCH   1   7
BRANCH   4  20
ATOM     20  C   UNL     1      47.499   7.946  11.774  0.00  0.00    +0.000 C 
BRANCH  20  21
ATOM     21  N   UNL     1      46.839   6.672  11.623  0.00  0.00    +0.000 N 
ATOM     22  C   UNL     1      45.473   6.564  11.710  0.00  0.00    +0.000 C 
ATOM     23  O   UNL     1      44.754   7.545  11.885  0.00  0.00    +0.000 OA
ATOM     24  H   UNL     1      47.414   5.840  11.712  0.00  0.00    +0.000 HD
BRANCH  22  25
ATOM     25  C   UNL     1      44.900   5.224  11.521  0.00  0.00    +0.000 A 
ATOM     26  C   UNL     1      44.220   4.610  12.565  0.00  0.00    +0.000 A 
ATOM     27  S   UNL     1      43.569   3.087  12.156  0.00  0.00    +0.000 S 
ATOM     28  C   UNL     1      44.223   3.168  10.587  0.00  0.00    +0.000 A 
ATOM     29  N   UNL     1      44.051   2.147   9.704  0.00  0.00    +0.000 NA
ATOM     30  C   UNL     1      44.624   2.327   8.562  0.00  0.00    +0.000 A 
ATOM     31  N   UNL     1      45.352   3.437   8.220  0.00  0.00    +0.000 N 
ATOM     32  C   UNL     1      45.533   4.503   9.070  0.00  0.00    +0.000 A 
ATOM     33  O   UNL     1      46.165   5.495   8.723  0.00  0.00    +0.000 OA
ATOM     34  C   UNL     1      44.912   4.349  10.372  0.00  0.00    +0.000 A 
ATOM     35  H   UNL     1      45.772   3.520   7.306  0.00  0.00    +0.000 HD
ENDBRANCH  22  25
ENDBRANCH  20  21
ENDBRANCH   4  20
TORSDOF 7
ENDMDL
MODEL 9
REMARK VINA RESULT:    -6.131      2.255      3.187
REMARK INTER + INTRA:          -9.868
REMARK INTER:                  -8.536
REMARK INTRA:                  -1.332
REMARK UNBOUND:                -1.229
REMARK  Name = 
REMARK  8 active torsions:
REMARK  status: ('A' for Active; 'I' for Inactive)
REMARK    1  A    between atoms: C_1  and  O_2
REMARK    2  A    between atoms: O_2  and  C_3
REMARK    3  A    between atoms: C_8  and  C_9
REMARK    4  A    between atoms: N_11  and  C_12
REMARK    5  A    between atoms: C_12  and  C_13
REMARK    6  A    between atoms: C_16  and  C_17
REMARK    7  A    between atoms: C_17  and  N_18
REMARK    8  A    between atoms: C_19  and  C_21
REMARK                            x       y       z     vdW  Elec       q    Type
REMARK                         _______ _______ _______ _____ _____    ______ ____
ROOT
ATOM      1  C   UNL     1      50.209   7.427  15.473  0.00  0.00    +0.000 A 
ATOM      2  C   UNL     1      49.083   6.597  15.384  0.00  0.00    +0.000 A 
ATOM      3  C   UNL     1      48.202   6.695  14.299  0.00  0.00    +0.000 A 
ATOM      4  C   UNL     1      48.439   7.612  13.266  0.00  0.00    +0.000 A 
ATOM      5  C   UNL     1      49.565   8.442  13.354  0.00  0.00    +0.000 A 
ATOM      6  C   UNL     1      50.445   8.344  14.439  0.00  0.00    +0.000 A 
ENDROOT
BRANCH   1   7
ATOM      7  C   UNL     1      51.118   7.366  16.676  0.00  0.00    +0.000 C 
BRANCH   7  10
ATOM      8  C   UNL     1      49.910   7.515  18.817  0.00  0.00    +0.000 C 
ATOM      9  O   UNL     1      49.880   8.739  18.753  0.00  0.00    +0.000 OA
ATOM     10  N   UNL     1      50.514   6.748  17.830  0.00  0.00    +0.000 N 
ATOM     11  H   UNL     1      50.510   5.739  17.953  0.00  0.00    +0.000 HD
BRANCH   8  17
ATOM     12  C   UNL     1      50.080   5.967  20.853  0.00  0.00    +0.000 A 
ATOM     13  C   UNL     1      49.400   5.293  21.873  0.00  0.00    +0.000 A 
ATOM     14  C   UNL     1      48.013   5.366  21.960  0.00  0.00    +0.000 A 
ATOM     15  C   UNL     1      47.333   6.122  21.022  0.00  0.00    +0.000 A 
ATOM     16  N   UNL     1      47.937   6.805  20.027  0.00  0.00    +0.000 NA
ATOM     17  C   UNL     1      49.307   6.724  19.959  0.00  0.00    +0.000 A 
BRANCH  12  19
ATOM     18  C   UNL     1      52.075   4.675  20.788  0.00  0.00    +0.000 C 
ATOM     19  O   UNL     1      51.442   5.950  20.736  0.00  0.00    +0.000 OA
ENDBRANCH  12  19
ENDBRANCH   8  17
ENDBRANCH   7  10
ENDBRANCH   1   7
BRANCH   4  20
ATOM     20  C   UNL     1      47.487   7.735  12.102  0.00  0.00    +0.000 C 
BRANCH  20  21
ATOM     21  N   UNL     1      46.820   6.486  11.824  0.00  0.00    +0.000 N 
ATOM     22  C   UNL     1      45.451   6.390  11.845  0.00  0.00    +0.000 C 
ATOM     23  O   UNL     1      44.735   7.364  12.066  0.00  0.00    +0.000 OA
ATOM     24  H   UNL     1      47.382   5.642  11.872  0.00  0.00    +0.000 HD
BRANCH  22  25
ATOM     25  C   UNL     1      44.873   5.077  11.528  0.00  0.00    +0.000 A 
ATOM     26  C   UNL     1      44.150   4.389  12.494  0.00  0.00    +0.000 A 
ATOM     27  S   UNL     1      43.501   2.911  11.940  0.00  0.00    +0.000 S 
ATOM     28  C   UNL     1      44.212   3.111  10.406  0.00  0.00    +0.000 A 
ATOM     29  N   UNL     1      44.062   2.167   9.439  0.00  0.00    +0.000 NA
ATOM     30  C   UNL     1      44.678   2.431   8.336  0.00  0.00    +0.000 A 
ATOM     31  N   UNL     1      45.427   3.557   8.111  0.00  0.00    +0.000 N 
ATOM     32  C   UNL     1      45.587   4.548   9.050  0.00  0.00    +0.000 A 
ATOM     33  O   UNL     1      46.240   5.557   8.807  0.00  0.00    +0.000 OA
ATOM     34  C   UNL     1      44.919   4.297  10.312  0.00  0.00    +0.000 A 
ATOM     35  H   UNL     1      45.882   3.708   7.222  0.00  0.00    +0.000 HD
ENDBRANCH  22  25
ENDBRANCH  20  21
ENDBRANCH   4  20
TORSDOF 7
ENDMDL
