MODEL 1
REMARK VINA RESULT:    -8.225      0.000      0.000
REMARK INTER + INTRA:         -12.989
REMARK INTER:                 -11.590
REMARK INTRA:                  -1.399
REMARK UNBOUND:                -1.399
REMARK  Name = 
REMARK  8 active torsions:
REMARK  status: ('A' for Active; 'I' for Inactive)
REMARK    1  A    between atoms: C_1  and  O_2
REMARK    2  A    between atoms: O_2  and  C_3
REMARK    3  A    between atoms: C_5  and  O_6
REMARK    4  A    between atoms: O_6  and  C_7
REMARK    5  A    between atoms: C_7  and  C_8
REMARK    6  A    between atoms: C_8  and  C_9
REMARK    7  A    between atoms: C_13  and  C_14
REMARK    8  A    between atoms: C_24  and  C_25
REMARK                            x       y       z     vdW  Elec       q    Type
REMARK                         _______ _______ _______ _____ _____    ______ ____
ROOT
ATOM      1  C   UNL     1      45.682   7.254  12.439  0.00  0.00    +0.000 C 
ENDROOT
BRANCH   1   2
ATOM      2  O   UNL     1      46.876   6.470  12.408  0.00  0.00    +0.000 OA
BRANCH   2   5
ATOM      3  C   UNL     1      48.071   5.424  15.786  0.00  0.00    +0.000 A 
ATOM      4  C   UNL     1      47.832   6.235  14.667  0.00  0.00    +0.000 A 
ATOM      5  C   UNL     1      47.149   5.751  13.547  0.00  0.00    +0.000 A 
ATOM      6  C   UNL     1      46.701   4.431  13.543  0.00  0.00    +0.000 A 
ATOM      7  C   UNL     1      46.922   3.613  14.650  0.00  0.00    +0.000 A 
ATOM      8  C   UNL     1      47.603   4.095  15.782  0.00  0.00    +0.000 A 
BRANCH   8   9
ATOM      9  C   UNL     1      47.756   3.142  16.925  0.00  0.00    +0.000 C 
ATOM     10  N   UNL     1      49.012   2.734  17.268  0.00  0.00    +0.000 N 
ATOM     11  O   UNL     1      46.788   2.732  17.555  0.00  0.00    +0.000 OA
ATOM     12  H   UNL     1      49.816   2.994  16.711  0.00  0.00    +0.000 HD
ATOM     13  H   UNL     1      49.115   2.060  18.010  0.00  0.00    +0.000 HD
ENDBRANCH   8   9
BRANCH   3  15
ATOM     14  C   UNL     1      50.182   6.122  16.678  0.00  0.00    +0.000 C 
ATOM     15  O   UNL     1      48.797   5.855  16.869  0.00  0.00    +0.000 OA
ENDBRANCH   3  15
ENDBRANCH   2   5
ENDBRANCH   1   2
BRANCH   1  16
ATOM     16  C   UNL     1      44.878   7.067  11.151  0.00  0.00    +0.000 C 
BRANCH  16  17
ATOM     17  C   UNL     1      44.621   5.600  10.911  0.00  0.00    +0.000 A 
ATOM     18  C   UNL     1      43.598   4.934  11.587  0.00  0.00    +0.000 A 
ATOM     19  C   UNL     1      43.324   3.601  11.290  0.00  0.00    +0.000 A 
ATOM     20  C   UNL     1      44.051   2.935  10.297  0.00  0.00    +0.000 A 
ATOM     21  C   UNL     1      45.055   3.585   9.555  0.00  0.00    +0.000 A 
ATOM     22  C   UNL     1      45.334   4.919   9.910  0.00  0.00    +0.000 A 
ATOM     23  F   UNL     1      46.267   5.613   9.236  0.00  0.00    +0.000 F 
BRANCH  21  24
ATOM     24  C   UNL     1      45.708   2.925   8.396  0.00  0.00    +0.000 A 
ATOM     25  C   UNL     1      45.999   3.650   7.222  0.00  0.00    +0.000 A 
ATOM     26  C   UNL     1      46.706   3.077   6.160  0.00  0.00    +0.000 A 
ATOM     27  C   UNL     1      47.144   1.762   6.245  0.00  0.00    +0.000 A 
ATOM     28  C   UNL     1      46.849   1.012   7.379  0.00  0.00    +0.000 A 
ATOM     29  C   UNL     1      46.128   1.583   8.434  0.00  0.00    +0.000 A 
ENDBRANCH  21  24
ENDBRANCH  16  17
ENDBRANCH   1  16
TORSDOF 7
ENDMDL
MODEL 2
REMARK VINA RESULT:    -8.020      3.769      7.624
REMARK INTER + INTRA:         -12.700
REMARK INTER:                 -11.345
REMARK INTRA:                  -1.355
REMARK UNBOUND:                -1.399
REMARK  Name = 
REMARK  8 active torsions:
REMARK  status: ('A' for Active; 'I' for Inactive)
REMARK    1  A    between atoms: C_1  and  O_2
REMARK    2  A    between atoms: O_2  and  C_3
REMARK    3  A    between atoms: C_5  and  O_6
REMARK    4  A    between atoms: O_6  and  C_7
REMARK    5  A    between atoms: C_7  and  C_8
REMARK    6  A    between atoms: C_8  and  C_9
REMARK    7  A    between atoms: C_13  and  C_14
REMARK    8  A    between atoms: C_24  and  C_25
REMARK                            x       y       z     vdW  Elec       q    Type
REMARK                         _______ _______ _______ _____ _____    ______ ____
ROOT
ATOM      1  C   UNL     1      43.978   3.442  11.569  0.00  0.00    +0.000 C 
ENDROOT
BRANCH   1   2
ATOM      2  O   UNL     1      43.513   3.088  10.265  0.00  0.00    +0.000 OA
BRANCH   2   5
ATOM      3  C   UNL     1      46.217   1.623   8.149  0.00  0.00    +0.000 A 
ATOM      4  C   UNL     1      45.236   1.727   9.146  0.00  0.00    +0.000 A 
ATOM      5  C   UNL     1      44.487   2.896   9.314  0.00  0.00    +0.000 A 
ATOM      6  C   UNL     1      44.724   3.982   8.473  0.00  0.00    +0.000 A 
ATOM      7  C   UNL     1      45.690   3.893   7.471  0.00  0.00    +0.000 A 
ATOM      8  C   UNL     1      46.443   2.719   7.293  0.00  0.00    +0.000 A 
BRANCH   8   9
ATOM      9  C   UNL     1      47.428   2.722   6.166  0.00  0.00    +0.000 C 
ATOM     10  N   UNL     1      48.739   2.475   6.449  0.00  0.00    +0.000 N 
ATOM     11  O   UNL     1      47.082   2.933   5.010  0.00  0.00    +0.000 OA
ATOM     12  H   UNL     1      49.060   2.381   7.405  0.00  0.00    +0.000 HD
ATOM     13  H   UNL     1      49.412   2.518   5.699  0.00  0.00    +0.000 HD
ENDBRANCH   8   9
BRANCH   3  15
ATOM     14  C   UNL     1      46.455  -0.623   7.352  0.00  0.00    +0.000 C 
ATOM     15  O   UNL     1      47.011   0.512   8.008  0.00  0.00    +0.000 OA
ENDBRANCH   3  15
ENDBRANCH   2   5
ENDBRANCH   1   2
BRANCH   1  16
ATOM     16  C   UNL     1      44.009   4.961  11.740  0.00  0.00    +0.000 C 
BRANCH  16  17
ATOM     17  C   UNL     1      45.253   5.371  12.489  0.00  0.00    +0.000 A 
ATOM     18  C   UNL     1      45.766   4.575  13.514  0.00  0.00    +0.000 A 
ATOM     19  C   UNL     1      46.960   4.929  14.136  0.00  0.00    +0.000 A 
ATOM     20  C   UNL     1      47.664   6.065  13.719  0.00  0.00    +0.000 A 
ATOM     21  C   UNL     1      47.208   6.866  12.655  0.00  0.00    +0.000 A 
ATOM     22  C   UNL     1      45.977   6.502  12.077  0.00  0.00    +0.000 A 
ATOM     23  F   UNL     1      45.486   7.207  11.043  0.00  0.00    +0.000 F 
BRANCH  21  24
ATOM     24  C   UNL     1      48.039   7.971  12.111  0.00  0.00    +0.000 A 
ATOM     25  C   UNL     1      47.566   9.299  12.115  0.00  0.00    +0.000 A 
ATOM     26  C   UNL     1      48.370  10.368  11.706  0.00  0.00    +0.000 A 
ATOM     27  C   UNL     1      49.672  10.136  11.282  0.00  0.00    +0.000 A 
ATOM     28  C   UNL     1      50.159   8.833  11.241  0.00  0.00    +0.000 A 
ATOM     29  C   UNL     1      49.347   7.765  11.638  0.00  0.00    +0.000 A 
ENDBRANCH  21  24
ENDBRANCH  16  17
ENDBRANCH   1  16
TORSDOF 7
ENDMDL
MODEL 3
REMARK VINA RESULT:    -7.834      3.794      7.685
REMARK INTER + INTRA:         -12.438
REMARK INTER:                 -11.262
REMARK INTRA:                  -1.176
REMARK UNBOUND:                -1.399
REMARK  Name = 
REMARK  8 active torsions:
REMARK  status: ('A' for Active; 'I' for Inactive)
REMARK    1  A    between atoms: C_1  and  O_2
REMARK    2  A    between atoms: O_2  and  C_3
REMARK    3  A    between atoms: C_5  and  O_6
REMARK    4  A    between atoms: O_6  and  C_7
REMARK    5  A    between atoms: C_7  and  C_8
REMARK    6  A    between atoms: C_8  and  C_9
REMARK    7  A    between atoms: C_13  and  C_14
REMARK    8  A    between atoms: C_24  and  C_25
REMARK                            x       y       z     vdW  Elec       q    Type
REMARK                         _______ _______ _______ _____ _____    ______ ____
ROOT
ATOM      1  C   UNL     1      43.797   2.534  11.442  0.00  0.00    +0.000 C 
ENDROOT
BRANCH   1   2
ATOM      2  O   UNL     1      43.637   3.258  10.221  0.00  0.00    +0.000 OA
BRANCH   2   5
ATOM      3  C   UNL     1      46.299   1.722   8.103  0.00  0.00    +0.000 A 
ATOM      4  C   UNL     1      45.329   1.856   9.108  0.00  0.00    +0.000 A 
ATOM      5  C   UNL     1      44.598   3.037   9.264  0.00  0.00    +0.000 A 
ATOM      6  C   UNL     1      44.842   4.106   8.404  0.00  0.00    +0.000 A 
ATOM      7  C   UNL     1      45.796   3.988   7.393  0.00  0.00    +0.000 A 
ATOM      8  C   UNL     1      46.531   2.802   7.227  0.00  0.00    +0.000 A 
BRANCH   8   9
ATOM      9  C   UNL     1      47.505   2.773   6.091  0.00  0.00    +0.000 C 
ATOM     10  N   UNL     1      48.826   2.583   6.372  0.00  0.00    +0.000 N 
ATOM     11  O   UNL     1      47.142   2.908   4.928  0.00  0.00    +0.000 OA
ATOM     12  H   UNL     1      49.158   2.552   7.328  0.00  0.00    +0.000 HD
ATOM     13  H   UNL     1      49.490   2.605   5.614  0.00  0.00    +0.000 HD
ENDBRANCH   8   9
BRANCH   3  15
ATOM     14  C   UNL     1      46.435  -0.612   7.580  0.00  0.00    +0.000 C 
ATOM     15  O   UNL     1      47.076   0.598   7.972  0.00  0.00    +0.000 OA
ENDBRANCH   3  15
ENDBRANCH   2   5
ENDBRANCH   1   2
BRANCH   1  16
ATOM     16  C   UNL     1      43.536   3.439  12.647  0.00  0.00    +0.000 C 
BRANCH  16  17
ATOM     17  C   UNL     1      44.658   4.437  12.796  0.00  0.00    +0.000 A 
ATOM     18  C   UNL     1      45.942   4.020  13.150  0.00  0.00    +0.000 A 
ATOM     19  C   UNL     1      46.981   4.946  13.201  0.00  0.00    +0.000 A 
ATOM     20  C   UNL     1      46.750   6.287  12.873  0.00  0.00    +0.000 A 
ATOM     21  C   UNL     1      45.481   6.738  12.461  0.00  0.00    +0.000 A 
ATOM     22  C   UNL     1      44.445   5.784  12.460  0.00  0.00    +0.000 A 
ATOM     23  F   UNL     1      43.210   6.134  12.061  0.00  0.00    +0.000 F 
BRANCH  21  24
ATOM     24  C   UNL     1      45.280   8.120  11.958  0.00  0.00    +0.000 A 
ATOM     25  C   UNL     1      44.188   8.434  11.123  0.00  0.00    +0.000 A 
ATOM     26  C   UNL     1      43.920   9.747  10.723  0.00  0.00    +0.000 A 
ATOM     27  C   UNL     1      44.738  10.785  11.151  0.00  0.00    +0.000 A 
ATOM     28  C   UNL     1      45.839  10.505  11.954  0.00  0.00    +0.000 A 
ATOM     29  C   UNL     1      46.113   9.188  12.340  0.00  0.00    +0.000 A 
ENDBRANCH  21  24
ENDBRANCH  16  17
ENDBRANCH   1  16
TORSDOF 7
ENDMDL
MODEL 4
REMARK VINA RESULT:    -7.682      3.542      8.071
REMARK INTER + INTRA:         -12.225
REMARK INTER:                 -11.243
REMARK INTRA:                  -0.982
REMARK UNBOUND:                -1.399
REMARK  Name = 
REMARK  8 active torsions:
REMARK  status: ('A' for Active; 'I' for Inactive)
REMARK    1  A    between atoms: C_1  and  O_2
REMARK    2  A    between atoms: O_2  and  C_3
REMARK    3  A    between atoms: C_5  and  O_6
REMARK    4  A    between atoms: O_6  and  C_7
REMARK    5  A    between atoms: C_7  and  C_8
REMARK    6  A    between atoms: C_8  and  C_9
REMARK    7  A    between atoms: C_13  and  C_14
REMARK    8  A    between atoms: C_24  and  C_25
REMARK                            x       y       z     vdW  Elec       q    Type
REMARK                         _______ _______ _______ _____ _____    ______ ____
ROOT
ATOM      1  C   UNL     1      44.007   3.518  11.502  0.00  0.00    +0.000 C 
ENDROOT
BRANCH   1   2
ATOM      2  O   UNL     1      43.546   3.211  10.185  0.00  0.00    +0.000 OA
BRANCH   2   5
ATOM      3  C   UNL     1      46.249   1.635   8.149  0.00  0.00    +0.000 A 
ATOM      4  C   UNL     1      45.262   1.788   9.134  0.00  0.00    +0.000 A 
ATOM      5  C   UNL     1      44.524   2.970   9.249  0.00  0.00    +0.000 A 
ATOM      6  C   UNL     1      44.778   4.019   8.367  0.00  0.00    +0.000 A 
ATOM      7  C   UNL     1      45.750   3.881   7.376  0.00  0.00    +0.000 A 
ATOM      8  C   UNL     1      46.492   2.693   7.251  0.00  0.00    +0.000 A 
BRANCH   8   9
ATOM      9  C   UNL     1      47.485   2.641   6.132  0.00  0.00    +0.000 C 
ATOM     10  N   UNL     1      48.801   2.458   6.440  0.00  0.00    +0.000 N 
ATOM     11  O   UNL     1      47.141   2.752   4.961  0.00  0.00    +0.000 OA
ATOM     12  H   UNL     1      49.117   2.448   7.402  0.00  0.00    +0.000 HD
ATOM     13  H   UNL     1      49.478   2.464   5.692  0.00  0.00    +0.000 HD
ENDBRANCH   8   9
BRANCH   3  15
ATOM     14  C   UNL     1      46.497  -0.620   7.377  0.00  0.00    +0.000 C 
ATOM     15  O   UNL     1      47.033   0.511   8.058  0.00  0.00    +0.000 OA
ENDBRANCH   3  15
ENDBRANCH   2   5
ENDBRANCH   1   2
BRANCH   1  16
ATOM     16  C   UNL     1      44.031   5.029  11.729  0.00  0.00    +0.000 C 
BRANCH  16  17
ATOM     17  C   UNL     1      45.423   5.473  12.106  0.00  0.00    +0.000 A 
ATOM     18  C   UNL     1      46.131   6.367  11.302  0.00  0.00    +0.000 A 
ATOM     19  C   UNL     1      47.380   6.827  11.711  0.00  0.00    +0.000 A 
ATOM     20  C   UNL     1      47.917   6.419  12.938  0.00  0.00    +0.000 A 
ATOM     21  C   UNL     1      47.213   5.560  13.802  0.00  0.00    +0.000 A 
ATOM     22  C   UNL     1      45.972   5.082  13.339  0.00  0.00    +0.000 A 
ATOM     23  F   UNL     1      45.232   4.271  14.115  0.00  0.00    +0.000 F 
BRANCH  21  24
ATOM     24  C   UNL     1      47.712   5.262  15.169  0.00  0.00    +0.000 A 
ATOM     25  C   UNL     1      47.366   4.060  15.819  0.00  0.00    +0.000 A 
ATOM     26  C   UNL     1      47.907   3.711  17.060  0.00  0.00    +0.000 A 
ATOM     27  C   UNL     1      48.813   4.558  17.686  0.00  0.00    +0.000 A 
ATOM     28  C   UNL     1      49.156   5.764  17.083  0.00  0.00    +0.000 A 
ATOM     29  C   UNL     1      48.600   6.116  15.847  0.00  0.00    +0.000 A 
ENDBRANCH  21  24
ENDBRANCH  16  17
ENDBRANCH   1  16
TORSDOF 7
ENDMDL
MODEL 5
REMARK VINA RESULT:    -7.364      3.235      4.188
REMARK INTER + INTRA:         -11.777
REMARK INTER:                 -10.620
REMARK INTRA:                  -1.156
REMARK UNBOUND:                -1.399
REMARK  Name = 
REMARK  8 active torsions:
REMARK  status: ('A' for Active; 'I' for Inactive)
REMARK    1  A    between atoms: C_1  and  O_2
REMARK    2  A    between atoms: O_2  and  C_3
REMARK    3  A    between atoms: C_5  and  O_6
REMARK    4  A    between atoms: O_6  and  C_7
REMARK    5  A    between atoms: C_7  and  C_8
REMARK    6  A    between atoms: C_8  and  C_9
REMARK    7  A    between atoms: C_13  and  C_14
REMARK    8  A    between atoms: C_24  and  C_25
REMARK                            x       y       z     vdW  Elec       q    Type
REMARK                         _______ _______ _______ _____ _____    ______ ____
ROOT
ATOM      1  C   UNL     1      45.139   6.792  12.828  0.00  0.00    +0.000 C 
ENDROOT
BRANCH   1   2
ATOM      2  O   UNL     1      45.733   8.089  12.916  0.00  0.00    +0.000 OA
BRANCH   2   5
ATOM      3  C   UNL     1      49.005   9.340  11.628  0.00  0.00    +0.000 A 
ATOM      4  C   UNL     1      47.666   9.344  12.046  0.00  0.00    +0.000 A 
ATOM      5  C   UNL     1      47.039   8.179  12.496  0.00  0.00    +0.000 A 
ATOM      6  C   UNL     1      47.760   6.987  12.527  0.00  0.00    +0.000 A 
ATOM      7  C   UNL     1      49.095   6.965  12.124  0.00  0.00    +0.000 A 
ATOM      8  C   UNL     1      49.734   8.134  11.675  0.00  0.00    +0.000 A 
BRANCH   8   9
ATOM      9  C   UNL     1      51.177   8.004  11.299  0.00  0.00    +0.000 C 
ATOM     10  N   UNL     1      52.107   8.646  12.063  0.00  0.00    +0.000 N 
ATOM     11  O   UNL     1      51.533   7.336  10.336  0.00  0.00    +0.000 OA
ATOM     12  H   UNL     1      51.831   9.269  12.811  0.00  0.00    +0.000 HD
ATOM     13  H   UNL     1      53.077   8.595  11.788  0.00  0.00    +0.000 HD
ENDBRANCH   8   9
BRANCH   3  15
ATOM     14  C   UNL     1      49.902  11.528  12.014  0.00  0.00    +0.000 C 
ATOM     15  O   UNL     1      49.624  10.455  11.119  0.00  0.00    +0.000 OA
ENDBRANCH   3  15
ENDBRANCH   2   5
ENDBRANCH   1   2
BRANCH   1  16
ATOM     16  C   UNL     1      44.422   6.615  11.488  0.00  0.00    +0.000 C 
BRANCH  16  17
ATOM     17  C   UNL     1      44.339   5.150  11.137  0.00  0.00    +0.000 A 
ATOM     18  C   UNL     1      43.423   4.313  11.775  0.00  0.00    +0.000 A 
ATOM     19  C   UNL     1      43.306   2.984  11.378  0.00  0.00    +0.000 A 
ATOM     20  C   UNL     1      44.081   2.490  10.322  0.00  0.00    +0.000 A 
ATOM     21  C   UNL     1      44.979   3.314   9.618  0.00  0.00    +0.000 A 
ATOM     22  C   UNL     1      45.103   4.641  10.073  0.00  0.00    +0.000 A 
ATOM     23  F   UNL     1      45.926   5.495   9.440  0.00  0.00    +0.000 F 
BRANCH  21  24
ATOM     24  C   UNL     1      45.676   2.831   8.399  0.00  0.00    +0.000 A 
ATOM     25  C   UNL     1      45.856   3.678   7.286  0.00  0.00    +0.000 A 
ATOM     26  C   UNL     1      46.599   3.280   6.170  0.00  0.00    +0.000 A 
ATOM     27  C   UNL     1      47.186   2.021   6.139  0.00  0.00    +0.000 A 
ATOM     28  C   UNL     1      47.005   1.152   7.210  0.00  0.00    +0.000 A 
ATOM     29  C   UNL     1      46.248   1.549   8.319  0.00  0.00    +0.000 A 
ENDBRANCH  21  24
ENDBRANCH  16  17
ENDBRANCH   1  16
TORSDOF 7
ENDMDL
MODEL 6
REMARK VINA RESULT:    -7.343      3.663      7.444
REMARK INTER + INTRA:         -11.746
REMARK INTER:                 -10.987
REMARK INTRA:                  -0.759
REMARK UNBOUND:                -1.399
REMARK  Name = 
REMARK  8 active torsions:
REMARK  status: ('A' for Active; 'I' for Inactive)
REMARK    1  A    between atoms: C_1  and  O_2
REMARK    2  A    between atoms: O_2  and  C_3
REMARK    3  A    between atoms: C_5  and  O_6
REMARK    4  A    between atoms: O_6  and  C_7
REMARK    5  A    between atoms: C_7  and  C_8
REMARK    6  A    between atoms: C_8  and  C_9
REMARK    7  A    between atoms: C_13  and  C_14
REMARK    8  A    between atoms: C_24  and  C_25
REMARK                            x       y       z     vdW  Elec       q    Type
REMARK                         _______ _______ _______ _____ _____    ______ ____
ROOT
ATOM      1  C   UNL     1      43.085   4.374  11.122  0.00  0.00    +0.000 C 
ENDROOT
BRANCH   1   2
ATOM      2  O   UNL     1      43.563   4.789   9.841  0.00  0.00    +0.000 OA
BRANCH   2   5
ATOM      3  C   UNL     1      46.227   3.338   7.666  0.00  0.00    +0.000 A 
ATOM      4  C   UNL     1      45.376   4.289   8.249  0.00  0.00    +0.000 A 
ATOM      5  C   UNL     1      44.439   3.929   9.222  0.00  0.00    +0.000 A 
ATOM      6  C   UNL     1      44.348   2.596   9.618  0.00  0.00    +0.000 A 
ATOM      7  C   UNL     1      45.193   1.639   9.056  0.00  0.00    +0.000 A 
ATOM      8  C   UNL     1      46.141   1.994   8.080  0.00  0.00    +0.000 A 
BRANCH   8   9
ATOM      9  C   UNL     1      47.017   0.894   7.569  0.00  0.00    +0.000 C 
ATOM     10  N   UNL     1      46.547  -0.386   7.616  0.00  0.00    +0.000 N 
ATOM     11  O   UNL     1      48.130   1.119   7.109  0.00  0.00    +0.000 OA
ATOM     12  H   UNL     1      45.668  -0.604   8.067  0.00  0.00    +0.000 HD
ATOM     13  H   UNL     1      47.151  -1.134   7.311  0.00  0.00    +0.000 HD
ENDBRANCH   8   9
BRANCH   3  15
ATOM     14  C   UNL     1      46.741   3.321   5.326  0.00  0.00    +0.000 C 
ATOM     15  O   UNL     1      47.108   3.654   6.661  0.00  0.00    +0.000 OA
ENDBRANCH   3  15
ENDBRANCH   2   5
ENDBRANCH   1   2
BRANCH   1  16
ATOM     16  C   UNL     1      43.283   5.480  12.159  0.00  0.00    +0.000 C 
BRANCH  16  17
ATOM     17  C   UNL     1      44.687   5.426  12.709  0.00  0.00    +0.000 A 
ATOM     18  C   UNL     1      45.258   4.212  13.093  0.00  0.00    +0.000 A 
ATOM     19  C   UNL     1      46.583   4.174  13.520  0.00  0.00    +0.000 A 
ATOM     20  C   UNL     1      47.353   5.342  13.540  0.00  0.00    +0.000 A 
ATOM     21  C   UNL     1      46.831   6.578  13.113  0.00  0.00    +0.000 A 
ATOM     22  C   UNL     1      45.477   6.588  12.726  0.00  0.00    +0.000 A 
ATOM     23  F   UNL     1      44.912   7.726  12.287  0.00  0.00    +0.000 F 
BRANCH  21  24
ATOM     24  C   UNL     1      47.698   7.777  12.981  0.00  0.00    +0.000 A 
ATOM     25  C   UNL     1      48.397   8.035  11.785  0.00  0.00    +0.000 A 
ATOM     26  C   UNL     1      49.134   9.210  11.601  0.00  0.00    +0.000 A 
ATOM     27  C   UNL     1      49.189  10.161  12.612  0.00  0.00    +0.000 A 
ATOM     28  C   UNL     1      48.531   9.923  13.815  0.00  0.00    +0.000 A 
ATOM     29  C   UNL     1      47.807   8.740  14.000  0.00  0.00    +0.000 A 
ENDBRANCH  21  24
ENDBRANCH  16  17
ENDBRANCH   1  16
TORSDOF 7
ENDMDL
MODEL 7
REMARK VINA RESULT:    -7.052      2.241      3.183
REMARK INTER + INTRA:         -11.337
REMARK INTER:                 -10.678
REMARK INTRA:                  -0.659
REMARK UNBOUND:                -1.399
REMARK  Name = 
REMARK  8 active torsions:
REMARK  status: ('A' for Active; 'I' for Inactive)
REMARK    1  A    between atoms: C_1  and  O_2
REMARK    2  A    between atoms: O_2  and  C_3
REMARK    3  A    between atoms: C_5  and  O_6
REMARK    4  A    between atoms: O_6  and  C_7
REMARK    5  A    between atoms: C_7  and  C_8
REMARK    6  A    between atoms: C_8  and  C_9
REMARK    7  A    between atoms: C_13  and  C_14
REMARK    8  A    between atoms: C_24  and  C_25
REMARK                            x       y       z     vdW  Elec       q    Type
REMARK                         _______ _______ _______ _____ _____    ______ ____
ROOT
ATOM      1  C   UNL     1      45.188   7.143  11.616  0.00  0.00    +0.000 C 
ENDROOT
BRANCH   1   2
ATOM      2  O   UNL     1      45.951   6.266  12.446  0.00  0.00    +0.000 OA
BRANCH   2   5
ATOM      3  C   UNL     1      49.170   6.877  14.233  0.00  0.00    +0.000 A 
ATOM      4  C   UNL     1      47.891   6.370  13.962  0.00  0.00    +0.000 A 
ATOM      5  C   UNL     1      47.205   6.709  12.791  0.00  0.00    +0.000 A 
ATOM      6  C   UNL     1      47.807   7.571  11.876  0.00  0.00    +0.000 A 
ATOM      7  C   UNL     1      49.082   8.078  12.125  0.00  0.00    +0.000 A 
ATOM      8  C   UNL     1      49.779   7.738  13.298  0.00  0.00    +0.000 A 
BRANCH   8   9
ATOM      9  C   UNL     1      51.153   8.312  13.448  0.00  0.00    +0.000 C 
ATOM     10  N   UNL     1      51.515   8.822  14.660  0.00  0.00    +0.000 N 
ATOM     11  O   UNL     1      51.950   8.326  12.517  0.00  0.00    +0.000 OA
ATOM     12  H   UNL     1      50.847   8.897  15.417  0.00  0.00    +0.000 HD
ATOM     13  H   UNL     1      52.425   9.247  14.753  0.00  0.00    +0.000 HD
ENDBRANCH   8   9
BRANCH   3  15
ATOM     14  C   UNL     1      49.176   6.929  16.628  0.00  0.00    +0.000 C 
ATOM     15  O   UNL     1      49.835   6.615  15.405  0.00  0.00    +0.000 OA
ENDBRANCH   3  15
ENDBRANCH   2   5
ENDBRANCH   1   2
BRANCH   1  16
ATOM     16  C   UNL     1      43.830   6.525  11.278  0.00  0.00    +0.000 C 
BRANCH  16  17
ATOM     17  C   UNL     1      43.982   5.043  11.040  0.00  0.00    +0.000 A 
ATOM     18  C   UNL     1      43.233   4.121  11.772  0.00  0.00    +0.000 A 
ATOM     19  C   UNL     1      43.326   2.763  11.480  0.00  0.00    +0.000 A 
ATOM     20  C   UNL     1      44.148   2.320  10.437  0.00  0.00    +0.000 A 
ATOM     21  C   UNL     1      44.880   3.220   9.640  0.00  0.00    +0.000 A 
ATOM     22  C   UNL     1      44.793   4.582   9.990  0.00  0.00    +0.000 A 
ATOM     23  F   UNL     1      45.449   5.505   9.265  0.00  0.00    +0.000 F 
BRANCH  21  24
ATOM     24  C   UNL     1      45.617   2.761   8.436  0.00  0.00    +0.000 A 
ATOM     25  C   UNL     1      45.847   3.634   7.353  0.00  0.00    +0.000 A 
ATOM     26  C   UNL     1      46.627   3.257   6.255  0.00  0.00    +0.000 A 
ATOM     27  C   UNL     1      47.203   1.993   6.214  0.00  0.00    +0.000 A 
ATOM     28  C   UNL     1      46.974   1.099   7.255  0.00  0.00    +0.000 A 
ATOM     29  C   UNL     1      46.179   1.475   8.344  0.00  0.00    +0.000 A 
ENDBRANCH  21  24
ENDBRANCH  16  17
ENDBRANCH   1  16
TORSDOF 7
ENDMDL
MODEL 8
REMARK VINA RESULT:    -6.724      3.034      7.566
REMARK INTER + INTRA:         -10.875
REMARK INTER:                  -9.069
REMARK INTRA:                  -1.806
REMARK UNBOUND:                -1.399
REMARK  Name = 
REMARK  8 active torsions:
REMARK  status: ('A' for Active; 'I' for Inactive)
REMARK    1  A    between atoms: C_1  and  O_2
REMARK    2  A    between atoms: O_2  and  C_3
REMARK    3  A    between atoms: C_5  and  O_6
REMARK    4  A    between atoms: O_6  and  C_7
REMARK    5  A    between atoms: C_7  and  C_8
REMARK    6  A    between atoms: C_8  and  C_9
REMARK    7  A    between atoms: C_13  and  C_14
REMARK    8  A    between atoms: C_24  and  C_25
REMARK                            x       y       z     vdW  Elec       q    Type
REMARK                         _______ _______ _______ _____ _____    ______ ____
ROOT
ATOM      1  C   UNL     1      47.314   8.735  13.416  0.00  0.00    +0.000 C 
ENDROOT
BRANCH   1   2
ATOM      2  O   UNL     1      47.626   7.854  12.336  0.00  0.00    +0.000 OA
BRANCH   2   5
ATOM      3  C   UNL     1      45.360   5.238  10.938  0.00  0.00    +0.000 A 
ATOM      4  C   UNL     1      46.204   6.357  10.991  0.00  0.00    +0.000 A 
ATOM      5  C   UNL     1      46.794   6.769  12.190  0.00  0.00    +0.000 A 
ATOM      6  C   UNL     1      46.534   6.054  13.357  0.00  0.00    +0.000 A 
ATOM      7  C   UNL     1      45.705   4.933  13.321  0.00  0.00    +0.000 A 
ATOM      8  C   UNL     1      45.112   4.509  12.119  0.00  0.00    +0.000 A 
BRANCH   8   9
ATOM      9  C   UNL     1      44.268   3.276  12.189  0.00  0.00    +0.000 C 
ATOM     10  N   UNL     1      44.293   2.410  11.135  0.00  0.00    +0.000 N 
ATOM     11  O   UNL     1      43.568   3.029  13.165  0.00  0.00    +0.000 OA
ATOM     12  H   UNL     1      44.797   2.634  10.286  0.00  0.00    +0.000 HD
ATOM     13  H   UNL     1      43.693   1.600  11.160  0.00  0.00    +0.000 HD
ENDBRANCH   8   9
BRANCH   3  15
ATOM     14  C   UNL     1      45.514   4.540   8.651  0.00  0.00    +0.000 C 
ATOM     15  O   UNL     1      44.716   4.852   9.788  0.00  0.00    +0.000 OA
ENDBRANCH   3  15
ENDBRANCH   2   5
ENDBRANCH   1   2
BRANCH   1  16
ATOM     16  C   UNL     1      48.586   9.164  14.149  0.00  0.00    +0.000 C 
BRANCH  16  17
ATOM     17  C   UNL     1      48.603   8.579  15.540  0.00  0.00    +0.000 A 
ATOM     18  C   UNL     1      48.095   9.297  16.623  0.00  0.00    +0.000 A 
ATOM     19  C   UNL     1      48.044   8.707  17.883  0.00  0.00    +0.000 A 
ATOM     20  C   UNL     1      48.475   7.387  18.063  0.00  0.00    +0.000 A 
ATOM     21  C   UNL     1      48.945   6.611  16.987  0.00  0.00    +0.000 A 
ATOM     22  C   UNL     1      49.021   7.253  15.736  0.00  0.00    +0.000 A 
ATOM     23  F   UNL     1      49.443   6.572  14.656  0.00  0.00    +0.000 F 
BRANCH  21  24
ATOM     24  C   UNL     1      49.245   5.166  17.151  0.00  0.00    +0.000 A 
ATOM     25  C   UNL     1      48.252   4.191  16.920  0.00  0.00    +0.000 A 
ATOM     26  C   UNL     1      48.538   2.823  16.966  0.00  0.00    +0.000 A 
ATOM     27  C   UNL     1      49.829   2.392  17.243  0.00  0.00    +0.000 A 
ATOM     28  C   UNL     1      50.826   3.328  17.501  0.00  0.00    +0.000 A 
ATOM     29  C   UNL     1      50.532   4.696  17.469  0.00  0.00    +0.000 A 
ENDBRANCH  21  24
ENDBRANCH  16  17
ENDBRANCH   1  16
TORSDOF 7
ENDMDL
MODEL 9
REMARK VINA RESULT:    -6.540      3.815      8.124
REMARK INTER + INTRA:         -10.615
REMARK INTER:                  -9.492
REMARK INTRA:                  -1.123
REMARK UNBOUND:                -1.399
REMARK  Name = 
REMARK  8 active torsions:
REMARK  status: ('A' for Active; 'I' for Inactive)
REMARK    1  A    between atoms: C_1  and  O_2
REMARK    2  A    between atoms: O_2  and  C_3
REMARK    3  A    between atoms: C_5  and  O_6
REMARK    4  A    between atoms: O_6  and  C_7
REMARK    5  A    between atoms: C_7  and  C_8
REMARK    6  A    between atoms: C_8  and  C_9
REMARK    7  A    between atoms: C_13  and  C_14
REMARK    8  A    between atoms: C_24  and  C_25
REMARK                            x       y       z     vdW  Elec       q    Type
REMARK                         _______ _______ _______ _____ _____    ______ ____
ROOT
ATOM      1  C   UNL     1      48.727   6.615  14.480  0.00  0.00    +0.000 C 
ENDROOT
BRANCH   1   2
ATOM      2  O   UNL     1      47.578   7.151  13.821  0.00  0.00    +0.000 OA
BRANCH   2   5
ATOM      3  C   UNL     1      44.788   5.511  11.963  0.00  0.00    +0.000 A 
ATOM      4  C   UNL     1      45.635   6.520  12.444  0.00  0.00    +0.000 A 
ATOM      5  C   UNL     1      46.704   6.229  13.297  0.00  0.00    +0.000 A 
ATOM      6  C   UNL     1      46.930   4.908  13.677  0.00  0.00    +0.000 A 
ATOM      7  C   UNL     1      46.104   3.890  13.200  0.00  0.00    +0.000 A 
ATOM      8  C   UNL     1      45.030   4.174  12.339  0.00  0.00    +0.000 A 
BRANCH   8   9
ATOM      9  C   UNL     1      44.229   3.004  11.862  0.00  0.00    +0.000 C 
ATOM     10  N   UNL     1      44.358   2.615  10.561  0.00  0.00    +0.000 N 
ATOM     11  O   UNL     1      43.474   2.393  12.610  0.00  0.00    +0.000 OA
ATOM     12  H   UNL     1      44.910   3.155   9.906  0.00  0.00    +0.000 HD
ATOM     13  H   UNL     1      43.788   1.854  10.225  0.00  0.00    +0.000 HD
ENDBRANCH   8   9
BRANCH   3  15
ATOM     14  C   UNL     1      42.412   5.776  11.805  0.00  0.00    +0.000 C 
ATOM     15  O   UNL     1      43.692   5.778  11.180  0.00  0.00    +0.000 OA
ENDBRANCH   3  15
ENDBRANCH   2   5
ENDBRANCH   1   2
BRANCH   1  16
ATOM     16  C   UNL     1      48.675   6.905  15.981  0.00  0.00    +0.000 C 
BRANCH  16  17
ATOM     17  C   UNL     1      48.684   5.612  16.758  0.00  0.00    +0.000 A 
ATOM     18  C   UNL     1      47.490   4.991  17.125  0.00  0.00    +0.000 A 
ATOM     19  C   UNL     1      47.519   3.757  17.769  0.00  0.00    +0.000 A 
ATOM     20  C   UNL     1      48.741   3.122  18.024  0.00  0.00    +0.000 A 
ATOM     21  C   UNL     1      49.965   3.690  17.624  0.00  0.00    +0.000 A 
ATOM     22  C   UNL     1      49.900   4.957  17.013  0.00  0.00    +0.000 A 
ATOM     23  F   UNL     1      51.026   5.555  16.585  0.00  0.00    +0.000 F 
BRANCH  21  24
ATOM     24  C   UNL     1      51.241   2.940  17.749  0.00  0.00    +0.000 A 
ATOM     25  C   UNL     1      52.357   3.515  18.391  0.00  0.00    +0.000 A 
ATOM     26  C   UNL     1      53.532   2.790  18.613  0.00  0.00    +0.000 A 
ATOM     27  C   UNL     1      53.622   1.467  18.201  0.00  0.00    +0.000 A 
ATOM     28  C   UNL     1      52.547   0.879  17.541  0.00  0.00    +0.000 A 
ATOM     29  C   UNL     1      51.378   1.612  17.307  0.00  0.00    +0.000 A 
ENDBRANCH  21  24
ENDBRANCH  16  17
ENDBRANCH   1  16
TORSDOF 7
ENDMDL
