MODEL 1
REMARK VINA RESULT:    -8.445      0.000      0.000
REMARK INTER + INTRA:         -11.079
REMARK INTER:                 -10.420
REMARK INTRA:                  -0.659
REMARK UNBOUND:                -0.659
REMARK  Name = 
REMARK  4 active torsions:
REMARK  status: ('A' for Active; 'I' for Inactive)
REMARK    1  A    between atoms: C_2  and  C_5
REMARK    2  A    between atoms: N_9  and  C_10
REMARK    3  A    between atoms: C_10  and  C_11
REMARK    4  A    between atoms: C_15  and  C_16
REMARK                            x       y       z     vdW  Elec       q    Type
REMARK                         _______ _______ _______ _____ _____    ______ ____
ROOT
ATOM      1  C   UNL     1      43.772   5.488  11.013  0.00  0.00    +0.000 C 
ENDROOT
BRANCH   1   6
ATOM      2  C   UNL     1      46.222   2.677   7.674  0.00  0.00    +0.000 A 
ATOM      3  C   UNL     1      45.661   1.902   8.659  0.00  0.00    +0.000 A 
ATOM      4  N   UNL     1      44.851   2.388   9.622  0.00  0.00    +0.000 NA
ATOM      5  C   UNL     1      44.599   3.704   9.605  0.00  0.00    +0.000 A 
ATOM      6  N   UNL     1      43.638   4.142  10.479  0.00  0.00    +0.000 N 
ATOM      7  N   UNL     1      45.154   4.550   8.729  0.00  0.00    +0.000 NA
ATOM      8  C   UNL     1      45.944   4.018   7.772  0.00  0.00    +0.000 A 
ATOM      9  H   UNL     1      43.435   3.436  11.179  0.00  0.00    +0.000 HD
BRANCH   2  11
ATOM     10  F   UNL     1      46.967   0.753   6.489  0.00  0.00    +0.000 F 
ATOM     11  C   UNL     1      47.039   2.109   6.574  0.00  0.00    +0.000 C 
ATOM     12  F   UNL     1      48.362   2.405   6.692  0.00  0.00    +0.000 F 
ATOM     13  F   UNL     1      46.662   2.575   5.351  0.00  0.00    +0.000 F 
ENDBRANCH   2  11
ENDBRANCH   1   6
BRANCH   1  14
ATOM     14  C   UNL     1      44.966   5.572  11.959  0.00  0.00    +0.000 A 
ATOM     15  N   UNL     1      45.041   4.683  12.968  0.00  0.00    +0.000 NA
ATOM     16  C   UNL     1      46.135   4.747  13.737  0.00  0.00    +0.000 A 
ATOM     17  C   UNL     1      47.146   5.664  13.555  0.00  0.00    +0.000 A 
ATOM     18  C   UNL     1      46.985   6.566  12.518  0.00  0.00    +0.000 A 
ATOM     19  N   UNL     1      45.891   6.534  11.725  0.00  0.00    +0.000 NA
BRANCH  18  20
ATOM     20  C   UNL     1      48.001   7.585  12.178  0.00  0.00    +0.000 A 
ATOM     21  C   UNL     1      47.631   8.931  11.990  0.00  0.00    +0.000 A 
ATOM     22  C   UNL     1      48.572   9.905  11.642  0.00  0.00    +0.000 A 
ATOM     23  C   UNL     1      49.908   9.555  11.479  0.00  0.00    +0.000 A 
ATOM     24  C   UNL     1      50.305   8.236  11.668  0.00  0.00    +0.000 A 
ATOM     25  C   UNL     1      49.362   7.263  12.016  0.00  0.00    +0.000 A 
ENDBRANCH  18  20
ENDBRANCH   1  14
TORSDOF 4
ENDMDL
MODEL 2
REMARK VINA RESULT:    -7.719      5.328      8.197
REMARK INTER + INTRA:         -10.183
REMARK INTER:                  -9.751
REMARK INTRA:                  -0.431
REMARK UNBOUND:                -0.659
REMARK  Name = 
REMARK  4 active torsions:
REMARK  status: ('A' for Active; 'I' for Inactive)
REMARK    1  A    between atoms: C_2  and  C_5
REMARK    2  A    between atoms: N_9  and  C_10
REMARK    3  A    between atoms: C_10  and  C_11
REMARK    4  A    between atoms: C_15  and  C_16
REMARK                            x       y       z     vdW  Elec       q    Type
REMARK                         _______ _______ _______ _____ _____    ______ ____
ROOT
ATOM      1  C   UNL     1      46.086   5.490  13.513  0.00  0.00    +0.000 C 
ENDROOT
BRANCH   1   6
ATOM      2  C   UNL     1      48.709   4.458  17.650  0.00  0.00    +0.000 A 
ATOM      3  C   UNL     1      47.688   3.557  17.471  0.00  0.00    +0.000 A 
ATOM      4  N   UNL     1      46.896   3.532  16.380  0.00  0.00    +0.000 NA
ATOM      5  C   UNL     1      47.128   4.449  15.432  0.00  0.00    +0.000 A 
ATOM      6  N   UNL     1      46.433   4.292  14.261  0.00  0.00    +0.000 N 
ATOM      7  N   UNL     1      48.054   5.411  15.546  0.00  0.00    +0.000 NA
ATOM      8  C   UNL     1      48.835   5.387  16.647  0.00  0.00    +0.000 A 
ATOM      9  H   UNL     1      45.664   3.641  14.380  0.00  0.00    +0.000 HD
BRANCH   2  11
ATOM     10  F   UNL     1      50.118   5.633  19.165  0.00  0.00    +0.000 F 
ATOM     11  C   UNL     1      49.624   4.413  18.816  0.00  0.00    +0.000 C 
ATOM     12  F   UNL     1      50.708   3.619  18.607  0.00  0.00    +0.000 F 
ATOM     13  F   UNL     1      49.018   3.927  19.936  0.00  0.00    +0.000 F 
ENDBRANCH   2  11
ENDBRANCH   1   6
BRANCH   1  14
ATOM     14  C   UNL     1      45.144   5.150  12.363  0.00  0.00    +0.000 A 
ATOM     15  N   UNL     1      43.862   5.554  12.451  0.00  0.00    +0.000 NA
ATOM     16  C   UNL     1      43.082   5.294  11.394  0.00  0.00    +0.000 A 
ATOM     17  C   UNL     1      43.518   4.639  10.264  0.00  0.00    +0.000 A 
ATOM     18  C   UNL     1      44.839   4.226  10.258  0.00  0.00    +0.000 A 
ATOM     19  N   UNL     1      45.653   4.466  11.309  0.00  0.00    +0.000 NA
BRANCH  18  20
ATOM     20  C   UNL     1      45.459   3.543   9.103  0.00  0.00    +0.000 A 
ATOM     21  C   UNL     1      45.558   2.138   9.069  0.00  0.00    +0.000 A 
ATOM     22  C   UNL     1      46.165   1.473   7.999  0.00  0.00    +0.000 A 
ATOM     23  C   UNL     1      46.683   2.200   6.932  0.00  0.00    +0.000 A 
ATOM     24  C   UNL     1      46.590   3.588   6.932  0.00  0.00    +0.000 A 
ATOM     25  C   UNL     1      45.983   4.251   8.004  0.00  0.00    +0.000 A 
ENDBRANCH  18  20
ENDBRANCH   1  14
TORSDOF 4
ENDMDL
MODEL 3
REMARK VINA RESULT:    -7.176      5.192      6.747
REMARK INTER + INTRA:          -9.513
REMARK INTER:                  -9.058
REMARK INTRA:                  -0.455
REMARK UNBOUND:                -0.659
REMARK  Name = 
REMARK  4 active torsions:
REMARK  status: ('A' for Active; 'I' for Inactive)
REMARK    1  A    between atoms: C_2  and  C_5
REMARK    2  A    between atoms: N_9  and  C_10
REMARK    3  A    between atoms: C_10  and  C_11
REMARK    4  A    between atoms: C_15  and  C_16
REMARK                            x       y       z     vdW  Elec       q    Type
REMARK                         _______ _______ _______ _____ _____    ______ ____
ROOT
ATOM      1  C   UNL     1      47.087   4.302  15.947  0.00  0.00    +0.000 C 
ENDROOT
BRANCH   1   6
ATOM      2  C   UNL     1      45.013   4.350  11.391  0.00  0.00    +0.000 A 
ATOM      3  C   UNL     1      45.218   5.625  11.857  0.00  0.00    +0.000 A 
ATOM      4  N   UNL     1      45.864   5.906  13.007  0.00  0.00    +0.000 NA
ATOM      5  C   UNL     1      46.318   4.870  13.726  0.00  0.00    +0.000 A 
ATOM      6  N   UNL     1      47.121   5.183  14.791  0.00  0.00    +0.000 N 
ATOM      7  N   UNL     1      46.107   3.590  13.389  0.00  0.00    +0.000 NA
ATOM      8  C   UNL     1      45.472   3.357  12.222  0.00  0.00    +0.000 A 
ATOM      9  H   UNL     1      47.052   6.169  15.019  0.00  0.00    +0.000 HD
BRANCH   2  11
ATOM     10  F   UNL     1      43.968   2.775   9.946  0.00  0.00    +0.000 F 
ATOM     11  C   UNL     1      44.378   4.066  10.082  0.00  0.00    +0.000 C 
ATOM     12  F   UNL     1      45.207   4.305   9.030  0.00  0.00    +0.000 F 
ATOM     13  F   UNL     1      43.271   4.829   9.863  0.00  0.00    +0.000 F 
ENDBRANCH   2  11
ENDBRANCH   1   6
BRANCH   1  14
ATOM     14  C   UNL     1      48.231   4.628  16.903  0.00  0.00    +0.000 A 
ATOM     15  N   UNL     1      48.094   5.694  17.716  0.00  0.00    +0.000 NA
ATOM     16  C   UNL     1      49.089   5.910  18.585  0.00  0.00    +0.000 A 
ATOM     17  C   UNL     1      50.216   5.123  18.670  0.00  0.00    +0.000 A 
ATOM     18  C   UNL     1      50.300   4.064  17.783  0.00  0.00    +0.000 A 
ATOM     19  N   UNL     1      49.318   3.820  16.888  0.00  0.00    +0.000 NA
BRANCH  18  20
ATOM     20  C   UNL     1      51.432   3.113  17.778  0.00  0.00    +0.000 A 
ATOM     21  C   UNL     1      51.238   1.770  17.399  0.00  0.00    +0.000 A 
ATOM     22  C   UNL     1      52.288   0.847  17.412  0.00  0.00    +0.000 A 
ATOM     23  C   UNL     1      53.562   1.249  17.802  0.00  0.00    +0.000 A 
ATOM     24  C   UNL     1      53.786   2.571  18.173  0.00  0.00    +0.000 A 
ATOM     25  C   UNL     1      52.734   3.492  18.158  0.00  0.00    +0.000 A 
ENDBRANCH  18  20
ENDBRANCH   1  14
TORSDOF 4
ENDMDL
MODEL 4
REMARK VINA RESULT:    -7.161      3.672      6.877
REMARK INTER + INTRA:          -9.495
REMARK INTER:                  -9.019
REMARK INTRA:                  -0.475
REMARK UNBOUND:                -0.659
REMARK  Name = 
REMARK  4 active torsions:
REMARK  status: ('A' for Active; 'I' for Inactive)
REMARK    1  A    between atoms: C_2  and  C_5
REMARK    2  A    between atoms: N_9  and  C_10
REMARK    3  A    between atoms: C_10  and  C_11
REMARK    4  A    between atoms: C_15  and  C_16
REMARK                            x       y       z     vdW  Elec       q    Type
REMARK                         _______ _______ _______ _____ _____    ______ ____
ROOT
ATOM      1  C   UNL     1      45.851   5.001  13.936  0.00  0.00    +0.000 C 
ENDROOT
BRANCH   1   6
ATOM      2  C   UNL     1      48.877   8.618  12.257  0.00  0.00    +0.000 A 
ATOM      3  C   UNL     1      49.585   7.648  12.923  0.00  0.00    +0.000 A 
ATOM      4  N   UNL     1      49.036   6.504  13.380  0.00  0.00    +0.000 NA
ATOM      5  C   UNL     1      47.725   6.325  13.170  0.00  0.00    +0.000 A 
ATOM      6  N   UNL     1      47.230   5.085  13.482  0.00  0.00    +0.000 N 
ATOM      7  N   UNL     1      46.938   7.243  12.593  0.00  0.00    +0.000 NA
ATOM      8  C   UNL     1      47.533   8.365  12.136  0.00  0.00    +0.000 A 
ATOM      9  H   UNL     1      47.887   4.566  14.054  0.00  0.00    +0.000 HD
BRANCH   2  11
ATOM     10  F   UNL     1      50.717   9.581  11.095  0.00  0.00    +0.000 F 
ATOM     11  C   UNL     1      49.516   9.828  11.687  0.00  0.00    +0.000 C 
ATOM     12  F   UNL     1      49.753  10.790  12.620  0.00  0.00    +0.000 F 
ATOM     13  F   UNL     1      48.749  10.421  10.729  0.00  0.00    +0.000 F 
ENDBRANCH   2  11
ENDBRANCH   1   6
BRANCH   1  14
ATOM     14  C   UNL     1      44.917   4.723  12.762  0.00  0.00    +0.000 A 
ATOM     15  N   UNL     1      43.616   5.048  12.895  0.00  0.00    +0.000 NA
ATOM     16  C   UNL     1      42.841   4.850  11.822  0.00  0.00    +0.000 A 
ATOM     17  C   UNL     1      43.299   4.331  10.632  0.00  0.00    +0.000 A 
ATOM     18  C   UNL     1      44.640   3.991  10.579  0.00  0.00    +0.000 A 
ATOM     19  N   UNL     1      45.451   4.172  11.645  0.00  0.00    +0.000 NA
BRANCH  18  20
ATOM     20  C   UNL     1      45.283   3.456   9.361  0.00  0.00    +0.000 A 
ATOM     21  C   UNL     1      45.405   2.067   9.165  0.00  0.00    +0.000 A 
ATOM     22  C   UNL     1      46.033   1.540   8.033  0.00  0.00    +0.000 A 
ATOM     23  C   UNL     1      46.552   2.394   7.064  0.00  0.00    +0.000 A 
ATOM     24  C   UNL     1      46.438   3.771   7.225  0.00  0.00    +0.000 A 
ATOM     25  C   UNL     1      45.808   4.295   8.358  0.00  0.00    +0.000 A 
ENDBRANCH  18  20
ENDBRANCH   1  14
TORSDOF 4
ENDMDL
MODEL 5
REMARK VINA RESULT:    -6.754      4.902      7.840
REMARK INTER + INTRA:          -8.992
REMARK INTER:                  -8.541
REMARK INTRA:                  -0.451
REMARK UNBOUND:                -0.659
REMARK  Name = 
REMARK  4 active torsions:
REMARK  status: ('A' for Active; 'I' for Inactive)
REMARK    1  A    between atoms: C_2  and  C_5
REMARK    2  A    between atoms: N_9  and  C_10
REMARK    3  A    between atoms: C_10  and  C_11
REMARK    4  A    between atoms: C_15  and  C_16
REMARK                            x       y       z     vdW  Elec       q    Type
REMARK                         _______ _______ _______ _____ _____    ______ ____
ROOT
ATOM      1  C   UNL     1      48.524   7.439  13.056  0.00  0.00    +0.000 C 
ENDROOT
BRANCH   1   6
ATOM      2  C   UNL     1      48.433   4.403  17.036  0.00  0.00    +0.000 A 
ATOM      3  C   UNL     1      49.077   5.581  17.324  0.00  0.00    +0.000 A 
ATOM      4  N   UNL     1      49.148   6.622  16.470  0.00  0.00    +0.000 NA
ATOM      5  C   UNL     1      48.558   6.479  15.276  0.00  0.00    +0.000 A 
ATOM      6  N   UNL     1      48.489   7.607  14.500  0.00  0.00    +0.000 N 
ATOM      7  N   UNL     1      47.966   5.345  14.877  0.00  0.00    +0.000 NA
ATOM      8  C   UNL     1      47.904   4.335  15.771  0.00  0.00    +0.000 A 
ATOM      9  H   UNL     1      49.114   8.326  14.849  0.00  0.00    +0.000 HD
BRANCH   2  11
ATOM     10  F   UNL     1      49.286   2.377  17.946  0.00  0.00    +0.000 F 
ATOM     11  C   UNL     1      48.292   3.304  18.021  0.00  0.00    +0.000 C 
ATOM     12  F   UNL     1      47.129   2.613  17.877  0.00  0.00    +0.000 F 
ATOM     13  F   UNL     1      48.301   3.751  19.307  0.00  0.00    +0.000 F 
ENDBRANCH   2  11
ENDBRANCH   1   6
BRANCH   1  14
ATOM     14  C   UNL     1      47.109   7.373  12.490  0.00  0.00    +0.000 A 
ATOM     15  N   UNL     1      46.280   8.406  12.732  0.00  0.00    +0.000 NA
ATOM     16  C   UNL     1      45.068   8.342  12.164  0.00  0.00    +0.000 A 
ATOM     17  C   UNL     1      44.644   7.291  11.382  0.00  0.00    +0.000 A 
ATOM     18  C   UNL     1      45.540   6.251  11.203  0.00  0.00    +0.000 A 
ATOM     19  N   UNL     1      46.768   6.279  11.765  0.00  0.00    +0.000 NA
BRANCH  18  20
ATOM     20  C   UNL     1      45.240   5.073  10.362  0.00  0.00    +0.000 A 
ATOM     21  C   UNL     1      44.508   3.988  10.882  0.00  0.00    +0.000 A 
ATOM     22  C   UNL     1      44.237   2.853  10.112  0.00  0.00    +0.000 A 
ATOM     23  C   UNL     1      44.688   2.779   8.798  0.00  0.00    +0.000 A 
ATOM     24  C   UNL     1      45.405   3.840   8.254  0.00  0.00    +0.000 A 
ATOM     25  C   UNL     1      45.674   4.974   9.026  0.00  0.00    +0.000 A 
ENDBRANCH  18  20
ENDBRANCH   1  14
TORSDOF 4
ENDMDL
MODEL 6
REMARK VINA RESULT:    -6.728      5.155      6.691
REMARK INTER + INTRA:          -8.960
REMARK INTER:                  -8.516
REMARK INTRA:                  -0.444
REMARK UNBOUND:                -0.659
REMARK  Name = 
REMARK  4 active torsions:
REMARK  status: ('A' for Active; 'I' for Inactive)
REMARK    1  A    between atoms: C_2  and  C_5
REMARK    2  A    between atoms: N_9  and  C_10
REMARK    3  A    between atoms: C_10  and  C_11
REMARK    4  A    between atoms: C_15  and  C_16
REMARK                            x       y       z     vdW  Elec       q    Type
REMARK                         _______ _______ _______ _____ _____    ______ ____
ROOT
ATOM      1  C   UNL     1      47.009   3.917  15.965  0.00  0.00    +0.000 C 
ENDROOT
BRANCH   1   6
ATOM      2  C   UNL     1      45.012   4.370  11.397  0.00  0.00    +0.000 A 
ATOM      3  C   UNL     1      45.156   5.595  12.000  0.00  0.00    +0.000 A 
ATOM      4  N   UNL     1      45.770   5.776  13.187  0.00  0.00    +0.000 NA
ATOM      5  C   UNL     1      46.254   4.688  13.801  0.00  0.00    +0.000 A 
ATOM      6  N   UNL     1      47.026   4.917  14.910  0.00  0.00    +0.000 N 
ATOM      7  N   UNL     1      46.102   3.445  13.326  0.00  0.00    +0.000 NA
ATOM      8  C   UNL     1      45.497   3.313  12.127  0.00  0.00    +0.000 A 
ATOM      9  H   UNL     1      46.913   5.870  15.240  0.00  0.00    +0.000 HD
BRANCH   2  11
ATOM     10  F   UNL     1      43.292   4.954   9.861  0.00  0.00    +0.000 F 
ATOM     11  C   UNL     1      44.411   4.203  10.052  0.00  0.00    +0.000 C 
ATOM     12  F   UNL     1      44.045   2.918   9.794  0.00  0.00    +0.000 F 
ATOM     13  F   UNL     1      45.266   4.554   9.051  0.00  0.00    +0.000 F 
ENDBRANCH   2  11
ENDBRANCH   1   6
BRANCH   1  14
ATOM     14  C   UNL     1      48.010   4.276  17.060  0.00  0.00    +0.000 A 
ATOM     15  N   UNL     1      49.218   3.682  17.035  0.00  0.00    +0.000 NA
ATOM     16  C   UNL     1      50.092   4.070  17.973  0.00  0.00    +0.000 A 
ATOM     17  C   UNL     1      49.809   5.010  18.938  0.00  0.00    +0.000 A 
ATOM     18  C   UNL     1      48.537   5.554  18.920  0.00  0.00    +0.000 A 
ATOM     19  N   UNL     1      47.629   5.182  17.993  0.00  0.00    +0.000 NA
BRANCH  18  20
ATOM     20  C   UNL     1      48.100   6.599  19.871  0.00  0.00    +0.000 A 
ATOM     21  C   UNL     1      48.022   6.325  21.251  0.00  0.00    +0.000 A 
ATOM     22  C   UNL     1      47.585   7.290  22.164  0.00  0.00    +0.000 A 
ATOM     23  C   UNL     1      47.221   8.556  21.717  0.00  0.00    +0.000 A 
ATOM     24  C   UNL     1      47.298   8.859  20.362  0.00  0.00    +0.000 A 
ATOM     25  C   UNL     1      47.735   7.892  19.451  0.00  0.00    +0.000 A 
ENDBRANCH  18  20
ENDBRANCH   1  14
TORSDOF 4
ENDMDL
MODEL 7
REMARK VINA RESULT:    -6.385      5.955      8.852
REMARK INTER + INTRA:          -8.538
REMARK INTER:                  -8.106
REMARK INTRA:                  -0.431
REMARK UNBOUND:                -0.659
REMARK  Name = 
REMARK  4 active torsions:
REMARK  status: ('A' for Active; 'I' for Inactive)
REMARK    1  A    between atoms: C_2  and  C_5
REMARK    2  A    between atoms: N_9  and  C_10
REMARK    3  A    between atoms: C_10  and  C_11
REMARK    4  A    between atoms: C_15  and  C_16
REMARK                            x       y       z     vdW  Elec       q    Type
REMARK                         _______ _______ _______ _____ _____    ______ ____
ROOT
ATOM      1  C   UNL     1      48.106   6.567  14.101  0.00  0.00    +0.000 C 
ENDROOT
BRANCH   1   6
ATOM      2  C   UNL     1      49.954   5.353  18.592  0.00  0.00    +0.000 A 
ATOM      3  C   UNL     1      48.586   5.234  18.569  0.00  0.00    +0.000 A 
ATOM      4  N   UNL     1      47.841   5.390  17.456  0.00  0.00    +0.000 NA
ATOM      5  C   UNL     1      48.488   5.684  16.320  0.00  0.00    +0.000 A 
ATOM      6  N   UNL     1      47.734   5.661  15.176  0.00  0.00    +0.000 N 
ATOM      7  N   UNL     1      49.811   5.887  16.256  0.00  0.00    +0.000 NA
ATOM      8  C   UNL     1      50.518   5.704  17.390  0.00  0.00    +0.000 A 
ATOM      9  H   UNL     1      46.743   5.662  15.394  0.00  0.00    +0.000 HD
BRANCH   2  11
ATOM     10  F   UNL     1      51.377   6.202  20.299  0.00  0.00    +0.000 F 
ATOM     11  C   UNL     1      50.762   5.092  19.808  0.00  0.00    +0.000 C 
ATOM     12  F   UNL     1      51.751   4.181  19.599  0.00  0.00    +0.000 F 
ATOM     13  F   UNL     1      50.015   4.600  20.835  0.00  0.00    +0.000 F 
ENDBRANCH   2  11
ENDBRANCH   1   6
BRANCH   1  14
ATOM     14  C   UNL     1      46.925   6.800  13.164  0.00  0.00    +0.000 A 
ATOM     15  N   UNL     1      46.304   7.994  13.211  0.00  0.00    +0.000 NA
ATOM     16  C   UNL     1      45.314   8.185  12.329  0.00  0.00    +0.000 A 
ATOM     17  C   UNL     1      44.909   7.237  11.416  0.00  0.00    +0.000 A 
ATOM     18  C   UNL     1      45.573   6.023  11.448  0.00  0.00    +0.000 A 
ATOM     19  N   UNL     1      46.572   5.793  12.328  0.00  0.00    +0.000 NA
BRANCH  18  20
ATOM     20  C   UNL     1      45.274   4.922  10.508  0.00  0.00    +0.000 A 
ATOM     21  C   UNL     1      45.674   5.001   9.160  0.00  0.00    +0.000 A 
ATOM     22  C   UNL     1      45.378   3.983   8.248  0.00  0.00    +0.000 A 
ATOM     23  C   UNL     1      44.677   2.857   8.666  0.00  0.00    +0.000 A 
ATOM     24  C   UNL     1      44.277   2.746   9.994  0.00  0.00    +0.000 A 
ATOM     25  C   UNL     1      44.575   3.765  10.904  0.00  0.00    +0.000 A 
ENDBRANCH  18  20
ENDBRANCH   1  14
TORSDOF 4
ENDMDL
MODEL 8
REMARK VINA RESULT:    -6.243      5.230      6.587
REMARK INTER + INTRA:          -8.362
REMARK INTER:                  -7.917
REMARK INTRA:                  -0.444
REMARK UNBOUND:                -0.659
REMARK  Name = 
REMARK  4 active torsions:
REMARK  status: ('A' for Active; 'I' for Inactive)
REMARK    1  A    between atoms: C_2  and  C_5
REMARK    2  A    between atoms: N_9  and  C_10
REMARK    3  A    between atoms: C_10  and  C_11
REMARK    4  A    between atoms: C_15  and  C_16
REMARK                            x       y       z     vdW  Elec       q    Type
REMARK                         _______ _______ _______ _____ _____    ______ ____
ROOT
ATOM      1  C   UNL     1      48.371   6.350  14.896  0.00  0.00    +0.000 C 
ENDROOT
BRANCH   1   6
ATOM      2  C   UNL     1      45.132   4.615  11.497  0.00  0.00    +0.000 A 
ATOM      3  C   UNL     1      45.379   3.679  12.470  0.00  0.00    +0.000 A 
ATOM      4  N   UNL     1      46.125   3.921  13.567  0.00  0.00    +0.000 NA
ATOM      5  C   UNL     1      46.653   5.146  13.694  0.00  0.00    +0.000 A 
ATOM      6  N   UNL     1      47.252   5.422  14.895  0.00  0.00    +0.000 N 
ATOM      7  N   UNL     1      46.525   6.103  12.765  0.00  0.00    +0.000 NA
ATOM      8  C   UNL     1      45.756   5.822  11.692  0.00  0.00    +0.000 A 
ATOM      9  H   UNL     1      47.421   4.570  15.420  0.00  0.00    +0.000 HD
BRANCH   2  11
ATOM     10  F   UNL     1      43.137   5.155  10.318  0.00  0.00    +0.000 F 
ATOM     11  C   UNL     1      44.238   4.355  10.342  0.00  0.00    +0.000 C 
ATOM     12  F   UNL     1      43.771   3.078  10.314  0.00  0.00    +0.000 F 
ATOM     13  F   UNL     1      44.861   4.550   9.146  0.00  0.00    +0.000 F 
ENDBRANCH   2  11
ENDBRANCH   1   6
BRANCH   1  14
ATOM     14  C   UNL     1      49.044   6.378  16.265  0.00  0.00    +0.000 A 
ATOM     15  N   UNL     1      50.277   5.847  16.377  0.00  0.00    +0.000 NA
ATOM     16  C   UNL     1      50.861   5.947  17.578  0.00  0.00    +0.000 A 
ATOM     17  C   UNL     1      50.267   6.538  18.671  0.00  0.00    +0.000 A 
ATOM     18  C   UNL     1      48.987   7.033  18.488  0.00  0.00    +0.000 A 
ATOM     19  N   UNL     1      48.365   6.944  17.292  0.00  0.00    +0.000 NA
BRANCH  18  20
ATOM     20  C   UNL     1      48.236   7.724  19.558  0.00  0.00    +0.000 A 
ATOM     21  C   UNL     1      47.654   8.985  19.325  0.00  0.00    +0.000 A 
ATOM     22  C   UNL     1      46.962   9.668  20.330  0.00  0.00    +0.000 A 
ATOM     23  C   UNL     1      46.833   9.101  21.594  0.00  0.00    +0.000 A 
ATOM     24  C   UNL     1      47.389   7.852  21.851  0.00  0.00    +0.000 A 
ATOM     25  C   UNL     1      48.079   7.171  20.843  0.00  0.00    +0.000 A 
ENDBRANCH  18  20
ENDBRANCH   1  14
TORSDOF 4
ENDMDL
MODEL 9
REMARK VINA RESULT:    -6.177      2.720      4.239
REMARK INTER + INTRA:          -8.281
REMARK INTER:                  -7.619
REMARK INTRA:                  -0.662
REMARK UNBOUND:                -0.659
REMARK  Name = 
REMARK  4 active torsions:
REMARK  status: ('A' for Active; 'I' for Inactive)
REMARK    1  A    between atoms: C_2  and  C_5
REMARK    2  A    between atoms: N_9  and  C_10
REMARK    3  A    between atoms: C_10  and  C_11
REMARK    4  A    between atoms: C_15  and  C_16
REMARK                            x       y       z     vdW  Elec       q    Type
REMARK                         _______ _______ _______ _____ _____    ______ ____
ROOT
ATOM      1  C   UNL     1      45.551   7.629  12.578  0.00  0.00    +0.000 C 
ENDROOT
BRANCH   1   6
ATOM      2  C   UNL     1      45.135   3.472   9.819  0.00  0.00    +0.000 A 
ATOM      3  C   UNL     1      45.017   3.193  11.158  0.00  0.00    +0.000 A 
ATOM      4  N   UNL     1      44.978   4.140  12.118  0.00  0.00    +0.000 NA
ATOM      5  C   UNL     1      45.068   5.418  11.725  0.00  0.00    +0.000 A 
ATOM      6  N   UNL     1      44.847   6.362  12.693  0.00  0.00    +0.000 N 
ATOM      7  N   UNL     1      45.255   5.785  10.450  0.00  0.00    +0.000 NA
ATOM      8  C   UNL     1      45.270   4.806   9.522  0.00  0.00    +0.000 A 
ATOM      9  H   UNL     1      44.888   5.948  13.619  0.00  0.00    +0.000 HD
BRANCH   2  11
ATOM     10  F   UNL     1      44.333   1.344   9.121  0.00  0.00    +0.000 F 
ATOM     11  C   UNL     1      45.089   2.422   8.774  0.00  0.00    +0.000 C 
ATOM     12  F   UNL     1      46.319   1.930   8.465  0.00  0.00    +0.000 F 
ATOM     13  F   UNL     1      44.565   2.876   7.601  0.00  0.00    +0.000 F 
ENDBRANCH   2  11
ENDBRANCH   1   6
BRANCH   1  14
ATOM     14  C   UNL     1      47.009   7.472  12.999  0.00  0.00    +0.000 A 
ATOM     15  N   UNL     1      47.960   7.997  12.202  0.00  0.00    +0.000 NA
ATOM     16  C   UNL     1      49.223   7.896  12.637  0.00  0.00    +0.000 A 
ATOM     17  C   UNL     1      49.578   7.285  13.819  0.00  0.00    +0.000 A 
ATOM     18  C   UNL     1      48.551   6.742  14.570  0.00  0.00    +0.000 A 
ATOM     19  N   UNL     1      47.266   6.820  14.159  0.00  0.00    +0.000 NA
BRANCH  18  20
ATOM     20  C   UNL     1      48.773   6.087  15.876  0.00  0.00    +0.000 A 
ATOM     21  C   UNL     1      49.777   6.550  16.748  0.00  0.00    +0.000 A 
ATOM     22  C   UNL     1      50.023   5.928  17.976  0.00  0.00    +0.000 A 
ATOM     23  C   UNL     1      49.263   4.829  18.363  0.00  0.00    +0.000 A 
ATOM     24  C   UNL     1      48.257   4.355  17.527  0.00  0.00    +0.000 A 
ATOM     25  C   UNL     1      48.014   4.979  16.299  0.00  0.00    +0.000 A 
ENDBRANCH  18  20
ENDBRANCH   1  14
TORSDOF 4
ENDMDL
