MODEL 1
REMARK VINA RESULT:    -7.159      0.000      0.000
REMARK INTER + INTRA:         -10.757
REMARK INTER:                 -10.088
REMARK INTRA:                  -0.669
REMARK UNBOUND:                -0.669
REMARK  Name = 
REMARK  8 active torsions:
REMARK  status: ('A' for Active; 'I' for Inactive)
REMARK    1  A    between atoms: N_1  and  C_2
REMARK    2  A    between atoms: C_2  and  C_3
REMARK    3  A    between atoms: C_7  and  C_8
REMARK    4  A    between atoms: C_8  and  C_9
REMARK    5  A    between atoms: C_9  and  O_10
REMARK    6  A    between atoms: O_10  and  C_11
REMARK    7  A    between atoms: C_15  and  C_16
REMARK    8  A    between atoms: C_16  and  N_17
REMARK                            x       y       z     vdW  Elec       q    Type
REMARK                         _______ _______ _______ _____ _____    ______ ____
ROOT
ATOM      1  C   UNL     1      43.199   3.648  11.253  0.00  0.00    +0.000 C 
ENDROOT
BRANCH   1   2
ATOM      2  C   UNL     1      43.558   3.677  12.735  0.00  0.00    +0.000 C 
BRANCH   2   7
ATOM      3  C   UNL     1      45.977   6.600  13.033  0.00  0.00    +0.000 A 
ATOM      4  C   UNL     1      47.096   5.930  13.531  0.00  0.00    +0.000 A 
ATOM      5  C   UNL     1      47.009   4.566  13.734  0.00  0.00    +0.000 A 
ATOM      6  N   UNL     1      45.902   3.840  13.482  0.00  0.00    +0.000 NA
ATOM      7  C   UNL     1      44.810   4.487  13.002  0.00  0.00    +0.000 A 
ATOM      8  C   UNL     1      44.818   5.855  12.762  0.00  0.00    +0.000 A 
BRANCH   3   9
ATOM      9  C   UNL     1      46.010   8.083  12.792  0.00  0.00    +0.000 C 
BRANCH   9  10
ATOM     10  N   UNL     1      46.601   8.789  13.921  0.00  0.00    +0.000 NA
ATOM     11  H   UNL     1      47.575   8.998  13.712  0.00  0.00    +0.000 HD
ATOM     12  H   UNL     1      46.605   8.171  14.732  0.00  0.00    +0.000 HD
ENDBRANCH   9  10
ENDBRANCH   3   9
ENDBRANCH   2   7
ENDBRANCH   1   2
BRANCH   1  13
ATOM     13  O   UNL     1      43.711   2.467  10.611  0.00  0.00    +0.000 OA
BRANCH  13  14
ATOM     14  C   UNL     1      44.591   2.812   9.597  0.00  0.00    +0.000 A 
ATOM     15  C   UNL     1      44.709   4.148   9.262  0.00  0.00    +0.000 A 
ATOM     16  C   UNL     1      45.606   4.492   8.250  0.00  0.00    +0.000 A 
ATOM     17  C   UNL     1      46.355   3.495   7.626  0.00  0.00    +0.000 A 
ATOM     18  C   UNL     1      46.182   2.176   8.030  0.00  0.00    +0.000 A 
ATOM     19  N   UNL     1      45.304   1.836   8.997  0.00  0.00    +0.000 NA
BRANCH  18  20
ATOM     20  C   UNL     1      46.993   1.046   7.441  0.00  0.00    +0.000 C 
BRANCH  20  21
ATOM     21  N   UNL     1      48.175   1.496   6.702  0.00  0.00    +0.000 NA
ATOM     22  H   UNL     1      48.906   0.797   6.841  0.00  0.00    +0.000 HD
ATOM     23  H   UNL     1      48.521   2.345   7.148  0.00  0.00    +0.000 HD
ENDBRANCH  20  21
ENDBRANCH  18  20
ENDBRANCH  13  14
ENDBRANCH   1  13
TORSDOF 8
ENDMDL
MODEL 2
REMARK VINA RESULT:    -6.826      1.733      2.661
REMARK INTER + INTRA:         -10.288
REMARK INTER:                  -9.758
REMARK INTRA:                  -0.531
REMARK UNBOUND:                -0.669
REMARK  Name = 
REMARK  8 active torsions:
REMARK  status: ('A' for Active; 'I' for Inactive)
REMARK    1  A    between atoms: N_1  and  C_2
REMARK    2  A    between atoms: C_2  and  C_3
REMARK    3  A    between atoms: C_7  and  C_8
REMARK    4  A    between atoms: C_8  and  C_9
REMARK    5  A    between atoms: C_9  and  O_10
REMARK    6  A    between atoms: O_10  and  C_11
REMARK    7  A    between atoms: C_15  and  C_16
REMARK    8  A    between atoms: C_16  and  N_17
REMARK                            x       y       z     vdW  Elec       q    Type
REMARK                         _______ _______ _______ _____ _____    ______ ____
ROOT
ATOM      1  C   UNL     1      43.781   4.123  10.099  0.00  0.00    +0.000 C 
ENDROOT
BRANCH   1   2
ATOM      2  C   UNL     1      43.680   5.304  11.059  0.00  0.00    +0.000 C 
BRANCH   2   7
ATOM      3  C   UNL     1      46.543   5.181  13.563  0.00  0.00    +0.000 A 
ATOM      4  C   UNL     1      47.412   6.101  12.973  0.00  0.00    +0.000 A 
ATOM      5  C   UNL     1      47.019   6.718  11.802  0.00  0.00    +0.000 A 
ATOM      6  N   UNL     1      45.842   6.482  11.188  0.00  0.00    +0.000 NA
ATOM      7  C   UNL     1      44.996   5.586  11.755  0.00  0.00    +0.000 A 
ATOM      8  C   UNL     1      45.311   4.929  12.938  0.00  0.00    +0.000 A 
BRANCH   3   9
ATOM      9  C   UNL     1      46.914   4.477  14.838  0.00  0.00    +0.000 C 
BRANCH   9  10
ATOM     10  N   UNL     1      47.505   3.173  14.569  0.00  0.00    +0.000 NA
ATOM     11  H   UNL     1      48.185   2.957  15.295  0.00  0.00    +0.000 HD
ATOM     12  H   UNL     1      48.025   3.220  13.693  0.00  0.00    +0.000 HD
ENDBRANCH   9  10
ENDBRANCH   3   9
ENDBRANCH   2   7
ENDBRANCH   1   2
BRANCH   1  13
ATOM     13  O   UNL     1      44.381   4.510   8.850  0.00  0.00    +0.000 OA
BRANCH  13  14
ATOM     14  C   UNL     1      45.155   3.477   8.346  0.00  0.00    +0.000 A 
ATOM     15  C   UNL     1      45.154   2.271   9.023  0.00  0.00    +0.000 A 
ATOM     16  C   UNL     1      45.924   1.229   8.505  0.00  0.00    +0.000 A 
ATOM     17  C   UNL     1      46.652   1.429   7.331  0.00  0.00    +0.000 A 
ATOM     18  C   UNL     1      46.591   2.670   6.709  0.00  0.00    +0.000 A 
ATOM     19  N   UNL     1      45.860   3.686   7.215  0.00  0.00    +0.000 NA
BRANCH  18  20
ATOM     20  C   UNL     1      47.307   2.950   5.409  0.00  0.00    +0.000 C 
BRANCH  20  21
ATOM     21  N   UNL     1      48.407   2.021   5.135  0.00  0.00    +0.000 NA
ATOM     22  H   UNL     1      48.265   1.649   4.194  0.00  0.00    +0.000 HD
ATOM     23  H   UNL     1      48.309   1.223   5.761  0.00  0.00    +0.000 HD
ENDBRANCH  20  21
ENDBRANCH  18  20
ENDBRANCH  13  14
ENDBRANCH   1  13
TORSDOF 8
ENDMDL
MODEL 3
REMARK VINA RESULT:    -6.766      1.569      6.243
REMARK INTER + INTRA:         -10.203
REMARK INTER:                  -9.695
REMARK INTRA:                  -0.509
REMARK UNBOUND:                -0.669
REMARK  Name = 
REMARK  8 active torsions:
REMARK  status: ('A' for Active; 'I' for Inactive)
REMARK    1  A    between atoms: N_1  and  C_2
REMARK    2  A    between atoms: C_2  and  C_3
REMARK    3  A    between atoms: C_7  and  C_8
REMARK    4  A    between atoms: C_8  and  C_9
REMARK    5  A    between atoms: C_9  and  O_10
REMARK    6  A    between atoms: O_10  and  C_11
REMARK    7  A    between atoms: C_15  and  C_16
REMARK    8  A    between atoms: C_16  and  N_17
REMARK                            x       y       z     vdW  Elec       q    Type
REMARK                         _______ _______ _______ _____ _____    ______ ____
ROOT
ATOM      1  C   UNL     1      43.658   3.664  11.371  0.00  0.00    +0.000 C 
ENDROOT
BRANCH   1   2
ATOM      2  C   UNL     1      43.986   2.480  10.467  0.00  0.00    +0.000 C 
BRANCH   2   7
ATOM      3  C   UNL     1      46.532   2.243   7.649  0.00  0.00    +0.000 A 
ATOM      4  C   UNL     1      46.631   3.593   7.306  0.00  0.00    +0.000 A 
ATOM      5  C   UNL     1      45.875   4.507   8.013  0.00  0.00    +0.000 A 
ATOM      6  N   UNL     1      45.041   4.173   9.018  0.00  0.00    +0.000 NA
ATOM      7  C   UNL     1      44.937   2.861   9.352  0.00  0.00    +0.000 A 
ATOM      8  C   UNL     1      45.670   1.880   8.696  0.00  0.00    +0.000 A 
BRANCH   3   9
ATOM      9  C   UNL     1      47.329   1.201   6.916  0.00  0.00    +0.000 C 
BRANCH   9  10
ATOM     10  N   UNL     1      48.458   1.796   6.212  0.00  0.00    +0.000 NA
ATOM     11  H   UNL     1      48.526   1.388   5.283  0.00  0.00    +0.000 HD
ATOM     12  H   UNL     1      49.319   1.549   6.700  0.00  0.00    +0.000 HD
ENDBRANCH   9  10
ENDBRANCH   3   9
ENDBRANCH   2   7
ENDBRANCH   1   2
BRANCH   1  13
ATOM     13  O   UNL     1      44.112   3.441  12.717  0.00  0.00    +0.000 OA
BRANCH  13  14
ATOM     14  C   UNL     1      45.183   4.272  13.010  0.00  0.00    +0.000 A 
ATOM     15  C   UNL     1      45.441   5.328  12.156  0.00  0.00    +0.000 A 
ATOM     16  C   UNL     1      46.511   6.169  12.460  0.00  0.00    +0.000 A 
ATOM     17  C   UNL     1      47.269   5.931  13.607  0.00  0.00    +0.000 A 
ATOM     18  C   UNL     1      46.937   4.851  14.417  0.00  0.00    +0.000 A 
ATOM     19  N   UNL     1      45.912   4.024  14.118  0.00  0.00    +0.000 NA
BRANCH  18  20
ATOM     20  C   UNL     1      47.675   4.557  15.701  0.00  0.00    +0.000 C 
BRANCH  20  21
ATOM     21  N   UNL     1      48.009   3.141  15.873  0.00  0.00    +0.000 NA
ATOM     22  H   UNL     1      48.989   3.024  15.609  0.00  0.00    +0.000 HD
ATOM     23  H   UNL     1      47.477   2.606  15.188  0.00  0.00    +0.000 HD
ENDBRANCH  20  21
ENDBRANCH  18  20
ENDBRANCH  13  14
ENDBRANCH   1  13
TORSDOF 8
ENDMDL
MODEL 4
REMARK VINA RESULT:    -6.687      1.346      6.338
REMARK INTER + INTRA:         -10.093
REMARK INTER:                  -9.492
REMARK INTRA:                  -0.601
REMARK UNBOUND:                -0.669
REMARK  Name = 
REMARK  8 active torsions:
REMARK  status: ('A' for Active; 'I' for Inactive)
REMARK    1  A    between atoms: N_1  and  C_2
REMARK    2  A    between atoms: C_2  and  C_3
REMARK    3  A    between atoms: C_7  and  C_8
REMARK    4  A    between atoms: C_8  and  C_9
REMARK    5  A    between atoms: C_9  and  O_10
REMARK    6  A    between atoms: O_10  and  C_11
REMARK    7  A    between atoms: C_15  and  C_16
REMARK    8  A    between atoms: C_16  and  N_17
REMARK                            x       y       z     vdW  Elec       q    Type
REMARK                         _______ _______ _______ _____ _____    ______ ____
ROOT
ATOM      1  C   UNL     1      43.468   3.793  11.415  0.00  0.00    +0.000 C 
ENDROOT
BRANCH   1   2
ATOM      2  C   UNL     1      43.984   2.564  10.673  0.00  0.00    +0.000 C 
BRANCH   2   7
ATOM      3  C   UNL     1      46.428   2.297   7.768  0.00  0.00    +0.000 A 
ATOM      4  C   UNL     1      46.555   3.649   7.442  0.00  0.00    +0.000 A 
ATOM      5  C   UNL     1      45.850   4.573   8.188  0.00  0.00    +0.000 A 
ATOM      6  N   UNL     1      45.040   4.248   9.214  0.00  0.00    +0.000 NA
ATOM      7  C   UNL     1      44.909   2.935   9.532  0.00  0.00    +0.000 A 
ATOM      8  C   UNL     1      45.591   1.944   8.839  0.00  0.00    +0.000 A 
BRANCH   3   9
ATOM      9  C   UNL     1      47.170   1.244   6.995  0.00  0.00    +0.000 C 
BRANCH   9  10
ATOM     10  N   UNL     1      48.438   1.754   6.489  0.00  0.00    +0.000 NA
ATOM     11  H   UNL     1      48.338   1.979   5.502  0.00  0.00    +0.000 HD
ATOM     12  H   UNL     1      49.138   1.015   6.548  0.00  0.00    +0.000 HD
ENDBRANCH   9  10
ENDBRANCH   3   9
ENDBRANCH   2   7
ENDBRANCH   1   2
BRANCH   1  13
ATOM     13  O   UNL     1      43.999   3.864  12.750  0.00  0.00    +0.000 OA
BRANCH  13  14
ATOM     14  C   UNL     1      44.888   4.922  12.859  0.00  0.00    +0.000 A 
ATOM     15  C   UNL     1      46.114   4.685  13.454  0.00  0.00    +0.000 A 
ATOM     16  C   UNL     1      47.011   5.748  13.551  0.00  0.00    +0.000 A 
ATOM     17  C   UNL     1      46.655   6.998  13.041  0.00  0.00    +0.000 A 
ATOM     18  C   UNL     1      45.406   7.148  12.451  0.00  0.00    +0.000 A 
ATOM     19  N   UNL     1      44.528   6.126  12.368  0.00  0.00    +0.000 NA
BRANCH  18  20
ATOM     20  C   UNL     1      44.966   8.453  11.829  0.00  0.00    +0.000 C 
BRANCH  20  21
ATOM     21  N   UNL     1      44.824   9.544  12.796  0.00  0.00    +0.000 NA
ATOM     22  H   UNL     1      44.421  10.341  12.300  0.00  0.00    +0.000 HD
ATOM     23  H   UNL     1      45.758   9.841  13.075  0.00  0.00    +0.000 HD
ENDBRANCH  20  21
ENDBRANCH  18  20
ENDBRANCH  13  14
ENDBRANCH   1  13
TORSDOF 8
ENDMDL
MODEL 5
REMARK VINA RESULT:    -6.369      4.478      6.488
REMARK INTER + INTRA:          -9.645
REMARK INTER:                  -9.263
REMARK INTRA:                  -0.381
REMARK UNBOUND:                -0.669
REMARK  Name = 
REMARK  8 active torsions:
REMARK  status: ('A' for Active; 'I' for Inactive)
REMARK    1  A    between atoms: N_1  and  C_2
REMARK    2  A    between atoms: C_2  and  C_3
REMARK    3  A    between atoms: C_7  and  C_8
REMARK    4  A    between atoms: C_8  and  C_9
REMARK    5  A    between atoms: C_9  and  O_10
REMARK    6  A    between atoms: O_10  and  C_11
REMARK    7  A    between atoms: C_15  and  C_16
REMARK    8  A    between atoms: C_16  and  N_17
REMARK                            x       y       z     vdW  Elec       q    Type
REMARK                         _______ _______ _______ _____ _____    ______ ____
ROOT
ATOM      1  C   UNL     1      47.339   3.933  15.715  0.00  0.00    +0.000 C 
ENDROOT
BRANCH   1   2
ATOM      2  C   UNL     1      47.854   3.094  16.880  0.00  0.00    +0.000 C 
BRANCH   2   7
ATOM      3  C   UNL     1      51.542   2.529  17.627  0.00  0.00    +0.000 A 
ATOM      4  C   UNL     1      51.986   3.853  17.636  0.00  0.00    +0.000 A 
ATOM      5  C   UNL     1      51.064   4.857  17.410  0.00  0.00    +0.000 A 
ATOM      6  N   UNL     1      49.756   4.634  17.176  0.00  0.00    +0.000 NA
ATOM      7  C   UNL     1      49.320   3.349  17.161  0.00  0.00    +0.000 A 
ATOM      8  C   UNL     1      50.181   2.283  17.390  0.00  0.00    +0.000 A 
BRANCH   3   9
ATOM      9  C   UNL     1      52.497   1.394  17.867  0.00  0.00    +0.000 C 
BRANCH   9  10
ATOM     10  N   UNL     1      51.783   0.157  18.159  0.00  0.00    +0.000 NA
ATOM     11  H   UNL     1      51.699  -0.390  17.304  0.00  0.00    +0.000 HD
ATOM     12  H   UNL     1      50.833   0.384  18.452  0.00  0.00    +0.000 HD
ENDBRANCH   9  10
ENDBRANCH   3   9
ENDBRANCH   2   7
ENDBRANCH   1   2
BRANCH   1  13
ATOM     13  O   UNL     1      47.348   3.188  14.485  0.00  0.00    +0.000 OA
BRANCH  13  14
ATOM     14  C   UNL     1      46.616   3.852  13.513  0.00  0.00    +0.000 A 
ATOM     15  C   UNL     1      46.847   5.204  13.332  0.00  0.00    +0.000 A 
ATOM     16  C   UNL     1      46.118   5.866  12.344  0.00  0.00    +0.000 A 
ATOM     17  C   UNL     1      45.200   5.153  11.572  0.00  0.00    +0.000 A 
ATOM     18  C   UNL     1      45.034   3.794  11.814  0.00  0.00    +0.000 A 
ATOM     19  N   UNL     1      45.726   3.152  12.779  0.00  0.00    +0.000 NA
BRANCH  18  20
ATOM     20  C   UNL     1      44.100   2.942  10.988  0.00  0.00    +0.000 C 
BRANCH  20  21
ATOM     21  N   UNL     1      43.223   2.087  11.791  0.00  0.00    +0.000 NA
ATOM     22  H   UNL     1      42.918   1.316  11.194  0.00  0.00    +0.000 HD
ATOM     23  H   UNL     1      42.379   2.615  12.006  0.00  0.00    +0.000 HD
ENDBRANCH  20  21
ENDBRANCH  18  20
ENDBRANCH  13  14
ENDBRANCH   1  13
TORSDOF 8
ENDMDL
MODEL 6
REMARK VINA RESULT:    -5.743      4.281      6.041
REMARK INTER + INTRA:          -8.762
REMARK INTER:                  -8.365
REMARK INTRA:                  -0.397
REMARK UNBOUND:                -0.669
REMARK  Name = 
REMARK  8 active torsions:
REMARK  status: ('A' for Active; 'I' for Inactive)
REMARK    1  A    between atoms: N_1  and  C_2
REMARK    2  A    between atoms: C_2  and  C_3
REMARK    3  A    between atoms: C_7  and  C_8
REMARK    4  A    between atoms: C_8  and  C_9
REMARK    5  A    between atoms: C_9  and  O_10
REMARK    6  A    between atoms: O_10  and  C_11
REMARK    7  A    between atoms: C_15  and  C_16
REMARK    8  A    between atoms: C_16  and  N_17
REMARK                            x       y       z     vdW  Elec       q    Type
REMARK                         _______ _______ _______ _____ _____    ______ ____
ROOT
ATOM      1  C   UNL     1      47.333   4.081  15.606  0.00  0.00    +0.000 C 
ENDROOT
BRANCH   1   2
ATOM      2  C   UNL     1      47.565   3.162  16.802  0.00  0.00    +0.000 C 
BRANCH   2   7
ATOM      3  C   UNL     1      51.036   3.885  18.186  0.00  0.00    +0.000 A 
ATOM      4  C   UNL     1      51.703   2.734  17.763  0.00  0.00    +0.000 A 
ATOM      5  C   UNL     1      50.995   1.792  17.043  0.00  0.00    +0.000 A 
ATOM      6  N   UNL     1      49.690   1.914  16.726  0.00  0.00    +0.000 NA
ATOM      7  C   UNL     1      49.036   3.029  17.140  0.00  0.00    +0.000 A 
ATOM      8  C   UNL     1      49.678   4.029  17.859  0.00  0.00    +0.000 A 
BRANCH   3   9
ATOM      9  C   UNL     1      51.752   4.947  18.972  0.00  0.00    +0.000 C 
BRANCH   9  10
ATOM     10  N   UNL     1      50.976   6.180  19.023  0.00  0.00    +0.000 NA
ATOM     11  H   UNL     1      50.408   6.184  19.867  0.00  0.00    +0.000 HD
ATOM     12  H   UNL     1      50.326   6.194  18.237  0.00  0.00    +0.000 HD
ENDBRANCH   9  10
ENDBRANCH   3   9
ENDBRANCH   2   7
ENDBRANCH   1   2
BRANCH   1  13
ATOM     13  O   UNL     1      47.309   3.343  14.372  0.00  0.00    +0.000 OA
BRANCH  13  14
ATOM     14  C   UNL     1      46.544   4.009  13.427  0.00  0.00    +0.000 A 
ATOM     15  C   UNL     1      46.952   5.268  13.027  0.00  0.00    +0.000 A 
ATOM     16  C   UNL     1      46.186   5.929  12.066  0.00  0.00    +0.000 A 
ATOM     17  C   UNL     1      45.057   5.304  11.536  0.00  0.00    +0.000 A 
ATOM     18  C   UNL     1      44.722   4.032  11.987  0.00  0.00    +0.000 A 
ATOM     19  N   UNL     1      45.450   3.395  12.929  0.00  0.00    +0.000 NA
BRANCH  18  20
ATOM     20  C   UNL     1      43.547   3.268  11.426  0.00  0.00    +0.000 C 
BRANCH  20  21
ATOM     21  N   UNL     1      43.355   1.953  12.043  0.00  0.00    +0.000 NA
ATOM     22  H   UNL     1      42.666   2.063  12.789  0.00  0.00    +0.000 HD
ATOM     23  H   UNL     1      44.224   1.694  12.510  0.00  0.00    +0.000 HD
ENDBRANCH  20  21
ENDBRANCH  18  20
ENDBRANCH  13  14
ENDBRANCH   1  13
TORSDOF 8
ENDMDL
MODEL 7
REMARK VINA RESULT:    -5.709      3.547      7.191
REMARK INTER + INTRA:          -8.715
REMARK INTER:                  -8.293
REMARK INTRA:                  -0.422
REMARK UNBOUND:                -0.669
REMARK  Name = 
REMARK  8 active torsions:
REMARK  status: ('A' for Active; 'I' for Inactive)
REMARK    1  A    between atoms: N_1  and  C_2
REMARK    2  A    between atoms: C_2  and  C_3
REMARK    3  A    between atoms: C_7  and  C_8
REMARK    4  A    between atoms: C_8  and  C_9
REMARK    5  A    between atoms: C_9  and  O_10
REMARK    6  A    between atoms: O_10  and  C_11
REMARK    7  A    between atoms: C_15  and  C_16
REMARK    8  A    between atoms: C_16  and  N_17
REMARK                            x       y       z     vdW  Elec       q    Type
REMARK                         _______ _______ _______ _____ _____    ______ ____
ROOT
ATOM      1  C   UNL     1      47.277   4.662  13.999  0.00  0.00    +0.000 C 
ENDROOT
BRANCH   1   2
ATOM      2  C   UNL     1      46.404   5.799  13.477  0.00  0.00    +0.000 C 
BRANCH   2   7
ATOM      3  C   UNL     1      44.126   4.073  10.964  0.00  0.00    +0.000 A 
ATOM      4  C   UNL     1      42.885   4.345  11.545  0.00  0.00    +0.000 A 
ATOM      5  C   UNL     1      42.855   5.081  12.714  0.00  0.00    +0.000 A 
ATOM      6  N   UNL     1      43.955   5.553  13.332  0.00  0.00    +0.000 NA
ATOM      7  C   UNL     1      45.163   5.287  12.774  0.00  0.00    +0.000 A 
ATOM      8  C   UNL     1      45.281   4.563  11.595  0.00  0.00    +0.000 A 
BRANCH   3   9
ATOM      9  C   UNL     1      44.225   3.278   9.693  0.00  0.00    +0.000 C 
BRANCH   9  10
ATOM     10  N   UNL     1      44.294   4.151   8.528  0.00  0.00    +0.000 NA
ATOM     11  H   UNL     1      45.228   4.551   8.465  0.00  0.00    +0.000 HD
ATOM     12  H   UNL     1      43.653   4.932   8.662  0.00  0.00    +0.000 HD
ENDBRANCH   9  10
ENDBRANCH   3   9
ENDBRANCH   2   7
ENDBRANCH   1   2
BRANCH   1  13
ATOM     13  O   UNL     1      46.619   3.933  15.049  0.00  0.00    +0.000 OA
BRANCH  13  14
ATOM     14  C   UNL     1      47.443   3.836  16.159  0.00  0.00    +0.000 A 
ATOM     15  C   UNL     1      47.126   4.590  17.275  0.00  0.00    +0.000 A 
ATOM     16  C   UNL     1      47.950   4.480  18.394  0.00  0.00    +0.000 A 
ATOM     17  C   UNL     1      49.046   3.616  18.361  0.00  0.00    +0.000 A 
ATOM     18  C   UNL     1      49.288   2.888  17.202  0.00  0.00    +0.000 A 
ATOM     19  N   UNL     1      48.503   3.003  16.110  0.00  0.00    +0.000 NA
BRANCH  18  20
ATOM     20  C   UNL     1      50.421   1.894  17.104  0.00  0.00    +0.000 C 
BRANCH  20  21
ATOM     21  N   UNL     1      51.568   2.228  17.951  0.00  0.00    +0.000 NA
ATOM     22  H   UNL     1      52.077   2.986  17.492  0.00  0.00    +0.000 HD
ATOM     23  H   UNL     1      52.205   1.432  17.949  0.00  0.00    +0.000 HD
ENDBRANCH  20  21
ENDBRANCH  18  20
ENDBRANCH  13  14
ENDBRANCH   1  13
TORSDOF 8
ENDMDL
MODEL 8
REMARK VINA RESULT:    -5.695      3.290      7.306
REMARK INTER + INTRA:          -8.695
REMARK INTER:                  -8.250
REMARK INTRA:                  -0.445
REMARK UNBOUND:                -0.669
REMARK  Name = 
REMARK  8 active torsions:
REMARK  status: ('A' for Active; 'I' for Inactive)
REMARK    1  A    between atoms: N_1  and  C_2
REMARK    2  A    between atoms: C_2  and  C_3
REMARK    3  A    between atoms: C_7  and  C_8
REMARK    4  A    between atoms: C_8  and  C_9
REMARK    5  A    between atoms: C_9  and  O_10
REMARK    6  A    between atoms: O_10  and  C_11
REMARK    7  A    between atoms: C_15  and  C_16
REMARK    8  A    between atoms: C_16  and  N_17
REMARK                            x       y       z     vdW  Elec       q    Type
REMARK                         _______ _______ _______ _____ _____    ______ ____
ROOT
ATOM      1  C   UNL     1      47.540   5.701  13.508  0.00  0.00    +0.000 C 
ENDROOT
BRANCH   1   2
ATOM      2  C   UNL     1      46.442   6.640  13.018  0.00  0.00    +0.000 C 
BRANCH   2   7
ATOM      3  C   UNL     1      44.236   4.705  10.595  0.00  0.00    +0.000 A 
ATOM      4  C   UNL     1      43.124   4.486  11.412  0.00  0.00    +0.000 A 
ATOM      5  C   UNL     1      43.146   4.986  12.699  0.00  0.00    +0.000 A 
ATOM      6  N   UNL     1      44.183   5.673  13.219  0.00  0.00    +0.000 NA
ATOM      7  C   UNL     1      45.267   5.885  12.431  0.00  0.00    +0.000 A 
ATOM      8  C   UNL     1      45.321   5.424  11.122  0.00  0.00    +0.000 A 
BRANCH   3   9
ATOM      9  C   UNL     1      44.271   4.186   9.185  0.00  0.00    +0.000 C 
BRANCH   9  10
ATOM     10  N   UNL     1      45.399   4.740   8.447  0.00  0.00    +0.000 NA
ATOM     11  H   UNL     1      46.232   4.704   9.031  0.00  0.00    +0.000 HD
ATOM     12  H   UNL     1      45.220   5.727   8.261  0.00  0.00    +0.000 HD
ENDBRANCH   9  10
ENDBRANCH   3   9
ENDBRANCH   2   7
ENDBRANCH   1   2
BRANCH   1  13
ATOM     13  O   UNL     1      48.627   6.428  14.106  0.00  0.00    +0.000 OA
BRANCH  13  14
ATOM     14  C   UNL     1      48.604   6.285  15.484  0.00  0.00    +0.000 A 
ATOM     15  C   UNL     1      48.823   7.409  16.260  0.00  0.00    +0.000 A 
ATOM     16  C   UNL     1      48.785   7.264  17.647  0.00  0.00    +0.000 A 
ATOM     17  C   UNL     1      48.519   6.012  18.201  0.00  0.00    +0.000 A 
ATOM     18  C   UNL     1      48.302   4.935  17.349  0.00  0.00    +0.000 A 
ATOM     19  N   UNL     1      48.353   5.067  16.007  0.00  0.00    +0.000 NA
BRANCH  18  20
ATOM     20  C   UNL     1      47.956   3.560  17.869  0.00  0.00    +0.000 C 
BRANCH  20  21
ATOM     21  N   UNL     1      46.595   3.134  17.538  0.00  0.00    +0.000 NA
ATOM     22  H   UNL     1      46.662   2.222  17.082  0.00  0.00    +0.000 HD
ATOM     23  H   UNL     1      46.230   3.767  16.828  0.00  0.00    +0.000 HD
ENDBRANCH  20  21
ENDBRANCH  18  20
ENDBRANCH  13  14
ENDBRANCH   1  13
TORSDOF 8
ENDMDL
MODEL 9
REMARK VINA RESULT:    -5.383      3.802      7.652
REMARK INTER + INTRA:          -8.254
REMARK INTER:                  -7.913
REMARK INTRA:                  -0.342
REMARK UNBOUND:                -0.669
REMARK  Name = 
REMARK  8 active torsions:
REMARK  status: ('A' for Active; 'I' for Inactive)
REMARK    1  A    between atoms: N_1  and  C_2
REMARK    2  A    between atoms: C_2  and  C_3
REMARK    3  A    between atoms: C_7  and  C_8
REMARK    4  A    between atoms: C_8  and  C_9
REMARK    5  A    between atoms: C_9  and  O_10
REMARK    6  A    between atoms: O_10  and  C_11
REMARK    7  A    between atoms: C_15  and  C_16
REMARK    8  A    between atoms: C_16  and  N_17
REMARK                            x       y       z     vdW  Elec       q    Type
REMARK                         _______ _______ _______ _____ _____    ______ ____
ROOT
ATOM      1  C   UNL     1      47.098   5.081  14.075  0.00  0.00    +0.000 C 
ENDROOT
BRANCH   1   2
ATOM      2  C   UNL     1      46.437   6.168  13.233  0.00  0.00    +0.000 C 
BRANCH   2   7
ATOM      3  C   UNL     1      44.204   4.723  10.510  0.00  0.00    +0.000 A 
ATOM      4  C   UNL     1      42.988   4.691  11.195  0.00  0.00    +0.000 A 
ATOM      5  C   UNL     1      42.956   5.148  12.498  0.00  0.00    +0.000 A 
ATOM      6  N   UNL     1      44.033   5.623  13.153  0.00  0.00    +0.000 NA
ATOM      7  C   UNL     1      45.219   5.652  12.494  0.00  0.00    +0.000 A 
ATOM      8  C   UNL     1      45.335   5.220  11.179  0.00  0.00    +0.000 A 
BRANCH   3   9
ATOM      9  C   UNL     1      44.304   4.240   9.091  0.00  0.00    +0.000 C 
BRANCH   9  10
ATOM     10  N   UNL     1      44.260   2.784   9.024  0.00  0.00    +0.000 NA
ATOM     11  H   UNL     1      44.061   2.499   8.068  0.00  0.00    +0.000 HD
ATOM     12  H   UNL     1      43.483   2.451   9.593  0.00  0.00    +0.000 HD
ENDBRANCH   9  10
ENDBRANCH   3   9
ENDBRANCH   2   7
ENDBRANCH   1   2
BRANCH   1  13
ATOM     13  O   UNL     1      48.060   5.636  14.989  0.00  0.00    +0.000 OA
BRANCH  13  14
ATOM     14  C   UNL     1      48.222   4.802  16.084  0.00  0.00    +0.000 A 
ATOM     15  C   UNL     1      47.200   3.921  16.390  0.00  0.00    +0.000 A 
ATOM     16  C   UNL     1      47.373   3.074  17.485  0.00  0.00    +0.000 A 
ATOM     17  C   UNL     1      48.558   3.131  18.219  0.00  0.00    +0.000 A 
ATOM     18  C   UNL     1      49.538   4.040  17.839  0.00  0.00    +0.000 A 
ATOM     19  N   UNL     1      49.370   4.873  16.790  0.00  0.00    +0.000 NA
BRANCH  18  20
ATOM     20  C   UNL     1      50.868   4.126  18.549  0.00  0.00    +0.000 C 
BRANCH  20  21
ATOM     21  N   UNL     1      50.751   4.429  19.977  0.00  0.00    +0.000 NA
ATOM     22  H   UNL     1      51.288   3.724  20.485  0.00  0.00    +0.000 HD
ATOM     23  H   UNL     1      49.780   4.282  20.252  0.00  0.00    +0.000 HD
ENDBRANCH  20  21
ENDBRANCH  18  20
ENDBRANCH  13  14
ENDBRANCH   1  13
TORSDOF 8
ENDMDL
