MODEL 1
REMARK VINA RESULT:    -7.924      0.000      0.000
REMARK INTER + INTRA:         -10.507
REMARK INTER:                 -10.241
REMARK INTRA:                  -0.267
REMARK UNBOUND:                -0.267
REMARK  Name = 
REMARK  5 active torsions:
REMARK  status: ('A' for Active; 'I' for Inactive)
REMARK    1  A    between atoms: C_2  and  C_3
REMARK    2  A    between atoms: C_6  and  O_7
REMARK    3  A    between atoms: O_7  and  C_8
REMARK    4  A    between atoms: C_8  and  C_9
REMARK    5  A    between atoms: C_14  and  C_15
REMARK                            x       y       z     vdW  Elec       q    Type
REMARK                         _______ _______ _______ _____ _____    ______ ____
ROOT
ATOM      1  C   UNL     1      45.042   4.981  12.128  0.00  0.00    +0.000 A 
ATOM      2  C   UNL     1      45.519   3.918  12.902  0.00  0.00    +0.000 A 
ATOM      3  C   UNL     1      46.763   3.988  13.513  0.00  0.00    +0.000 A 
ATOM      4  F   UNL     1      47.206   2.945  14.226  0.00  0.00    +0.000 F 
ATOM      5  C   UNL     1      47.571   5.109  13.379  0.00  0.00    +0.000 A 
ATOM      6  C   UNL     1      47.151   6.214  12.625  0.00  0.00    +0.000 A 
ATOM      7  C   UNL     1      45.872   6.132  12.026  0.00  0.00    +0.000 A 
ENDROOT
BRANCH   6   8
ATOM      8  C   UNL     1      48.029   7.467  12.467  0.00  0.00    +0.000 C 
ATOM      9  C   UNL     1      49.339   7.417  13.281  0.00  0.00    +0.000 C 
ATOM     10  C   UNL     1      49.101   7.654  14.772  0.00  0.00    +0.000 C 
ATOM     11  C   UNL     1      48.253   8.899  15.046  0.00  0.00    +0.000 C 
ATOM     12  N   UNL     1      47.043   8.956  14.232  0.00  0.00    +0.000 NA
ATOM     13  C   UNL     1      47.336   8.818  12.800  0.00  0.00    +0.000 C 
ATOM     14  H   UNL     1      46.550   9.831  14.407  0.00  0.00    +0.000 HD
ENDBRANCH   6   8
BRANCH   1  15
ATOM     15  C   UNL     1      43.732   4.827  11.349  0.00  0.00    +0.000 C 
ATOM     16  C   UNL     1      42.441   5.385  11.919  0.00  0.00    +0.000 C 
ATOM     17  C   UNL     1      43.073   6.038  10.731  0.00  0.00    +0.000 C 
BRANCH  15  18
ATOM     18  O   UNL     1      43.471   3.532  10.731  0.00  0.00    +0.000 OA
BRANCH  18  22
ATOM     19  C   UNL     1      46.185   2.579   7.920  0.00  0.00    +0.000 A 
ATOM     20  C   UNL     1      45.790   3.896   8.084  0.00  0.00    +0.000 A 
ATOM     21  N   UNL     1      44.827   4.258   8.957  0.00  0.00    +0.000 NA
ATOM     22  C   UNL     1      44.303   3.243   9.680  0.00  0.00    +0.000 A 
ATOM     23  C   UNL     1      44.632   1.912   9.459  0.00  0.00    +0.000 A 
ATOM     24  N   UNL     1      45.586   1.546   8.572  0.00  0.00    +0.000 NA
BRANCH  19  26
ATOM     25  N   UNL     1      48.260   1.949   6.508  0.00  0.00    +0.000 NA
ATOM     26  C   UNL     1      47.330   2.272   7.133  0.00  0.00    +0.000 C 
ENDBRANCH  19  26
ENDBRANCH  18  22
ENDBRANCH  15  18
ENDBRANCH   1  15
TORSDOF 5
ENDMDL
MODEL 2
REMARK VINA RESULT:    -7.194      2.305      2.975
REMARK INTER + INTRA:          -9.563
REMARK INTER:                  -9.026
REMARK INTRA:                  -0.537
REMARK UNBOUND:                -0.267
REMARK  Name = 
REMARK  5 active torsions:
REMARK  status: ('A' for Active; 'I' for Inactive)
REMARK    1  A    between atoms: C_2  and  C_3
REMARK    2  A    between atoms: C_6  and  O_7
REMARK    3  A    between atoms: O_7  and  C_8
REMARK    4  A    between atoms: C_8  and  C_9
REMARK    5  A    between atoms: C_14  and  C_15
REMARK                            x       y       z     vdW  Elec       q    Type
REMARK                         _______ _______ _______ _____ _____    ______ ____
ROOT
ATOM      1  C   UNL     1      44.743   6.725  12.058  0.00  0.00    +0.000 A 
ATOM      2  C   UNL     1      44.213   7.859  11.432  0.00  0.00    +0.000 A 
ATOM      3  C   UNL     1      44.814   9.100  11.586  0.00  0.00    +0.000 A 
ATOM      4  F   UNL     1      44.269  10.172  10.996  0.00  0.00    +0.000 F 
ATOM      5  C   UNL     1      45.955   9.258  12.360  0.00  0.00    +0.000 A 
ATOM      6  C   UNL     1      46.544   8.164  13.009  0.00  0.00    +0.000 A 
ATOM      7  C   UNL     1      45.929   6.903  12.824  0.00  0.00    +0.000 A 
ENDROOT
BRANCH   6   8
ATOM      8  C   UNL     1      47.811   8.316  13.868  0.00  0.00    +0.000 C 
ATOM      9  C   UNL     1      48.757   9.438  13.388  0.00  0.00    +0.000 C 
ATOM     10  C   UNL     1      49.539   9.036  12.136  0.00  0.00    +0.000 C 
ATOM     11  C   UNL     1      50.219   7.672  12.275  0.00  0.00    +0.000 C 
ATOM     12  N   UNL     1      49.323   6.635  12.777  0.00  0.00    +0.000 NA
ATOM     13  C   UNL     1      48.670   7.032  14.031  0.00  0.00    +0.000 C 
ATOM     14  H   UNL     1      49.840   5.766  12.910  0.00  0.00    +0.000 HD
ENDBRANCH   6   8
BRANCH   1  15
ATOM     15  C   UNL     1      43.986   5.395  11.990  0.00  0.00    +0.000 C 
ATOM     16  C   UNL     1      42.938   5.066  13.037  0.00  0.00    +0.000 C 
ATOM     17  C   UNL     1      42.517   5.379  11.636  0.00  0.00    +0.000 C 
BRANCH  15  18
ATOM     18  O   UNL     1      44.763   4.199  11.688  0.00  0.00    +0.000 OA
BRANCH  18  22
ATOM     19  C   UNL     1      45.732   3.409   7.864  0.00  0.00    +0.000 A 
ATOM     20  C   UNL     1      45.900   4.686   8.373  0.00  0.00    +0.000 A 
ATOM     21  N   UNL     1      45.518   5.022   9.623  0.00  0.00    +0.000 NA
ATOM     22  C   UNL     1      44.990   4.011  10.348  0.00  0.00    +0.000 A 
ATOM     23  C   UNL     1      44.739   2.753   9.816  0.00  0.00    +0.000 A 
ATOM     24  N   UNL     1      45.107   2.420   8.557  0.00  0.00    +0.000 NA
BRANCH  19  26
ATOM     25  N   UNL     1      46.851   2.824   5.606  0.00  0.00    +0.000 NA
ATOM     26  C   UNL     1      46.322   3.055   6.619  0.00  0.00    +0.000 C 
ENDBRANCH  19  26
ENDBRANCH  18  22
ENDBRANCH  15  18
ENDBRANCH   1  15
TORSDOF 5
ENDMDL
MODEL 3
REMARK VINA RESULT:    -6.836      1.971      2.653
REMARK INTER + INTRA:          -9.101
REMARK INTER:                  -9.619
REMARK INTRA:                   0.518
REMARK UNBOUND:                -0.267
REMARK  Name = 
REMARK  5 active torsions:
REMARK  status: ('A' for Active; 'I' for Inactive)
REMARK    1  A    between atoms: C_2  and  C_3
REMARK    2  A    between atoms: C_6  and  O_7
REMARK    3  A    between atoms: O_7  and  C_8
REMARK    4  A    between atoms: C_8  and  C_9
REMARK    5  A    between atoms: C_14  and  C_15
REMARK                            x       y       z     vdW  Elec       q    Type
REMARK                         _______ _______ _______ _____ _____    ______ ____
ROOT
ATOM      1  C   UNL     1      44.799   5.643  11.350  0.00  0.00    +0.000 A 
ATOM      2  C   UNL     1      43.909   6.716  11.226  0.00  0.00    +0.000 A 
ATOM      3  C   UNL     1      44.346   8.022  11.388  0.00  0.00    +0.000 A 
ATOM      4  F   UNL     1      43.465   9.027  11.290  0.00  0.00    +0.000 F 
ATOM      5  C   UNL     1      45.673   8.309  11.674  0.00  0.00    +0.000 A 
ATOM      6  C   UNL     1      46.621   7.285  11.803  0.00  0.00    +0.000 A 
ATOM      7  C   UNL     1      46.161   5.960  11.616  0.00  0.00    +0.000 A 
ENDROOT
BRANCH   6   8
ATOM      8  C   UNL     1      48.097   7.581  12.116  0.00  0.00    +0.000 C 
ATOM      9  C   UNL     1      48.723   6.614  13.143  0.00  0.00    +0.000 C 
ATOM     10  C   UNL     1      48.262   6.910  14.570  0.00  0.00    +0.000 C 
ATOM     11  C   UNL     1      48.410   8.387  14.945  0.00  0.00    +0.000 C 
ATOM     12  N   UNL     1      47.857   9.290  13.940  0.00  0.00    +0.000 NA
ATOM     13  C   UNL     1      48.404   9.024  12.603  0.00  0.00    +0.000 C 
ATOM     14  H   UNL     1      48.038  10.257  14.208  0.00  0.00    +0.000 HD
ENDBRANCH   6   8
BRANCH   1  15
ATOM     15  C   UNL     1      44.271   4.207  11.309  0.00  0.00    +0.000 C 
ATOM     16  C   UNL     1      44.959   3.122  12.117  0.00  0.00    +0.000 C 
ATOM     17  C   UNL     1      43.607   3.610  12.529  0.00  0.00    +0.000 C 
BRANCH  15  18
ATOM     18  O   UNL     1      43.886   3.673  10.008  0.00  0.00    +0.000 OA
BRANCH  18  22
ATOM     19  C   UNL     1      46.772   2.650   7.399  0.00  0.00    +0.000 A 
ATOM     20  C   UNL     1      46.230   1.695   8.243  0.00  0.00    +0.000 A 
ATOM     21  N   UNL     1      45.317   2.001   9.188  0.00  0.00    +0.000 NA
ATOM     22  C   UNL     1      44.951   3.302   9.226  0.00  0.00    +0.000 A 
ATOM     23  C   UNL     1      45.553   4.278   8.443  0.00  0.00    +0.000 A 
ATOM     24  N   UNL     1      46.481   3.974   7.505  0.00  0.00    +0.000 NA
BRANCH  19  26
ATOM     25  N   UNL     1      48.181   1.922   5.354  0.00  0.00    +0.000 NA
ATOM     26  C   UNL     1      47.580   2.250   6.298  0.00  0.00    +0.000 C 
ENDBRANCH  19  26
ENDBRANCH  18  22
ENDBRANCH  15  18
ENDBRANCH   1  15
TORSDOF 5
ENDMDL
MODEL 4
REMARK VINA RESULT:    -6.521      3.186      4.158
REMARK INTER + INTRA:          -8.694
REMARK INTER:                  -8.183
REMARK INTRA:                  -0.511
REMARK UNBOUND:                -0.267
REMARK  Name = 
REMARK  5 active torsions:
REMARK  status: ('A' for Active; 'I' for Inactive)
REMARK    1  A    between atoms: C_2  and  C_3
REMARK    2  A    between atoms: C_6  and  O_7
REMARK    3  A    between atoms: O_7  and  C_8
REMARK    4  A    between atoms: C_8  and  C_9
REMARK    5  A    between atoms: C_14  and  C_15
REMARK                            x       y       z     vdW  Elec       q    Type
REMARK                         _______ _______ _______ _____ _____    ______ ____
ROOT
ATOM      1  C   UNL     1      44.433   6.960  12.011  0.00  0.00    +0.000 A 
ATOM      2  C   UNL     1      45.476   7.362  12.853  0.00  0.00    +0.000 A 
ATOM      3  C   UNL     1      45.975   8.656  12.796  0.00  0.00    +0.000 A 
ATOM      4  F   UNL     1      46.992   9.004  13.595  0.00  0.00    +0.000 F 
ATOM      5  C   UNL     1      45.459   9.590  11.908  0.00  0.00    +0.000 A 
ATOM      6  C   UNL     1      44.408   9.258  11.042  0.00  0.00    +0.000 A 
ATOM      7  C   UNL     1      43.900   7.941  11.128  0.00  0.00    +0.000 A 
ENDROOT
BRANCH   6   8
ATOM      8  C   UNL     1      43.819  10.280  10.055  0.00  0.00    +0.000 C 
ATOM      9  C   UNL     1      44.412  11.698  10.197  0.00  0.00    +0.000 C 
ATOM     10  C   UNL     1      43.869  12.429  11.426  0.00  0.00    +0.000 C 
ATOM     11  C   UNL     1      42.341  12.387  11.512  0.00  0.00    +0.000 C 
ATOM     12  N   UNL     1      41.794  11.047  11.325  0.00  0.00    +0.000 NA
ATOM     13  C   UNL     1      42.273  10.427  10.084  0.00  0.00    +0.000 C 
ATOM     14  H   UNL     1      40.775  11.086  11.329  0.00  0.00    +0.000 HD
ENDBRANCH   6   8
BRANCH   1  15
ATOM     15  C   UNL     1      43.994   5.494  11.990  0.00  0.00    +0.000 C 
ATOM     16  C   UNL     1      43.031   4.976  13.043  0.00  0.00    +0.000 C 
ATOM     17  C   UNL     1      42.571   5.136  11.629  0.00  0.00    +0.000 C 
BRANCH  15  18
ATOM     18  O   UNL     1      45.023   4.492  11.739  0.00  0.00    +0.000 OA
BRANCH  18  22
ATOM     19  C   UNL     1      45.800   3.367   7.956  0.00  0.00    +0.000 A 
ATOM     20  C   UNL     1      45.902   4.699   8.318  0.00  0.00    +0.000 A 
ATOM     21  N   UNL     1      45.577   5.140   9.552  0.00  0.00    +0.000 NA
ATOM     22  C   UNL     1      45.177   4.178  10.412  0.00  0.00    +0.000 A 
ATOM     23  C   UNL     1      44.990   2.856  10.031  0.00  0.00    +0.000 A 
ATOM     24  N   UNL     1      45.300   2.416   8.790  0.00  0.00    +0.000 NA
BRANCH  19  26
ATOM     25  N   UNL     1      46.738   2.619   5.663  0.00  0.00    +0.000 NA
ATOM     26  C   UNL     1      46.334   2.924   6.714  0.00  0.00    +0.000 C 
ENDBRANCH  19  26
ENDBRANCH  18  22
ENDBRANCH  15  18
ENDBRANCH   1  15
TORSDOF 5
ENDMDL
MODEL 5
REMARK VINA RESULT:    -6.487      2.555      3.683
REMARK INTER + INTRA:          -8.649
REMARK INTER:                  -9.467
REMARK INTRA:                   0.818
REMARK UNBOUND:                -0.267
REMARK  Name = 
REMARK  5 active torsions:
REMARK  status: ('A' for Active; 'I' for Inactive)
REMARK    1  A    between atoms: C_2  and  C_3
REMARK    2  A    between atoms: C_6  and  O_7
REMARK    3  A    between atoms: O_7  and  C_8
REMARK    4  A    between atoms: C_8  and  C_9
REMARK    5  A    between atoms: C_14  and  C_15
REMARK                            x       y       z     vdW  Elec       q    Type
REMARK                         _______ _______ _______ _____ _____    ______ ____
ROOT
ATOM      1  C   UNL     1      45.002   6.135  11.554  0.00  0.00    +0.000 A 
ATOM      2  C   UNL     1      46.399   6.093  11.623  0.00  0.00    +0.000 A 
ATOM      3  C   UNL     1      47.136   7.257  11.786  0.00  0.00    +0.000 A 
ATOM      4  F   UNL     1      48.474   7.189  11.822  0.00  0.00    +0.000 F 
ATOM      5  C   UNL     1      46.518   8.496  11.886  0.00  0.00    +0.000 A 
ATOM      6  C   UNL     1      45.122   8.611  11.833  0.00  0.00    +0.000 A 
ATOM      7  C   UNL     1      44.386   7.411  11.687  0.00  0.00    +0.000 A 
ENDROOT
BRANCH   6   8
ATOM      8  C   UNL     1      44.416   9.973  11.947  0.00  0.00    +0.000 C 
ATOM      9  C   UNL     1      43.229  10.142  10.975  0.00  0.00    +0.000 C 
ATOM     10  C   UNL     1      43.690  10.393   9.539  0.00  0.00    +0.000 C 
ATOM     11  C   UNL     1      44.733  11.509   9.439  0.00  0.00    +0.000 C 
ATOM     12  N   UNL     1      45.823  11.361  10.398  0.00  0.00    +0.000 NA
ATOM     13  C   UNL     1      45.329  11.218  11.773  0.00  0.00    +0.000 C 
ATOM     14  H   UNL     1      46.452  12.160  10.332  0.00  0.00    +0.000 HD
ENDBRANCH   6   8
BRANCH   1  15
ATOM     15  C   UNL     1      44.217   4.860  11.233  0.00  0.00    +0.000 C 
ATOM     16  C   UNL     1      44.560   3.561  11.939  0.00  0.00    +0.000 C 
ATOM     17  C   UNL     1      43.283   4.268  12.264  0.00  0.00    +0.000 C 
BRANCH  15  18
ATOM     18  O   UNL     1      43.927   4.589   9.831  0.00  0.00    +0.000 OA
BRANCH  18  22
ATOM     19  C   UNL     1      46.728   2.822   7.547  0.00  0.00    +0.000 A 
ATOM     20  C   UNL     1      45.929   2.057   8.381  0.00  0.00    +0.000 A 
ATOM     21  N   UNL     1      45.030   2.607   9.223  0.00  0.00    +0.000 NA
ATOM     22  C   UNL     1      44.947   3.955   9.168  0.00  0.00    +0.000 A 
ATOM     23  C   UNL     1      45.804   4.732   8.399  0.00  0.00    +0.000 A 
ATOM     24  N   UNL     1      46.718   4.182   7.566  0.00  0.00    +0.000 NA
BRANCH  19  26
ATOM     25  N   UNL     1      48.202   1.642   5.778  0.00  0.00    +0.000 NA
ATOM     26  C   UNL     1      47.518   2.193   6.545  0.00  0.00    +0.000 C 
ENDBRANCH  19  26
ENDBRANCH  18  22
ENDBRANCH  15  18
ENDBRANCH   1  15
TORSDOF 5
ENDMDL
MODEL 6
REMARK VINA RESULT:    -6.455      2.938      6.817
REMARK INTER + INTRA:          -8.608
REMARK INTER:                  -8.500
REMARK INTRA:                  -0.108
REMARK UNBOUND:                -0.267
REMARK  Name = 
REMARK  5 active torsions:
REMARK  status: ('A' for Active; 'I' for Inactive)
REMARK    1  A    between atoms: C_2  and  C_3
REMARK    2  A    between atoms: C_6  and  O_7
REMARK    3  A    between atoms: O_7  and  C_8
REMARK    4  A    between atoms: C_8  and  C_9
REMARK    5  A    between atoms: C_14  and  C_15
REMARK                            x       y       z     vdW  Elec       q    Type
REMARK                         _______ _______ _______ _____ _____    ______ ____
ROOT
ATOM      1  C   UNL     1      46.679   6.111  12.521  0.00  0.00    +0.000 A 
ATOM      2  C   UNL     1      47.179   5.193  13.452  0.00  0.00    +0.000 A 
ATOM      3  C   UNL     1      46.718   3.885  13.476  0.00  0.00    +0.000 A 
ATOM      4  F   UNL     1      47.196   3.036  14.395  0.00  0.00    +0.000 F 
ATOM      5  C   UNL     1      45.752   3.444  12.582  0.00  0.00    +0.000 A 
ATOM      6  C   UNL     1      45.214   4.307  11.618  0.00  0.00    +0.000 A 
ATOM      7  C   UNL     1      45.710   5.631  11.596  0.00  0.00    +0.000 A 
ENDROOT
BRANCH   6   8
ATOM      8  C   UNL     1      44.146   3.837  10.616  0.00  0.00    +0.000 C 
ATOM      9  C   UNL     1      44.344   2.386  10.128  0.00  0.00    +0.000 C 
ATOM     10  C   UNL     1      45.483   2.269   9.115  0.00  0.00    +0.000 C 
ATOM     11  C   UNL     1      45.374   3.292   7.981  0.00  0.00    +0.000 C 
ATOM     12  N   UNL     1      45.137   4.651   8.457  0.00  0.00    +0.000 NA
ATOM     13  C   UNL     1      43.974   4.724   9.352  0.00  0.00    +0.000 C 
ATOM     14  H   UNL     1      45.009   5.278   7.663  0.00  0.00    +0.000 HD
ENDBRANCH   6   8
BRANCH   1  15
ATOM     15  C   UNL     1      47.097   7.582  12.603  0.00  0.00    +0.000 C 
ATOM     16  C   UNL     1      48.474   7.951  13.123  0.00  0.00    +0.000 C 
ATOM     17  C   UNL     1      48.158   8.120  11.671  0.00  0.00    +0.000 C 
BRANCH  15  18
ATOM     18  O   UNL     1      46.114   8.528  13.118  0.00  0.00    +0.000 OA
BRANCH  18  22
ATOM     19  C   UNL     1      44.191  10.966  10.561  0.00  0.00    +0.000 A 
ATOM     20  C   UNL     1      43.843   9.628  10.638  0.00  0.00    +0.000 A 
ATOM     21  N   UNL     1      44.507   8.753  11.421  0.00  0.00    +0.000 NA
ATOM     22  C   UNL     1      45.515   9.287  12.145  0.00  0.00    +0.000 A 
ATOM     23  C   UNL     1      45.925  10.607  12.007  0.00  0.00    +0.000 A 
ATOM     24  N   UNL     1      45.269  11.482  11.210  0.00  0.00    +0.000 NA
BRANCH  19  26
ATOM     25  N   UNL     1      42.686  12.612   9.250  0.00  0.00    +0.000 NA
ATOM     26  C   UNL     1      43.347  11.883   9.876  0.00  0.00    +0.000 C 
ENDBRANCH  19  26
ENDBRANCH  18  22
ENDBRANCH  15  18
ENDBRANCH   1  15
TORSDOF 5
ENDMDL
MODEL 7
REMARK VINA RESULT:    -6.340      3.575      7.712
REMARK INTER + INTRA:          -8.460
REMARK INTER:                  -7.773
REMARK INTRA:                  -0.687
REMARK UNBOUND:                -0.267
REMARK  Name = 
REMARK  5 active torsions:
REMARK  status: ('A' for Active; 'I' for Inactive)
REMARK    1  A    between atoms: C_2  and  C_3
REMARK    2  A    between atoms: C_6  and  O_7
REMARK    3  A    between atoms: O_7  and  C_8
REMARK    4  A    between atoms: C_8  and  C_9
REMARK    5  A    between atoms: C_14  and  C_15
REMARK                            x       y       z     vdW  Elec       q    Type
REMARK                         _______ _______ _______ _____ _____    ______ ____
ROOT
ATOM      1  C   UNL     1      47.569   7.789  12.380  0.00  0.00    +0.000 A 
ATOM      2  C   UNL     1      46.793   8.932  12.601  0.00  0.00    +0.000 A 
ATOM      3  C   UNL     1      45.438   8.939  12.304  0.00  0.00    +0.000 A 
ATOM      4  F   UNL     1      44.726  10.056  12.502  0.00  0.00    +0.000 F 
ATOM      5  C   UNL     1      44.809   7.817  11.781  0.00  0.00    +0.000 A 
ATOM      6  C   UNL     1      45.523   6.635  11.542  0.00  0.00    +0.000 A 
ATOM      7  C   UNL     1      46.899   6.641  11.869  0.00  0.00    +0.000 A 
ENDROOT
BRANCH   6   8
ATOM      8  C   UNL     1      44.843   5.380  10.968  0.00  0.00    +0.000 C 
ATOM      9  C   UNL     1      43.301   5.425  11.026  0.00  0.00    +0.000 C 
ATOM     10  C   UNL     1      42.771   5.182  12.439  0.00  0.00    +0.000 C 
ATOM     11  C   UNL     1      43.377   3.938  13.094  0.00  0.00    +0.000 C 
ATOM     12  N   UNL     1      44.832   3.887  12.986  0.00  0.00    +0.000 NA
ATOM     13  C   UNL     1      45.285   4.030  11.597  0.00  0.00    +0.000 C 
ATOM     14  H   UNL     1      45.177   3.012  13.380  0.00  0.00    +0.000 HD
ENDBRANCH   6   8
BRANCH   1  15
ATOM     15  C   UNL     1      49.085   7.847  12.581  0.00  0.00    +0.000 C 
ATOM     16  C   UNL     1      49.999   8.086  11.392  0.00  0.00    +0.000 C 
ATOM     17  C   UNL     1      49.819   9.159  12.419  0.00  0.00    +0.000 C 
BRANCH  15  18
ATOM     18  O   UNL     1      49.683   6.849  13.459  0.00  0.00    +0.000 OA
BRANCH  18  22
ATOM     19  C   UNL     1      48.589   6.871  17.330  0.00  0.00    +0.000 A 
ATOM     20  C   UNL     1      48.265   5.792  16.524  0.00  0.00    +0.000 A 
ATOM     21  N   UNL     1      48.539   5.770  15.203  0.00  0.00    +0.000 NA
ATOM     22  C   UNL     1      49.181   6.864  14.736  0.00  0.00    +0.000 A 
ATOM     23  C   UNL     1      49.430   7.983  15.519  0.00  0.00    +0.000 A 
ATOM     24  N   UNL     1      49.141   8.013  16.840  0.00  0.00    +0.000 NA
BRANCH  19  26
ATOM     25  N   UNL     1      48.316   6.754  19.900  0.00  0.00    +0.000 NA
ATOM     26  C   UNL     1      48.456   6.769  18.743  0.00  0.00    +0.000 C 
ENDBRANCH  19  26
ENDBRANCH  18  22
ENDBRANCH  15  18
ENDBRANCH   1  15
TORSDOF 5
ENDMDL
MODEL 8
REMARK VINA RESULT:    -6.289      3.346      5.791
REMARK INTER + INTRA:          -8.395
REMARK INTER:                  -7.865
REMARK INTRA:                  -0.530
REMARK UNBOUND:                -0.267
REMARK  Name = 
REMARK  5 active torsions:
REMARK  status: ('A' for Active; 'I' for Inactive)
REMARK    1  A    between atoms: C_2  and  C_3
REMARK    2  A    between atoms: C_6  and  O_7
REMARK    3  A    between atoms: O_7  and  C_8
REMARK    4  A    between atoms: C_8  and  C_9
REMARK    5  A    between atoms: C_14  and  C_15
REMARK                            x       y       z     vdW  Elec       q    Type
REMARK                         _______ _______ _______ _____ _____    ______ ____
ROOT
ATOM      1  C   UNL     1      48.420   7.874  14.849  0.00  0.00    +0.000 A 
ATOM      2  C   UNL     1      48.136   9.102  15.458  0.00  0.00    +0.000 A 
ATOM      3  C   UNL     1      48.156   9.230  16.839  0.00  0.00    +0.000 A 
ATOM      4  F   UNL     1      47.854  10.411  17.394  0.00  0.00    +0.000 F 
ATOM      5  C   UNL     1      48.458   8.152  17.660  0.00  0.00    +0.000 A 
ATOM      6  C   UNL     1      48.761   6.895  17.117  0.00  0.00    +0.000 A 
ATOM      7  C   UNL     1      48.754   6.788  15.707  0.00  0.00    +0.000 A 
ENDROOT
BRANCH   6   8
ATOM      8  C   UNL     1      49.102   5.689  18.009  0.00  0.00    +0.000 C 
ATOM      9  C   UNL     1      49.497   4.423  17.219  0.00  0.00    +0.000 C 
ATOM     10  C   UNL     1      48.286   3.735  16.589  0.00  0.00    +0.000 C 
ATOM     11  C   UNL     1      47.147   3.510  17.587  0.00  0.00    +0.000 C 
ATOM     12  N   UNL     1      46.820   4.703  18.360  0.00  0.00    +0.000 NA
ATOM     13  C   UNL     1      48.002   5.270  19.022  0.00  0.00    +0.000 C 
ATOM     14  H   UNL     1      46.103   4.482  19.050  0.00  0.00    +0.000 HD
ENDBRANCH   6   8
BRANCH   1  15
ATOM     15  C   UNL     1      48.254   7.719  13.335  0.00  0.00    +0.000 C 
ATOM     16  C   UNL     1      49.214   8.419  12.391  0.00  0.00    +0.000 C 
ATOM     17  C   UNL     1      49.270   6.932  12.539  0.00  0.00    +0.000 C 
BRANCH  15  18
ATOM     18  O   UNL     1      46.900   7.800  12.799  0.00  0.00    +0.000 OA
BRANCH  18  22
ATOM     19  C   UNL     1      44.913   4.415  11.921  0.00  0.00    +0.000 A 
ATOM     20  C   UNL     1      45.306   4.671  13.224  0.00  0.00    +0.000 A 
ATOM     21  N   UNL     1      46.042   5.751  13.558  0.00  0.00    +0.000 NA
ATOM     22  C   UNL     1      46.337   6.579  12.531  0.00  0.00    +0.000 A 
ATOM     23  C   UNL     1      46.020   6.285  11.211  0.00  0.00    +0.000 A 
ATOM     24  N   UNL     1      45.296   5.192  10.873  0.00  0.00    +0.000 NA
BRANCH  19  26
ATOM     25  N   UNL     1      43.168   2.560  11.467  0.00  0.00    +0.000 NA
ATOM     26  C   UNL     1      43.981   3.375  11.650  0.00  0.00    +0.000 C 
ENDBRANCH  19  26
ENDBRANCH  18  22
ENDBRANCH  15  18
ENDBRANCH   1  15
TORSDOF 5
ENDMDL
MODEL 9
REMARK VINA RESULT:    -6.248      3.402      6.896
REMARK INTER + INTRA:          -8.341
REMARK INTER:                  -7.675
REMARK INTRA:                  -0.667
REMARK UNBOUND:                -0.267
REMARK  Name = 
REMARK  5 active torsions:
REMARK  status: ('A' for Active; 'I' for Inactive)
REMARK    1  A    between atoms: C_2  and  C_3
REMARK    2  A    between atoms: C_6  and  O_7
REMARK    3  A    between atoms: O_7  and  C_8
REMARK    4  A    between atoms: C_8  and  C_9
REMARK    5  A    between atoms: C_14  and  C_15
REMARK                            x       y       z     vdW  Elec       q    Type
REMARK                         _______ _______ _______ _____ _____    ______ ____
ROOT
ATOM      1  C   UNL     1      47.716   6.504  13.149  0.00  0.00    +0.000 A 
ATOM      2  C   UNL     1      47.902   5.995  14.440  0.00  0.00    +0.000 A 
ATOM      3  C   UNL     1      47.177   4.898  14.880  0.00  0.00    +0.000 A 
ATOM      4  F   UNL     1      47.357   4.449  16.130  0.00  0.00    +0.000 F 
ATOM      5  C   UNL     1      46.249   4.269  14.061  0.00  0.00    +0.000 A 
ATOM      6  C   UNL     1      46.019   4.720  12.755  0.00  0.00    +0.000 A 
ATOM      7  C   UNL     1      46.781   5.828  12.316  0.00  0.00    +0.000 A 
ENDROOT
BRANCH   6   8
ATOM      8  C   UNL     1      44.998   4.036  11.829  0.00  0.00    +0.000 C 
ATOM      9  C   UNL     1      44.535   4.919  10.651  0.00  0.00    +0.000 C 
ATOM     10  C   UNL     1      43.551   6.001  11.094  0.00  0.00    +0.000 C 
ATOM     11  C   UNL     1      42.400   5.446  11.937  0.00  0.00    +0.000 C 
ATOM     12  N   UNL     1      42.852   4.573  13.017  0.00  0.00    +0.000 NA
ATOM     13  C   UNL     1      43.719   3.495  12.525  0.00  0.00    +0.000 C 
ATOM     14  H   UNL     1      42.047   4.183  13.505  0.00  0.00    +0.000 HD
ENDBRANCH   6   8
BRANCH   1  15
ATOM     15  C   UNL     1      48.421   7.798  12.733  0.00  0.00    +0.000 C 
ATOM     16  C   UNL     1      49.935   7.839  12.634  0.00  0.00    +0.000 C 
ATOM     17  C   UNL     1      49.108   7.886  11.389  0.00  0.00    +0.000 C 
BRANCH  15  18
ATOM     18  O   UNL     1      47.939   9.041  13.322  0.00  0.00    +0.000 OA
BRANCH  18  22
ATOM     19  C   UNL     1      45.031  11.113  11.469  0.00  0.00    +0.000 A 
ATOM     20  C   UNL     1      44.739   9.909  12.087  0.00  0.00    +0.000 A 
ATOM     21  N   UNL     1      45.690   9.138  12.654  0.00  0.00    +0.000 NA
ATOM     22  C   UNL     1      46.941   9.646  12.600  0.00  0.00    +0.000 A 
ATOM     23  C   UNL     1      47.254  10.808  11.908  0.00  0.00    +0.000 A 
ATOM     24  N   UNL     1      46.302  11.574  11.324  0.00  0.00    +0.000 NA
BRANCH  19  26
ATOM     25  N   UNL     1      43.106  12.705  10.795  0.00  0.00    +0.000 NA
ATOM     26  C   UNL     1      43.978  11.977  11.059  0.00  0.00    +0.000 C 
ENDBRANCH  19  26
ENDBRANCH  18  22
ENDBRANCH  15  18
ENDBRANCH   1  15
TORSDOF 5
ENDMDL
