MODEL 1
REMARK VINA RESULT:    -8.913      0.000      0.000
REMARK INTER + INTRA:         -13.955
REMARK INTER:                 -12.561
REMARK INTRA:                  -1.394
REMARK UNBOUND:                -1.394
REMARK  Name = 
REMARK  8 active torsions:
REMARK  status: ('A' for Active; 'I' for Inactive)
REMARK    1  A    between atoms: C_1  and  C_2
REMARK    2  A    between atoms: C_2  and  C_3
REMARK    3  A    between atoms: C_3  and  C_4
REMARK    4  A    between atoms: C_3  and  N_11
REMARK    5  A    between atoms: C_4  and  C_5
REMARK    6  A    between atoms: C_15  and  C_16
REMARK    7  A    between atoms: C_16  and  N_17
REMARK    8  A    between atoms: C_18  and  C_20
REMARK                            x       y       z     vdW  Elec       q    Type
REMARK                         _______ _______ _______ _____ _____    ______ ____
ROOT
ATOM      1  N   UNL     1      44.513   5.853  10.282  0.00  0.00    +0.000 N 
ATOM      2  C   UNL     1      45.315   6.480  11.255  0.00  0.00    +0.000 A 
ATOM      3  C   UNL     1      44.874   7.700  11.772  0.00  0.00    +0.000 A 
ATOM      4  C   UNL     1      45.647   8.382  12.713  0.00  0.00    +0.000 A 
ATOM      5  C   UNL     1      46.872   7.852  13.109  0.00  0.00    +0.000 A 
ATOM      6  C   UNL     1      47.260   6.663  12.503  0.00  0.00    +0.000 A 
ATOM      7  N   UNL     1      46.508   5.971  11.607  0.00  0.00    +0.000 NA
ATOM      8  H   UNL     1      43.548   6.084  10.486  0.00  0.00    +0.000 HD
ENDROOT
BRANCH   1   9
ATOM      9  C   UNL     1      44.698   4.393  10.101  0.00  0.00    +0.000 C 
BRANCH   9  11
ATOM     10  C   UNL     1      44.026   3.177  12.275  0.00  0.00    +0.000 C 
ATOM     11  C   UNL     1      43.578   3.665  10.892  0.00  0.00    +0.000 C 
ENDBRANCH   9  11
BRANCH   9  12
ATOM     12  C   UNL     1      44.627   4.039   8.594  0.00  0.00    +0.000 C 
BRANCH  12  13
ATOM     13  C   UNL     1      45.716   3.161   7.999  0.00  0.00    +0.000 A 
ATOM     14  C   UNL     1      45.876   1.840   8.444  0.00  0.00    +0.000 A 
ATOM     15  C   UNL     1      46.719   0.951   7.770  0.00  0.00    +0.000 A 
ATOM     16  C   UNL     1      47.420   1.375   6.644  0.00  0.00    +0.000 A 
ATOM     17  C   UNL     1      47.309   2.697   6.219  0.00  0.00    +0.000 A 
ATOM     18  C   UNL     1      46.467   3.589   6.896  0.00  0.00    +0.000 A 
ENDBRANCH  12  13
ENDBRANCH   9  12
ENDBRANCH   1   9
BRANCH   5  19
ATOM     19  C   UNL     1      47.745   8.556  14.108  0.00  0.00    +0.000 C 
BRANCH  19  20
ATOM     20  N   UNL     1      48.051   7.703  15.227  0.00  0.00    +0.000 N 
ATOM     21  C   UNL     1      49.279   7.109  15.374  0.00  0.00    +0.000 C 
ATOM     22  O   UNL     1      50.201   7.312  14.588  0.00  0.00    +0.000 OA
ATOM     23  H   UNL     1      47.260   7.318  15.734  0.00  0.00    +0.000 HD
BRANCH  21  24
ATOM     24  C   UNL     1      49.451   6.272  16.570  0.00  0.00    +0.000 A 
ATOM     25  C   UNL     1      50.427   6.590  17.507  0.00  0.00    +0.000 A 
ATOM     26  S   UNL     1      50.419   5.565  18.873  0.00  0.00    +0.000 S 
ATOM     27  C   UNL     1      49.158   4.624  18.226  0.00  0.00    +0.000 A 
ATOM     28  N   UNL     1      48.665   3.552  18.900  0.00  0.00    +0.000 NA
ATOM     29  C   UNL     1      47.727   2.915  18.283  0.00  0.00    +0.000 A 
ATOM     30  N   UNL     1      47.241   3.248  17.048  0.00  0.00    +0.000 N 
ATOM     31  C   UNL     1      47.689   4.331  16.340  0.00  0.00    +0.000 A 
ATOM     32  O   UNL     1      47.212   4.623  15.246  0.00  0.00    +0.000 OA
ATOM     33  C   UNL     1      48.741   5.087  16.994  0.00  0.00    +0.000 A 
ATOM     34  H   UNL     1      46.492   2.706  16.626  0.00  0.00    +0.000 HD
ENDBRANCH  21  24
ENDBRANCH  19  20
ENDBRANCH   5  19
TORSDOF 7
ENDMDL
MODEL 2
REMARK VINA RESULT:    -8.118      1.515      2.132
REMARK INTER + INTRA:         -12.833
REMARK INTER:                 -11.721
REMARK INTRA:                  -1.113
REMARK UNBOUND:                -1.394
REMARK  Name = 
REMARK  8 active torsions:
REMARK  status: ('A' for Active; 'I' for Inactive)
REMARK    1  A    between atoms: C_1  and  C_2
REMARK    2  A    between atoms: C_2  and  C_3
REMARK    3  A    between atoms: C_3  and  C_4
REMARK    4  A    between atoms: C_3  and  N_11
REMARK    5  A    between atoms: C_4  and  C_5
REMARK    6  A    between atoms: C_15  and  C_16
REMARK    7  A    between atoms: C_16  and  N_17
REMARK    8  A    between atoms: C_18  and  C_20
REMARK                            x       y       z     vdW  Elec       q    Type
REMARK                         _______ _______ _______ _____ _____    ______ ____
ROOT
ATOM      1  N   UNL     1      44.854   5.967  10.287  0.00  0.00    +0.000 N 
ATOM      2  C   UNL     1      45.638   6.450  11.352  0.00  0.00    +0.000 A 
ATOM      3  C   UNL     1      45.424   7.763  11.773  0.00  0.00    +0.000 A 
ATOM      4  C   UNL     1      46.198   8.305  12.800  0.00  0.00    +0.000 A 
ATOM      5  C   UNL     1      47.203   7.536  13.380  0.00  0.00    +0.000 A 
ATOM      6  C   UNL     1      47.387   6.260  12.862  0.00  0.00    +0.000 A 
ATOM      7  N   UNL     1      46.624   5.706  11.883  0.00  0.00    +0.000 NA
ATOM      8  H   UNL     1      43.948   6.419  10.345  0.00  0.00    +0.000 HD
ENDROOT
BRANCH   1   9
ATOM      9  C   UNL     1      44.721   4.494  10.167  0.00  0.00    +0.000 C 
BRANCH   9  11
ATOM     10  C   UNL     1      43.732   3.363  12.264  0.00  0.00    +0.000 C 
ATOM     11  C   UNL     1      43.440   4.063  10.932  0.00  0.00    +0.000 C 
ENDBRANCH   9  11
BRANCH   9  12
ATOM     12  C   UNL     1      44.630   4.098   8.672  0.00  0.00    +0.000 C 
BRANCH  12  13
ATOM     13  C   UNL     1      45.704   3.194   8.090  0.00  0.00    +0.000 A 
ATOM     14  C   UNL     1      45.801   1.858   8.506  0.00  0.00    +0.000 A 
ATOM     15  C   UNL     1      46.633   0.954   7.838  0.00  0.00    +0.000 A 
ATOM     16  C   UNL     1      47.386   1.378   6.746  0.00  0.00    +0.000 A 
ATOM     17  C   UNL     1      47.337   2.713   6.351  0.00  0.00    +0.000 A 
ATOM     18  C   UNL     1      46.507   3.619   7.023  0.00  0.00    +0.000 A 
ENDBRANCH  12  13
ENDBRANCH   9  12
ENDBRANCH   1   9
BRANCH   5  19
ATOM     19  C   UNL     1      48.071   8.079  14.478  0.00  0.00    +0.000 C 
BRANCH  19  20
ATOM     20  N   UNL     1      48.079   7.202  15.620  0.00  0.00    +0.000 N 
ATOM     21  C   UNL     1      49.203   6.510  15.998  0.00  0.00    +0.000 C 
ATOM     22  O   UNL     1      50.276   6.640  15.414  0.00  0.00    +0.000 OA
ATOM     23  H   UNL     1      47.176   6.881  15.953  0.00  0.00    +0.000 HD
BRANCH  21  24
ATOM     24  C   UNL     1      49.066   5.660  17.188  0.00  0.00    +0.000 A 
ATOM     25  C   UNL     1      48.630   4.347  17.059  0.00  0.00    +0.000 A 
ATOM     26  S   UNL     1      48.621   3.484  18.532  0.00  0.00    +0.000 S 
ATOM     27  C   UNL     1      49.135   4.854  19.399  0.00  0.00    +0.000 A 
ATOM     28  N   UNL     1      49.321   4.804  20.745  0.00  0.00    +0.000 NA
ATOM     29  C   UNL     1      49.689   5.921  21.277  0.00  0.00    +0.000 A 
ATOM     30  N   UNL     1      49.880   7.087  20.588  0.00  0.00    +0.000 N 
ATOM     31  C   UNL     1      49.726   7.182  19.230  0.00  0.00    +0.000 A 
ATOM     32  O   UNL     1      49.935   8.236  18.635  0.00  0.00    +0.000 OA
ATOM     33  C   UNL     1      49.320   5.950  18.581  0.00  0.00    +0.000 A 
ATOM     34  H   UNL     1      50.181   7.929  21.073  0.00  0.00    +0.000 HD
ENDBRANCH  21  24
ENDBRANCH  19  20
ENDBRANCH   5  19
TORSDOF 7
ENDMDL
MODEL 3
REMARK VINA RESULT:    -7.602      2.273      2.819
REMARK INTER + INTRA:         -12.107
REMARK INTER:                 -11.478
REMARK INTRA:                  -0.629
REMARK UNBOUND:                -1.394
REMARK  Name = 
REMARK  8 active torsions:
REMARK  status: ('A' for Active; 'I' for Inactive)
REMARK    1  A    between atoms: C_1  and  C_2
REMARK    2  A    between atoms: C_2  and  C_3
REMARK    3  A    between atoms: C_3  and  C_4
REMARK    4  A    between atoms: C_3  and  N_11
REMARK    5  A    between atoms: C_4  and  C_5
REMARK    6  A    between atoms: C_15  and  C_16
REMARK    7  A    between atoms: C_16  and  N_17
REMARK    8  A    between atoms: C_18  and  C_20
REMARK                            x       y       z     vdW  Elec       q    Type
REMARK                         _______ _______ _______ _____ _____    ______ ____
ROOT
ATOM      1  N   UNL     1      45.613   4.670  11.510  0.00  0.00    +0.000 N 
ATOM      2  C   UNL     1      46.351   5.306  12.525  0.00  0.00    +0.000 A 
ATOM      3  C   UNL     1      47.011   6.494  12.203  0.00  0.00    +0.000 A 
ATOM      4  C   UNL     1      47.787   7.147  13.161  0.00  0.00    +0.000 A 
ATOM      5  C   UNL     1      47.921   6.591  14.430  0.00  0.00    +0.000 A 
ATOM      6  C   UNL     1      47.278   5.379  14.650  0.00  0.00    +0.000 A 
ATOM      7  N   UNL     1      46.495   4.744  13.738  0.00  0.00    +0.000 NA
ATOM      8  H   UNL     1      45.246   5.392  10.900  0.00  0.00    +0.000 HD
ENDROOT
BRANCH   1   9
ATOM      9  C   UNL     1      44.550   3.731  11.943  0.00  0.00    +0.000 C 
BRANCH   9  11
ATOM     10  C   UNL     1      42.538   5.334  11.756  0.00  0.00    +0.000 C 
ATOM     11  C   UNL     1      43.462   4.547  12.692  0.00  0.00    +0.000 C 
ENDBRANCH   9  11
BRANCH   9  12
ATOM     12  C   UNL     1      43.948   3.016  10.706  0.00  0.00    +0.000 C 
BRANCH  12  13
ATOM     13  C   UNL     1      44.767   2.958   9.428  0.00  0.00    +0.000 A 
ATOM     14  C   UNL     1      45.045   4.135   8.716  0.00  0.00    +0.000 A 
ATOM     15  C   UNL     1      45.968   4.140   7.665  0.00  0.00    +0.000 A 
ATOM     16  C   UNL     1      46.620   2.963   7.306  0.00  0.00    +0.000 A 
ATOM     17  C   UNL     1      46.318   1.777   7.971  0.00  0.00    +0.000 A 
ATOM     18  C   UNL     1      45.392   1.770   9.022  0.00  0.00    +0.000 A 
ENDBRANCH  12  13
ENDBRANCH   9  12
ENDBRANCH   1   9
BRANCH   5  19
ATOM     19  C   UNL     1      48.756   7.250  15.490  0.00  0.00    +0.000 C 
BRANCH  19  20
ATOM     20  N   UNL     1      49.837   6.396  15.910  0.00  0.00    +0.000 N 
ATOM     21  C   UNL     1      49.865   5.815  17.153  0.00  0.00    +0.000 C 
ATOM     22  O   UNL     1      48.946   5.951  17.957  0.00  0.00    +0.000 OA
ATOM     23  H   UNL     1      50.705   6.473  15.390  0.00  0.00    +0.000 HD
BRANCH  21  24
ATOM     24  C   UNL     1      51.025   4.961  17.439  0.00  0.00    +0.000 A 
ATOM     25  C   UNL     1      52.243   5.534  17.790  0.00  0.00    +0.000 A 
ATOM     26  S   UNL     1      53.449   4.390  18.177  0.00  0.00    +0.000 S 
ATOM     27  C   UNL     1      52.406   3.093  17.824  0.00  0.00    +0.000 A 
ATOM     28  N   UNL     1      52.823   1.804  17.941  0.00  0.00    +0.000 NA
ATOM     29  C   UNL     1      51.938   0.922  17.618  0.00  0.00    +0.000 A 
ATOM     30  N   UNL     1      50.674   1.210  17.182  0.00  0.00    +0.000 N 
ATOM     31  C   UNL     1      50.200   2.490  17.069  0.00  0.00    +0.000 A 
ATOM     32  O   UNL     1      49.049   2.717  16.704  0.00  0.00    +0.000 OA
ATOM     33  C   UNL     1      51.156   3.522  17.427  0.00  0.00    +0.000 A 
ATOM     34  H   UNL     1      50.023   0.462  16.956  0.00  0.00    +0.000 HD
ENDBRANCH  21  24
ENDBRANCH  19  20
ENDBRANCH   5  19
TORSDOF 7
ENDMDL
MODEL 4
REMARK VINA RESULT:    -7.413      1.766      2.646
REMARK INTER + INTRA:         -11.840
REMARK INTER:                 -10.799
REMARK INTRA:                  -1.042
REMARK UNBOUND:                -1.394
REMARK  Name = 
REMARK  8 active torsions:
REMARK  status: ('A' for Active; 'I' for Inactive)
REMARK    1  A    between atoms: C_1  and  C_2
REMARK    2  A    between atoms: C_2  and  C_3
REMARK    3  A    between atoms: C_3  and  C_4
REMARK    4  A    between atoms: C_3  and  N_11
REMARK    5  A    between atoms: C_4  and  C_5
REMARK    6  A    between atoms: C_15  and  C_16
REMARK    7  A    between atoms: C_16  and  N_17
REMARK    8  A    between atoms: C_18  and  C_20
REMARK                            x       y       z     vdW  Elec       q    Type
REMARK                         _______ _______ _______ _____ _____    ______ ____
ROOT
ATOM      1  N   UNL     1      44.582   5.966  10.556  0.00  0.00    +0.000 N 
ATOM      2  C   UNL     1      45.482   6.418  11.540  0.00  0.00    +0.000 A 
ATOM      3  C   UNL     1      45.280   7.694  12.069  0.00  0.00    +0.000 A 
ATOM      4  C   UNL     1      46.163   8.206  13.021  0.00  0.00    +0.000 A 
ATOM      5  C   UNL     1      47.261   7.447  13.416  0.00  0.00    +0.000 A 
ATOM      6  C   UNL     1      47.419   6.212  12.798  0.00  0.00    +0.000 A 
ATOM      7  N   UNL     1      46.554   5.686  11.892  0.00  0.00    +0.000 NA
ATOM      8  H   UNL     1      43.677   6.375  10.758  0.00  0.00    +0.000 HD
ENDROOT
BRANCH   1   9
ATOM      9  C   UNL     1      44.486   4.499  10.359  0.00  0.00    +0.000 C 
BRANCH   9  11
ATOM     10  C   UNL     1      43.674   3.455  12.574  0.00  0.00    +0.000 C 
ATOM     11  C   UNL     1      43.280   3.981  11.189  0.00  0.00    +0.000 C 
ENDBRANCH   9  11
BRANCH   9  12
ATOM     12  C   UNL     1      44.294   4.185   8.854  0.00  0.00    +0.000 C 
BRANCH  12  13
ATOM     13  C   UNL     1      45.273   3.241   8.175  0.00  0.00    +0.000 A 
ATOM     14  C   UNL     1      46.234   3.744   7.285  0.00  0.00    +0.000 A 
ATOM     15  C   UNL     1      47.274   2.936   6.817  0.00  0.00    +0.000 A 
ATOM     16  C   UNL     1      47.363   1.608   7.229  0.00  0.00    +0.000 A 
ATOM     17  C   UNL     1      46.390   1.081   8.074  0.00  0.00    +0.000 A 
ATOM     18  C   UNL     1      45.345   1.889   8.540  0.00  0.00    +0.000 A 
ENDBRANCH  12  13
ENDBRANCH   9  12
ENDBRANCH   1   9
BRANCH   5  19
ATOM     19  C   UNL     1      48.245   7.960  14.427  0.00  0.00    +0.000 C 
BRANCH  19  20
ATOM     20  N   UNL     1      48.843   6.881  15.170  0.00  0.00    +0.000 N 
ATOM     21  C   UNL     1      48.949   6.909  16.538  0.00  0.00    +0.000 C 
ATOM     22  O   UNL     1      48.494   7.834  17.208  0.00  0.00    +0.000 OA
ATOM     23  H   UNL     1      49.442   6.248  14.649  0.00  0.00    +0.000 HD
BRANCH  21  24
ATOM     24  C   UNL     1      49.572   5.734  17.160  0.00  0.00    +0.000 A 
ATOM     25  C   UNL     1      48.899   4.518  17.181  0.00  0.00    +0.000 A 
ATOM     26  S   UNL     1      49.813   3.245  17.859  0.00  0.00    +0.000 S 
ATOM     27  C   UNL     1      51.109   4.290  18.209  0.00  0.00    +0.000 A 
ATOM     28  N   UNL     1      52.236   3.833  18.817  0.00  0.00    +0.000 NA
ATOM     29  C   UNL     1      53.127   4.738  19.043  0.00  0.00    +0.000 A 
ATOM     30  N   UNL     1      52.994   6.062  18.724  0.00  0.00    +0.000 N 
ATOM     31  C   UNL     1      51.888   6.566  18.091  0.00  0.00    +0.000 A 
ATOM     32  O   UNL     1      51.810   7.754  17.789  0.00  0.00    +0.000 OA
ATOM     33  C   UNL     1      50.856   5.587  17.807  0.00  0.00    +0.000 A 
ATOM     34  H   UNL     1      53.745   6.719  18.923  0.00  0.00    +0.000 HD
ENDBRANCH  21  24
ENDBRANCH  19  20
ENDBRANCH   5  19
TORSDOF 7
ENDMDL
MODEL 5
REMARK VINA RESULT:    -7.296      4.003      5.348
REMARK INTER + INTRA:         -11.675
REMARK INTER:                 -10.564
REMARK INTRA:                  -1.112
REMARK UNBOUND:                -1.394
REMARK  Name = 
REMARK  8 active torsions:
REMARK  status: ('A' for Active; 'I' for Inactive)
REMARK    1  A    between atoms: C_1  and  C_2
REMARK    2  A    between atoms: C_2  and  C_3
REMARK    3  A    between atoms: C_3  and  C_4
REMARK    4  A    between atoms: C_3  and  N_11
REMARK    5  A    between atoms: C_4  and  C_5
REMARK    6  A    between atoms: C_15  and  C_16
REMARK    7  A    between atoms: C_16  and  N_17
REMARK    8  A    between atoms: C_18  and  C_20
REMARK                            x       y       z     vdW  Elec       q    Type
REMARK                         _______ _______ _______ _____ _____    ______ ____
ROOT
ATOM      1  N   UNL     1      44.415   5.726  10.269  0.00  0.00    +0.000 N 
ATOM      2  C   UNL     1      45.223   6.564  11.062  0.00  0.00    +0.000 A 
ATOM      3  C   UNL     1      44.654   7.741  11.552  0.00  0.00    +0.000 A 
ATOM      4  C   UNL     1      45.419   8.625  12.313  0.00  0.00    +0.000 A 
ATOM      5  C   UNL     1      46.760   8.339  12.555  0.00  0.00    +0.000 A 
ATOM      6  C   UNL     1      47.261   7.176  11.983  0.00  0.00    +0.000 A 
ATOM      7  N   UNL     1      46.524   6.289  11.264  0.00  0.00    +0.000 NA
ATOM      8  H   UNL     1      43.462   5.817  10.600  0.00  0.00    +0.000 HD
ENDROOT
BRANCH   1   9
ATOM      9  C   UNL     1      44.823   4.304  10.167  0.00  0.00    +0.000 C 
BRANCH   9  11
ATOM     10  C   UNL     1      44.781   3.119  12.458  0.00  0.00    +0.000 C 
ATOM     11  C   UNL     1      43.994   3.490  11.197  0.00  0.00    +0.000 C 
ENDBRANCH   9  11
BRANCH   9  12
ATOM     12  C   UNL     1      44.571   3.790   8.727  0.00  0.00    +0.000 C 
BRANCH  12  13
ATOM     13  C   UNL     1      45.667   2.998   8.033  0.00  0.00    +0.000 A 
ATOM     14  C   UNL     1      45.916   1.668   8.403  0.00  0.00    +0.000 A 
ATOM     15  C   UNL     1      46.763   0.855   7.642  0.00  0.00    +0.000 A 
ATOM     16  C   UNL     1      47.380   1.367   6.504  0.00  0.00    +0.000 A 
ATOM     17  C   UNL     1      47.181   2.700   6.151  0.00  0.00    +0.000 A 
ATOM     18  C   UNL     1      46.335   3.515   6.914  0.00  0.00    +0.000 A 
ENDBRANCH  12  13
ENDBRANCH   9  12
ENDBRANCH   1   9
BRANCH   5  19
ATOM     19  C   UNL     1      47.628   9.266  13.357  0.00  0.00    +0.000 C 
BRANCH  19  20
ATOM     20  N   UNL     1      48.915   9.443  12.737  0.00  0.00    +0.000 N 
ATOM     21  C   UNL     1      49.091  10.250  11.641  0.00  0.00    +0.000 C 
ATOM     22  O   UNL     1      48.169  10.905  11.159  0.00  0.00    +0.000 OA
ATOM     23  H   UNL     1      49.618   8.740  12.940  0.00  0.00    +0.000 HD
BRANCH  21  24
ATOM     24  C   UNL     1      50.461  10.343  11.122  0.00  0.00    +0.000 A 
ATOM     25  C   UNL     1      50.998  11.581  10.790  0.00  0.00    +0.000 A 
ATOM     26  S   UNL     1      52.630  11.506  10.294  0.00  0.00    +0.000 S 
ATOM     27  C   UNL     1      52.652   9.811  10.441  0.00  0.00    +0.000 A 
ATOM     28  N   UNL     1      53.771   9.096  10.151  0.00  0.00    +0.000 NA
ATOM     29  C   UNL     1      53.640   7.819  10.283  0.00  0.00    +0.000 A 
ATOM     30  N   UNL     1      52.489   7.189  10.671  0.00  0.00    +0.000 N 
ATOM     31  C   UNL     1      51.344   7.867  10.995  0.00  0.00    +0.000 A 
ATOM     32  O   UNL     1      50.334   7.276  11.371  0.00  0.00    +0.000 OA
ATOM     33  C   UNL     1      51.440   9.310  10.870  0.00  0.00    +0.000 A 
ATOM     34  H   UNL     1      52.461   6.177  10.765  0.00  0.00    +0.000 HD
ENDBRANCH  21  24
ENDBRANCH  19  20
ENDBRANCH   5  19
TORSDOF 7
ENDMDL
MODEL 6
REMARK VINA RESULT:    -7.269      2.572      3.413
REMARK INTER + INTRA:         -11.637
REMARK INTER:                 -10.739
REMARK INTRA:                  -0.898
REMARK UNBOUND:                -1.394
REMARK  Name = 
REMARK  8 active torsions:
REMARK  status: ('A' for Active; 'I' for Inactive)
REMARK    1  A    between atoms: C_1  and  C_2
REMARK    2  A    between atoms: C_2  and  C_3
REMARK    3  A    between atoms: C_3  and  C_4
REMARK    4  A    between atoms: C_3  and  N_11
REMARK    5  A    between atoms: C_4  and  C_5
REMARK    6  A    between atoms: C_15  and  C_16
REMARK    7  A    between atoms: C_16  and  N_17
REMARK    8  A    between atoms: C_18  and  C_20
REMARK                            x       y       z     vdW  Elec       q    Type
REMARK                         _______ _______ _______ _____ _____    ______ ____
ROOT
ATOM      1  N   UNL     1      45.521   5.237  10.888  0.00  0.00    +0.000 N 
ATOM      2  C   UNL     1      46.007   4.911  12.169  0.00  0.00    +0.000 A 
ATOM      3  C   UNL     1      46.463   5.954  12.976  0.00  0.00    +0.000 A 
ATOM      4  C   UNL     1      46.988   5.684  14.240  0.00  0.00    +0.000 A 
ATOM      5  C   UNL     1      47.080   4.366  14.677  0.00  0.00    +0.000 A 
ATOM      6  C   UNL     1      46.657   3.385  13.789  0.00  0.00    +0.000 A 
ATOM      7  N   UNL     1      46.116   3.631  12.566  0.00  0.00    +0.000 NA
ATOM      8  H   UNL     1      45.096   6.155  10.946  0.00  0.00    +0.000 HD
ENDROOT
BRANCH   1   9
ATOM      9  C   UNL     1      44.613   4.255  10.246  0.00  0.00    +0.000 C 
BRANCH   9  11
ATOM     10  C   UNL     1      43.004   6.001  11.255  0.00  0.00    +0.000 C 
ATOM     11  C   UNL     1      43.160   4.589  10.681  0.00  0.00    +0.000 C 
ENDBRANCH   9  11
BRANCH   9  12
ATOM     12  C   UNL     1      44.759   4.337   8.705  0.00  0.00    +0.000 C 
BRANCH  12  13
ATOM     13  C   UNL     1      45.558   3.260   7.990  0.00  0.00    +0.000 A 
ATOM     14  C   UNL     1      46.359   3.593   6.888  0.00  0.00    +0.000 A 
ATOM     15  C   UNL     1      47.263   2.671   6.350  0.00  0.00    +0.000 A 
ATOM     16  C   UNL     1      47.371   1.399   6.905  0.00  0.00    +0.000 A 
ATOM     17  C   UNL     1      46.547   1.037   7.968  0.00  0.00    +0.000 A 
ATOM     18  C   UNL     1      45.640   1.959   8.505  0.00  0.00    +0.000 A 
ENDBRANCH  12  13
ENDBRANCH   9  12
ENDBRANCH   1   9
BRANCH   5  19
ATOM     19  C   UNL     1      47.650   4.024  16.024  0.00  0.00    +0.000 C 
BRANCH  19  20
ATOM     20  N   UNL     1      47.773   5.196  16.852  0.00  0.00    +0.000 N 
ATOM     21  C   UNL     1      48.994   5.732  17.177  0.00  0.00    +0.000 C 
ATOM     22  O   UNL     1      50.046   5.272  16.739  0.00  0.00    +0.000 OA
ATOM     23  H   UNL     1      46.969   5.436  17.424  0.00  0.00    +0.000 HD
BRANCH  21  24
ATOM     24  C   UNL     1      48.966   6.934  18.021  0.00  0.00    +0.000 A 
ATOM     25  C   UNL     1      48.734   8.181  17.450  0.00  0.00    +0.000 A 
ATOM     26  S   UNL     1      48.643   9.446  18.592  0.00  0.00    +0.000 S 
ATOM     27  C   UNL     1      48.977   8.383  19.877  0.00  0.00    +0.000 A 
ATOM     28  N   UNL     1      49.054   8.832  21.158  0.00  0.00    +0.000 NA
ATOM     29  C   UNL     1      49.337   7.923  22.029  0.00  0.00    +0.000 A 
ATOM     30  N   UNL     1      49.557   6.605  21.736  0.00  0.00    +0.000 N 
ATOM     31  C   UNL     1      49.469   6.101  20.465  0.00  0.00    +0.000 A 
ATOM     32  O   UNL     1      49.642   4.905  20.237  0.00  0.00    +0.000 OA
ATOM     33  C   UNL     1      49.145   7.082  19.447  0.00  0.00    +0.000 A 
ATOM     34  H   UNL     1      49.766   5.939  22.477  0.00  0.00    +0.000 HD
ENDBRANCH  21  24
ENDBRANCH  19  20
ENDBRANCH   5  19
TORSDOF 7
ENDMDL
MODEL 7
REMARK VINA RESULT:    -7.223      3.290      4.707
REMARK INTER + INTRA:         -11.573
REMARK INTER:                 -10.354
REMARK INTRA:                  -1.219
REMARK UNBOUND:                -1.394
REMARK  Name = 
REMARK  8 active torsions:
REMARK  status: ('A' for Active; 'I' for Inactive)
REMARK    1  A    between atoms: C_1  and  C_2
REMARK    2  A    between atoms: C_2  and  C_3
REMARK    3  A    between atoms: C_3  and  C_4
REMARK    4  A    between atoms: C_3  and  N_11
REMARK    5  A    between atoms: C_4  and  C_5
REMARK    6  A    between atoms: C_15  and  C_16
REMARK    7  A    between atoms: C_16  and  N_17
REMARK    8  A    between atoms: C_18  and  C_20
REMARK                            x       y       z     vdW  Elec       q    Type
REMARK                         _______ _______ _______ _____ _____    ______ ____
ROOT
ATOM      1  N   UNL     1      44.443   6.075  10.645  0.00  0.00    +0.000 N 
ATOM      2  C   UNL     1      45.358   6.629  11.560  0.00  0.00    +0.000 A 
ATOM      3  C   UNL     1      45.083   7.901  12.064  0.00  0.00    +0.000 A 
ATOM      4  C   UNL     1      45.974   8.513  12.947  0.00  0.00    +0.000 A 
ATOM      5  C   UNL     1      47.151   7.858  13.297  0.00  0.00    +0.000 A 
ATOM      6  C   UNL     1      47.374   6.620  12.705  0.00  0.00    +0.000 A 
ATOM      7  N   UNL     1      46.505   5.997  11.867  0.00  0.00    +0.000 NA
ATOM      8  H   UNL     1      43.521   6.416  10.889  0.00  0.00    +0.000 HD
ENDROOT
BRANCH   1   9
ATOM      9  C   UNL     1      44.455   4.599  10.495  0.00  0.00    +0.000 C 
BRANCH   9  11
ATOM     10  C   UNL     1      43.618   3.052  12.382  0.00  0.00    +0.000 C 
ATOM     11  C   UNL     1      43.234   4.028  11.264  0.00  0.00    +0.000 C 
ENDBRANCH   9  11
BRANCH   9  12
ATOM     12  C   UNL     1      44.385   4.225   8.993  0.00  0.00    +0.000 C 
BRANCH  12  13
ATOM     13  C   UNL     1      45.470   3.335   8.411  0.00  0.00    +0.000 A 
ATOM     14  C   UNL     1      45.480   1.960   8.693  0.00  0.00    +0.000 A 
ATOM     15  C   UNL     1      46.331   1.090   8.006  0.00  0.00    +0.000 A 
ATOM     16  C   UNL     1      47.192   1.586   7.029  0.00  0.00    +0.000 A 
ATOM     17  C   UNL     1      47.229   2.954   6.772  0.00  0.00    +0.000 A 
ATOM     18  C   UNL     1      46.379   3.827   7.463  0.00  0.00    +0.000 A 
ENDBRANCH  12  13
ENDBRANCH   9  12
ENDBRANCH   1   9
BRANCH   5  19
ATOM     19  C   UNL     1      48.147   8.481  14.232  0.00  0.00    +0.000 C 
BRANCH  19  20
ATOM     20  N   UNL     1      49.497   8.264  13.779  0.00  0.00    +0.000 N 
ATOM     21  C   UNL     1      50.572   8.871  14.379  0.00  0.00    +0.000 C 
ATOM     22  O   UNL     1      50.447   9.591  15.367  0.00  0.00    +0.000 OA
ATOM     23  H   UNL     1      49.607   7.899  12.838  0.00  0.00    +0.000 HD
BRANCH  21  24
ATOM     24  C   UNL     1      51.890   8.549  13.815  0.00  0.00    +0.000 A 
ATOM     25  C   UNL     1      52.910   8.096  14.644  0.00  0.00    +0.000 A 
ATOM     26  S   UNL     1      54.338   7.684  13.804  0.00  0.00    +0.000 S 
ATOM     27  C   UNL     1      53.664   8.161  12.316  0.00  0.00    +0.000 A 
ATOM     28  N   UNL     1      54.378   8.075  11.162  0.00  0.00    +0.000 NA
ATOM     29  C   UNL     1      53.753   8.493  10.113  0.00  0.00    +0.000 A 
ATOM     30  N   UNL     1      52.481   8.996  10.112  0.00  0.00    +0.000 N 
ATOM     31  C   UNL     1      51.714   9.082  11.244  0.00  0.00    +0.000 A 
ATOM     32  O   UNL     1      50.563   9.510  11.207  0.00  0.00    +0.000 OA
ATOM     33  C   UNL     1      52.369   8.617  12.454  0.00  0.00    +0.000 A 
ATOM     34  H   UNL     1      52.046   9.297   9.244  0.00  0.00    +0.000 HD
ENDBRANCH  21  24
ENDBRANCH  19  20
ENDBRANCH   5  19
TORSDOF 7
ENDMDL
MODEL 8
REMARK VINA RESULT:    -6.975      4.423      6.623
REMARK INTER + INTRA:         -11.223
REMARK INTER:                 -10.322
REMARK INTRA:                  -0.901
REMARK UNBOUND:                -1.394
REMARK  Name = 
REMARK  8 active torsions:
REMARK  status: ('A' for Active; 'I' for Inactive)
REMARK    1  A    between atoms: C_1  and  C_2
REMARK    2  A    between atoms: C_2  and  C_3
REMARK    3  A    between atoms: C_3  and  C_4
REMARK    4  A    between atoms: C_3  and  N_11
REMARK    5  A    between atoms: C_4  and  C_5
REMARK    6  A    between atoms: C_15  and  C_16
REMARK    7  A    between atoms: C_16  and  N_17
REMARK    8  A    between atoms: C_18  and  C_20
REMARK                            x       y       z     vdW  Elec       q    Type
REMARK                         _______ _______ _______ _____ _____    ______ ____
ROOT
ATOM      1  N   UNL     1      44.249   5.568  10.491  0.00  0.00    +0.000 N 
ATOM      2  C   UNL     1      45.153   6.366  11.218  0.00  0.00    +0.000 A 
ATOM      3  C   UNL     1      44.642   7.472  11.899  0.00  0.00    +0.000 A 
ATOM      4  C   UNL     1      45.498   8.318  12.605  0.00  0.00    +0.000 A 
ATOM      5  C   UNL     1      46.867   8.065  12.602  0.00  0.00    +0.000 A 
ATOM      6  C   UNL     1      47.298   6.977  11.853  0.00  0.00    +0.000 A 
ATOM      7  N   UNL     1      46.476   6.127  11.183  0.00  0.00    +0.000 NA
ATOM      8  H   UNL     1      43.360   5.592  10.978  0.00  0.00    +0.000 HD
ENDROOT
BRANCH   1   9
ATOM      9  C   UNL     1      44.670   4.178  10.195  0.00  0.00    +0.000 C 
BRANCH   9  11
ATOM     10  C   UNL     1      43.242   3.788  12.307  0.00  0.00    +0.000 C 
ATOM     11  C   UNL     1      43.734   3.215  10.974  0.00  0.00    +0.000 C 
ENDBRANCH   9  11
BRANCH   9  12
ATOM     12  C   UNL     1      44.582   3.918   8.670  0.00  0.00    +0.000 C 
BRANCH  12  13
ATOM     13  C   UNL     1      45.678   3.103   8.004  0.00  0.00    +0.000 A 
ATOM     14  C   UNL     1      45.936   1.791   8.427  0.00  0.00    +0.000 A 
ATOM     15  C   UNL     1      46.783   0.952   7.697  0.00  0.00    +0.000 A 
ATOM     16  C   UNL     1      47.392   1.419   6.535  0.00  0.00    +0.000 A 
ATOM     17  C   UNL     1      47.185   2.735   6.129  0.00  0.00    +0.000 A 
ATOM     18  C   UNL     1      46.339   3.576   6.861  0.00  0.00    +0.000 A 
ENDBRANCH  12  13
ENDBRANCH   9  12
ENDBRANCH   1   9
BRANCH   5  19
ATOM     19  C   UNL     1      47.830   8.954  13.337  0.00  0.00    +0.000 C 
BRANCH  19  20
ATOM     20  N   UNL     1      48.797   9.530  12.439  0.00  0.00    +0.000 N 
ATOM     21  C   UNL     1      48.679  10.815  11.969  0.00  0.00    +0.000 C 
ATOM     22  O   UNL     1      47.769  11.559  12.328  0.00  0.00    +0.000 OA
ATOM     23  H   UNL     1      49.394   8.881  11.936  0.00  0.00    +0.000 HD
BRANCH  21  24
ATOM     24  C   UNL     1      49.746  11.272  11.069  0.00  0.00    +0.000 A 
ATOM     25  C   UNL     1      51.076  11.172  11.459  0.00  0.00    +0.000 A 
ATOM     26  S   UNL     1      52.179  11.662  10.251  0.00  0.00    +0.000 S 
ATOM     27  C   UNL     1      50.915  12.088   9.195  0.00  0.00    +0.000 A 
ATOM     28  N   UNL     1      51.172  12.597   7.961  0.00  0.00    +0.000 NA
ATOM     29  C   UNL     1      50.121  12.898   7.275  0.00  0.00    +0.000 A 
ATOM     30  N   UNL     1      48.834  12.742   7.712  0.00  0.00    +0.000 N 
ATOM     31  C   UNL     1      48.524  12.212   8.937  0.00  0.00    +0.000 A 
ATOM     32  O   UNL     1      47.357  12.056   9.290  0.00  0.00    +0.000 OA
ATOM     33  C   UNL     1      49.672  11.851   9.747  0.00  0.00    +0.000 A 
ATOM     34  H   UNL     1      48.052  12.990   7.112  0.00  0.00    +0.000 HD
ENDBRANCH  21  24
ENDBRANCH  19  20
ENDBRANCH   5  19
TORSDOF 7
ENDMDL
MODEL 9
REMARK VINA RESULT:    -6.937      3.057      8.464
REMARK INTER + INTRA:         -11.170
REMARK INTER:                  -9.736
REMARK INTRA:                  -1.434
REMARK UNBOUND:                -1.394
REMARK  Name = 
REMARK  8 active torsions:
REMARK  status: ('A' for Active; 'I' for Inactive)
REMARK    1  A    between atoms: C_1  and  C_2
REMARK    2  A    between atoms: C_2  and  C_3
REMARK    3  A    between atoms: C_3  and  C_4
REMARK    4  A    between atoms: C_3  and  N_11
REMARK    5  A    between atoms: C_4  and  C_5
REMARK    6  A    between atoms: C_15  and  C_16
REMARK    7  A    between atoms: C_16  and  N_17
REMARK    8  A    between atoms: C_18  and  C_20
REMARK                            x       y       z     vdW  Elec       q    Type
REMARK                         _______ _______ _______ _____ _____    ______ ____
ROOT
ATOM      1  N   UNL     1      51.060   7.590  16.447  0.00  0.00    +0.000 N 
ATOM      2  C   UNL     1      50.228   7.623  15.312  0.00  0.00    +0.000 A 
ATOM      3  C   UNL     1      50.074   8.845  14.654  0.00  0.00    +0.000 A 
ATOM      4  C   UNL     1      49.233   8.944  13.545  0.00  0.00    +0.000 A 
ATOM      5  C   UNL     1      48.528   7.822  13.118  0.00  0.00    +0.000 A 
ATOM      6  C   UNL     1      48.695   6.661  13.863  0.00  0.00    +0.000 A 
ATOM      7  N   UNL     1      49.531   6.539  14.927  0.00  0.00    +0.000 NA
ATOM      8  H   UNL     1      51.796   8.271  16.307  0.00  0.00    +0.000 HD
ENDROOT
BRANCH   1   9
ATOM      9  C   UNL     1      51.608   6.268  16.837  0.00  0.00    +0.000 C 
BRANCH   9  11
ATOM     10  C   UNL     1      54.002   6.201  15.880  0.00  0.00    +0.000 C 
ATOM     11  C   UNL     1      53.126   6.440  17.114  0.00  0.00    +0.000 C 
ENDBRANCH   9  11
BRANCH   9  12
ATOM     12  C   UNL     1      50.872   5.749  18.099  0.00  0.00    +0.000 C 
BRANCH  12  13
ATOM     13  C   UNL     1      49.728   4.764  17.923  0.00  0.00    +0.000 A 
ATOM     14  C   UNL     1      48.400   5.196  18.059  0.00  0.00    +0.000 A 
ATOM     15  C   UNL     1      47.334   4.369  17.694  0.00  0.00    +0.000 A 
ATOM     16  C   UNL     1      47.582   3.093  17.194  0.00  0.00    +0.000 A 
ATOM     17  C   UNL     1      48.893   2.632  17.099  0.00  0.00    +0.000 A 
ATOM     18  C   UNL     1      49.962   3.459  17.468  0.00  0.00    +0.000 A 
ENDBRANCH  12  13
ENDBRANCH   9  12
ENDBRANCH   1   9
BRANCH   5  19
ATOM     19  C   UNL     1      47.601   7.882  11.938  0.00  0.00    +0.000 C 
BRANCH  19  20
ATOM     20  N   UNL     1      46.903   6.635  11.758  0.00  0.00    +0.000 N 
ATOM     21  C   UNL     1      45.533   6.558  11.784  0.00  0.00    +0.000 C 
ATOM     22  O   UNL     1      44.825   7.555  11.910  0.00  0.00    +0.000 OA
ATOM     23  H   UNL     1      47.440   5.787  11.909  0.00  0.00    +0.000 HD
BRANCH  21  24
ATOM     24  C   UNL     1      44.959   5.222  11.577  0.00  0.00    +0.000 A 
ATOM     25  C   UNL     1      44.305   4.575  12.619  0.00  0.00    +0.000 A 
ATOM     26  S   UNL     1      43.623   3.076  12.171  0.00  0.00    +0.000 S 
ATOM     27  C   UNL     1      44.234   3.210  10.589  0.00  0.00    +0.000 A 
ATOM     28  N   UNL     1      44.016   2.236   9.667  0.00  0.00    +0.000 NA
ATOM     29  C   UNL     1      44.557   2.456   8.516  0.00  0.00    +0.000 A 
ATOM     30  N   UNL     1      45.304   3.559   8.204  0.00  0.00    +0.000 N 
ATOM     31  C   UNL     1      45.533   4.577   9.091  0.00  0.00    +0.000 A 
ATOM     32  O   UNL     1      46.182   5.570   8.772  0.00  0.00    +0.000 OA
ATOM     33  C   UNL     1      44.939   4.382  10.401  0.00  0.00    +0.000 A 
ATOM     34  H   UNL     1      45.692   3.672   7.270  0.00  0.00    +0.000 HD
ENDBRANCH  21  24
ENDBRANCH  19  20
ENDBRANCH   5  19
TORSDOF 7
ENDMDL
