MODEL 1
REMARK VINA RESULT:    -8.220      0.000      0.000
REMARK INTER + INTRA:         -11.453
REMARK INTER:                 -10.623
REMARK INTRA:                  -0.830
REMARK UNBOUND:                -0.830
REMARK  Name = 
REMARK  6 active torsions:
REMARK  status: ('A' for Active; 'I' for Inactive)
REMARK    1  A    between atoms: C_1  and  C_2
REMARK    2  A    between atoms: C_2  and  N_3
REMARK    3  A    between atoms: C_2  and  C_16
REMARK    4  A    between atoms: C_4  and  C_6
REMARK    5  A    between atoms: C_19  and  C_20
REMARK    6  A    between atoms: C_20  and  C_21
REMARK                            x       y       z     vdW  Elec       q    Type
REMARK                         _______ _______ _______ _____ _____    ______ ____
ROOT
ATOM      1  C   UNL     1      45.531   9.162  12.892  0.00  0.00    +0.000 C 
ATOM      2  C   UNL     1      46.525   8.018  12.662  0.00  0.00    +0.000 C 
ENDROOT
BRANCH   2   3
ATOM      3  C   UNL     1      45.867   6.905  11.857  0.00  0.00    +0.000 A 
ATOM      4  C   UNL     1      46.429   6.469  10.650  0.00  0.00    +0.000 A 
ATOM      5  C   UNL     1      45.874   5.389   9.956  0.00  0.00    +0.000 A 
ATOM      6  C   UNL     1      44.743   4.726  10.451  0.00  0.00    +0.000 A 
ATOM      7  C   UNL     1      44.154   5.191  11.633  0.00  0.00    +0.000 A 
ATOM      8  C   UNL     1      44.712   6.264  12.329  0.00  0.00    +0.000 A 
BRANCH   6   9
ATOM      9  C   UNL     1      44.174   3.526   9.734  0.00  0.00    +0.000 C 
BRANCH   9  10
ATOM     10  C   UNL     1      45.054   2.935   8.660  0.00  0.00    +0.000 A 
ATOM     11  C   UNL     1      45.607   1.657   8.795  0.00  0.00    +0.000 A 
ATOM     12  C   UNL     1      46.526   1.195   7.855  0.00  0.00    +0.000 A 
ATOM     13  C   UNL     1      46.854   2.022   6.794  0.00  0.00    +0.000 A 
ATOM     14  N   UNL     1      46.315   3.243   6.604  0.00  0.00    +0.000 NA
ATOM     15  C   UNL     1      45.431   3.669   7.538  0.00  0.00    +0.000 A 
ENDBRANCH   9  10
ENDBRANCH   6   9
ENDBRANCH   2   3
BRANCH   2  16
ATOM     16  N   UNL     1      47.042   7.459  13.903  0.00  0.00    +0.000 N 
ATOM     17  C   UNL     1      48.273   6.859  14.000  0.00  0.00    +0.000 C 
ATOM     18  O   UNL     1      49.053   6.794  13.057  0.00  0.00    +0.000 OA
ATOM     19  H   UNL     1      46.340   7.204  14.595  0.00  0.00    +0.000 HD
BRANCH  17  20
ATOM     20  C   UNL     1      48.648   6.356  15.326  0.00  0.00    +0.000 A 
ATOM     21  C   UNL     1      49.638   7.006  16.048  0.00  0.00    +0.000 A 
ATOM     22  S   UNL     1      49.958   6.293  17.563  0.00  0.00    +0.000 S 
ATOM     23  C   UNL     1      48.813   5.065  17.285  0.00  0.00    +0.000 A 
ATOM     24  N   UNL     1      48.620   4.072  18.195  0.00  0.00    +0.000 NA
ATOM     25  C   UNL     1      47.744   3.189  17.839  0.00  0.00    +0.000 A 
ATOM     26  N   UNL     1      47.033   3.220  16.668  0.00  0.00    +0.000 N 
ATOM     27  C   UNL     1      47.168   4.226  15.737  0.00  0.00    +0.000 A 
ATOM     28  O   UNL     1      46.476   4.266  14.728  0.00  0.00    +0.000 OA
ATOM     29  C   UNL     1      48.168   5.220  16.072  0.00  0.00    +0.000 A 
ATOM     30  H   UNL     1      46.341   2.513  16.463  0.00  0.00    +0.000 HD
ENDBRANCH  17  20
ENDBRANCH   2  16
TORSDOF 5
ENDMDL
MODEL 2
REMARK VINA RESULT:    -7.966      2.806      4.267
REMARK INTER + INTRA:         -11.125
REMARK INTER:                 -10.040
REMARK INTRA:                  -1.085
REMARK UNBOUND:                -0.830
REMARK  Name = 
REMARK  6 active torsions:
REMARK  status: ('A' for Active; 'I' for Inactive)
REMARK    1  A    between atoms: C_1  and  C_2
REMARK    2  A    between atoms: C_2  and  N_3
REMARK    3  A    between atoms: C_2  and  C_16
REMARK    4  A    between atoms: C_4  and  C_6
REMARK    5  A    between atoms: C_19  and  C_20
REMARK    6  A    between atoms: C_20  and  C_21
REMARK                            x       y       z     vdW  Elec       q    Type
REMARK                         _______ _______ _______ _____ _____    ______ ____
ROOT
ATOM      1  C   UNL     1      46.464   4.811  14.379  0.00  0.00    +0.000 C 
ATOM      2  C   UNL     1      46.082   5.835  13.304  0.00  0.00    +0.000 C 
ENDROOT
BRANCH   2   3
ATOM      3  C   UNL     1      45.651   5.122  12.030  0.00  0.00    +0.000 A 
ATOM      4  C   UNL     1      45.788   5.743  10.782  0.00  0.00    +0.000 A 
ATOM      5  C   UNL     1      45.474   5.055   9.606  0.00  0.00    +0.000 A 
ATOM      6  C   UNL     1      45.010   3.734   9.653  0.00  0.00    +0.000 A 
ATOM      7  C   UNL     1      44.829   3.128  10.902  0.00  0.00    +0.000 A 
ATOM      8  C   UNL     1      45.149   3.812  12.075  0.00  0.00    +0.000 A 
BRANCH   6   9
ATOM      9  C   UNL     1      44.722   2.969   8.384  0.00  0.00    +0.000 C 
BRANCH   9  10
ATOM     10  C   UNL     1      45.919   2.694   7.507  0.00  0.00    +0.000 A 
ATOM     11  C   UNL     1      46.223   3.514   6.414  0.00  0.00    +0.000 A 
ATOM     12  C   UNL     1      47.250   3.156   5.543  0.00  0.00    +0.000 A 
ATOM     13  C   UNL     1      47.955   1.993   5.799  0.00  0.00    +0.000 A 
ATOM     14  N   UNL     1      47.722   1.197   6.863  0.00  0.00    +0.000 NA
ATOM     15  C   UNL     1      46.713   1.565   7.687  0.00  0.00    +0.000 A 
ENDBRANCH   9  10
ENDBRANCH   6   9
ENDBRANCH   2   3
BRANCH   2  16
ATOM     16  N   UNL     1      47.167   6.753  12.987  0.00  0.00    +0.000 N 
ATOM     17  C   UNL     1      47.016   8.118  12.977  0.00  0.00    +0.000 C 
ATOM     18  O   UNL     1      45.965   8.669  13.286  0.00  0.00    +0.000 OA
ATOM     19  H   UNL     1      47.925   6.362  12.431  0.00  0.00    +0.000 HD
BRANCH  17  20
ATOM     20  C   UNL     1      48.210   8.902  12.645  0.00  0.00    +0.000 A 
ATOM     21  C   UNL     1      48.099   9.984  11.785  0.00  0.00    +0.000 A 
ATOM     22  S   UNL     1      49.578  10.784  11.500  0.00  0.00    +0.000 S 
ATOM     23  C   UNL     1      50.423   9.682  12.483  0.00  0.00    +0.000 A 
ATOM     24  N   UNL     1      51.773   9.773  12.633  0.00  0.00    +0.000 NA
ATOM     25  C   UNL     1      52.287   8.852  13.382  0.00  0.00    +0.000 A 
ATOM     26  N   UNL     1      51.573   7.862  14.006  0.00  0.00    +0.000 N 
ATOM     27  C   UNL     1      50.203   7.755  13.914  0.00  0.00    +0.000 A 
ATOM     28  O   UNL     1      49.581   6.901  14.533  0.00  0.00    +0.000 OA
ATOM     29  C   UNL     1      49.584   8.742  13.052  0.00  0.00    +0.000 A 
ATOM     30  H   UNL     1      52.034   7.189  14.602  0.00  0.00    +0.000 HD
ENDBRANCH  17  20
ENDBRANCH   2  16
TORSDOF 5
ENDMDL
MODEL 3
REMARK VINA RESULT:    -7.821      2.145      2.597
REMARK INTER + INTRA:         -10.937
REMARK INTER:                  -9.919
REMARK INTRA:                  -1.017
REMARK UNBOUND:                -0.830
REMARK  Name = 
REMARK  6 active torsions:
REMARK  status: ('A' for Active; 'I' for Inactive)
REMARK    1  A    between atoms: C_1  and  C_2
REMARK    2  A    between atoms: C_2  and  N_3
REMARK    3  A    between atoms: C_2  and  C_16
REMARK    4  A    between atoms: C_4  and  C_6
REMARK    5  A    between atoms: C_19  and  C_20
REMARK    6  A    between atoms: C_20  and  C_21
REMARK                            x       y       z     vdW  Elec       q    Type
REMARK                         _______ _______ _______ _____ _____    ______ ____
ROOT
ATOM      1  C   UNL     1      47.389   8.645  13.738  0.00  0.00    +0.000 C 
ATOM      2  C   UNL     1      47.775   7.161  13.749  0.00  0.00    +0.000 C 
ENDROOT
BRANCH   2   3
ATOM      3  C   UNL     1      46.812   6.362  12.882  0.00  0.00    +0.000 A 
ATOM      4  C   UNL     1      46.297   6.905  11.699  0.00  0.00    +0.000 A 
ATOM      5  C   UNL     1      45.482   6.138  10.859  0.00  0.00    +0.000 A 
ATOM      6  C   UNL     1      45.162   4.814  11.188  0.00  0.00    +0.000 A 
ATOM      7  C   UNL     1      45.639   4.286  12.394  0.00  0.00    +0.000 A 
ATOM      8  C   UNL     1      46.457   5.048  13.228  0.00  0.00    +0.000 A 
BRANCH   6   9
ATOM      9  C   UNL     1      44.328   3.966  10.259  0.00  0.00    +0.000 C 
BRANCH   9  10
ATOM     10  C   UNL     1      45.070   3.367   9.089  0.00  0.00    +0.000 A 
ATOM     11  C   UNL     1      45.428   2.015   9.070  0.00  0.00    +0.000 A 
ATOM     12  C   UNL     1      46.232   1.523   8.043  0.00  0.00    +0.000 A 
ATOM     13  C   UNL     1      46.642   2.398   7.053  0.00  0.00    +0.000 A 
ATOM     14  N   UNL     1      46.286   3.698   7.010  0.00  0.00    +0.000 NA
ATOM     15  C   UNL     1      45.512   4.149   8.025  0.00  0.00    +0.000 A 
ENDBRANCH   9  10
ENDBRANCH   6   9
ENDBRANCH   2   3
BRANCH   2  16
ATOM     16  N   UNL     1      47.789   6.591  15.089  0.00  0.00    +0.000 N 
ATOM     17  C   UNL     1      48.946   6.316  15.775  0.00  0.00    +0.000 C 
ATOM     18  O   UNL     1      50.058   6.578  15.329  0.00  0.00    +0.000 OA
ATOM     19  H   UNL     1      46.953   6.075  15.355  0.00  0.00    +0.000 HD
BRANCH  17  20
ATOM     20  C   UNL     1      48.786   5.751  17.118  0.00  0.00    +0.000 A 
ATOM     21  C   UNL     1      49.045   4.405  17.329  0.00  0.00    +0.000 A 
ATOM     22  S   UNL     1      48.808   3.907  18.942  0.00  0.00    +0.000 S 
ATOM     23  C   UNL     1      48.307   5.466  19.404  0.00  0.00    +0.000 A 
ATOM     24  N   UNL     1      47.905   5.722  20.679  0.00  0.00    +0.000 NA
ATOM     25  C   UNL     1      47.522   6.941  20.880  0.00  0.00    +0.000 A 
ATOM     26  N   UNL     1      47.522   7.928  19.930  0.00  0.00    +0.000 N 
ATOM     27  C   UNL     1      47.956   7.725  18.639  0.00  0.00    +0.000 A 
ATOM     28  O   UNL     1      48.008   8.638  17.826  0.00  0.00    +0.000 OA
ATOM     29  C   UNL     1      48.360   6.362  18.352  0.00  0.00    +0.000 A 
ATOM     30  H   UNL     1      47.236   8.869  20.161  0.00  0.00    +0.000 HD
ENDBRANCH  17  20
ENDBRANCH   2  16
TORSDOF 5
ENDMDL
MODEL 4
REMARK VINA RESULT:    -7.626      3.142      7.677
REMARK INTER + INTRA:         -10.685
REMARK INTER:                  -9.594
REMARK INTRA:                  -1.092
REMARK UNBOUND:                -0.830
REMARK  Name = 
REMARK  6 active torsions:
REMARK  status: ('A' for Active; 'I' for Inactive)
REMARK    1  A    between atoms: C_1  and  C_2
REMARK    2  A    between atoms: C_2  and  N_3
REMARK    3  A    between atoms: C_2  and  C_16
REMARK    4  A    between atoms: C_4  and  C_6
REMARK    5  A    between atoms: C_19  and  C_20
REMARK    6  A    between atoms: C_20  and  C_21
REMARK                            x       y       z     vdW  Elec       q    Type
REMARK                         _______ _______ _______ _____ _____    ______ ____
ROOT
ATOM      1  C   UNL     1      49.832   7.824  12.122  0.00  0.00    +0.000 C 
ATOM      2  C   UNL     1      48.529   7.458  12.842  0.00  0.00    +0.000 C 
ENDROOT
BRANCH   2   3
ATOM      3  C   UNL     1      48.833   6.910  14.230  0.00  0.00    +0.000 A 
ATOM      4  C   UNL     1      47.952   6.019  14.855  0.00  0.00    +0.000 A 
ATOM      5  C   UNL     1      48.273   5.448  16.091  0.00  0.00    +0.000 A 
ATOM      6  C   UNL     1      49.481   5.761  16.730  0.00  0.00    +0.000 A 
ATOM      7  C   UNL     1      50.341   6.687  16.127  0.00  0.00    +0.000 A 
ATOM      8  C   UNL     1      50.024   7.250  14.891  0.00  0.00    +0.000 A 
BRANCH   6   9
ATOM      9  C   UNL     1      49.857   5.106  18.037  0.00  0.00    +0.000 C 
BRANCH   9  10
ATOM     10  C   UNL     1      50.598   3.797  17.916  0.00  0.00    +0.000 A 
ATOM     11  C   UNL     1      51.961   3.703  18.216  0.00  0.00    +0.000 A 
ATOM     12  C   UNL     1      52.648   2.518  17.962  0.00  0.00    +0.000 A 
ATOM     13  C   UNL     1      51.945   1.452  17.428  0.00  0.00    +0.000 A 
ATOM     14  N   UNL     1      50.624   1.486  17.162  0.00  0.00    +0.000 NA
ATOM     15  C   UNL     1      49.985   2.653  17.411  0.00  0.00    +0.000 A 
ENDBRANCH   9  10
ENDBRANCH   6   9
ENDBRANCH   2   3
BRANCH   2  16
ATOM     16  N   UNL     1      47.734   6.480  12.113  0.00  0.00    +0.000 N 
ATOM     17  C   UNL     1      46.441   6.711  11.716  0.00  0.00    +0.000 C 
ATOM     18  O   UNL     1      45.872   7.782  11.903  0.00  0.00    +0.000 OA
ATOM     19  H   UNL     1      48.026   5.510  12.219  0.00  0.00    +0.000 HD
BRANCH  17  20
ATOM     20  C   UNL     1      45.782   5.626  10.981  0.00  0.00    +0.000 A 
ATOM     21  C   UNL     1      45.871   5.586   9.598  0.00  0.00    +0.000 A 
ATOM     22  S   UNL     1      45.048   4.267   8.898  0.00  0.00    +0.000 S 
ATOM     23  C   UNL     1      44.508   3.729  10.421  0.00  0.00    +0.000 A 
ATOM     24  N   UNL     1      43.696   2.643  10.530  0.00  0.00    +0.000 NA
ATOM     25  C   UNL     1      43.338   2.368  11.743  0.00  0.00    +0.000 A 
ATOM     26  N   UNL     1      43.732   3.068  12.853  0.00  0.00    +0.000 N 
ATOM     27  C   UNL     1      44.584   4.149  12.793  0.00  0.00    +0.000 A 
ATOM     28  O   UNL     1      44.973   4.718  13.804  0.00  0.00    +0.000 OA
ATOM     29  C   UNL     1      44.982   4.522  11.450  0.00  0.00    +0.000 A 
ATOM     30  H   UNL     1      43.439   2.783  13.776  0.00  0.00    +0.000 HD
ENDBRANCH  17  20
ENDBRANCH   2  16
TORSDOF 5
ENDMDL
MODEL 5
REMARK VINA RESULT:    -7.501      2.332      2.940
REMARK INTER + INTRA:         -10.523
REMARK INTER:                  -9.659
REMARK INTRA:                  -0.864
REMARK UNBOUND:                -0.830
REMARK  Name = 
REMARK  6 active torsions:
REMARK  status: ('A' for Active; 'I' for Inactive)
REMARK    1  A    between atoms: C_1  and  C_2
REMARK    2  A    between atoms: C_2  and  N_3
REMARK    3  A    between atoms: C_2  and  C_16
REMARK    4  A    between atoms: C_4  and  C_6
REMARK    5  A    between atoms: C_19  and  C_20
REMARK    6  A    between atoms: C_20  and  C_21
REMARK                            x       y       z     vdW  Elec       q    Type
REMARK                         _______ _______ _______ _____ _____    ______ ____
ROOT
ATOM      1  C   UNL     1      49.415   8.128  13.573  0.00  0.00    +0.000 C 
ATOM      2  C   UNL     1      48.861   6.850  14.212  0.00  0.00    +0.000 C 
ENDROOT
BRANCH   2   3
ATOM      3  C   UNL     1      47.661   6.346  13.423  0.00  0.00    +0.000 A 
ATOM      4  C   UNL     1      47.066   7.147  12.439  0.00  0.00    +0.000 A 
ATOM      5  C   UNL     1      46.019   6.651  11.655  0.00  0.00    +0.000 A 
ATOM      6  C   UNL     1      45.543   5.347  11.841  0.00  0.00    +0.000 A 
ATOM      7  C   UNL     1      46.106   4.562  12.854  0.00  0.00    +0.000 A 
ATOM      8  C   UNL     1      47.155   5.054  13.632  0.00  0.00    +0.000 A 
BRANCH   6   9
ATOM      9  C   UNL     1      44.451   4.789  10.961  0.00  0.00    +0.000 C 
BRANCH   9  10
ATOM     10  C   UNL     1      44.923   3.998   9.765  0.00  0.00    +0.000 A 
ATOM     11  C   UNL     1      44.919   2.599   9.772  0.00  0.00    +0.000 A 
ATOM     12  C   UNL     1      45.490   1.898   8.711  0.00  0.00    +0.000 A 
ATOM     13  C   UNL     1      46.035   2.620   7.663  0.00  0.00    +0.000 A 
ATOM     14  N   UNL     1      46.023   3.967   7.597  0.00  0.00    +0.000 NA
ATOM     15  C   UNL     1      45.470   4.621   8.646  0.00  0.00    +0.000 A 
ENDBRANCH   9  10
ENDBRANCH   6   9
ENDBRANCH   2   3
BRANCH   2  16
ATOM     16  N   UNL     1      48.468   7.035  15.602  0.00  0.00    +0.000 N 
ATOM     17  C   UNL     1      49.188   6.534  16.658  0.00  0.00    +0.000 C 
ATOM     18  O   UNL     1      50.247   5.934  16.512  0.00  0.00    +0.000 OA
ATOM     19  H   UNL     1      47.480   7.227  15.756  0.00  0.00    +0.000 HD
BRANCH  17  20
ATOM     20  C   UNL     1      48.660   6.818  17.997  0.00  0.00    +0.000 A 
ATOM     21  C   UNL     1      48.244   8.104  18.308  0.00  0.00    +0.000 A 
ATOM     22  S   UNL     1      47.664   8.267  19.903  0.00  0.00    +0.000 S 
ATOM     23  C   UNL     1      47.991   6.632  20.244  0.00  0.00    +0.000 A 
ATOM     24  N   UNL     1      47.764   6.118  21.484  0.00  0.00    +0.000 NA
ATOM     25  C   UNL     1      48.088   4.872  21.609  0.00  0.00    +0.000 A 
ATOM     26  N   UNL     1      48.600   4.091  20.605  0.00  0.00    +0.000 N 
ATOM     27  C   UNL     1      48.809   4.559  19.327  0.00  0.00    +0.000 A 
ATOM     28  O   UNL     1      49.206   3.825  18.431  0.00  0.00    +0.000 OA
ATOM     29  C   UNL     1      48.498   5.962  19.146  0.00  0.00    +0.000 A 
ATOM     30  H   UNL     1      48.806   3.115  20.762  0.00  0.00    +0.000 HD
ENDBRANCH  17  20
ENDBRANCH   2  16
TORSDOF 5
ENDMDL
MODEL 6
REMARK VINA RESULT:    -7.236      2.310      4.180
REMARK INTER + INTRA:         -10.181
REMARK INTER:                  -9.835
REMARK INTRA:                  -0.346
REMARK UNBOUND:                -0.830
REMARK  Name = 
REMARK  6 active torsions:
REMARK  status: ('A' for Active; 'I' for Inactive)
REMARK    1  A    between atoms: C_1  and  C_2
REMARK    2  A    between atoms: C_2  and  N_3
REMARK    3  A    between atoms: C_2  and  C_16
REMARK    4  A    between atoms: C_4  and  C_6
REMARK    5  A    between atoms: C_19  and  C_20
REMARK    6  A    between atoms: C_20  and  C_21
REMARK                            x       y       z     vdW  Elec       q    Type
REMARK                         _______ _______ _______ _____ _____    ______ ____
ROOT
ATOM      1  C   UNL     1      46.928   3.951  14.656  0.00  0.00    +0.000 C 
ATOM      2  C   UNL     1      46.323   5.157  13.929  0.00  0.00    +0.000 C 
ENDROOT
BRANCH   2   3
ATOM      3  C   UNL     1      45.801   4.739  12.562  0.00  0.00    +0.000 A 
ATOM      4  C   UNL     1      45.915   5.596  11.460  0.00  0.00    +0.000 A 
ATOM      5  C   UNL     1      45.516   5.177  10.187  0.00  0.00    +0.000 A 
ATOM      6  C   UNL     1      44.989   3.894   9.990  0.00  0.00    +0.000 A 
ATOM      7  C   UNL     1      44.833   3.052  11.098  0.00  0.00    +0.000 A 
ATOM      8  C   UNL     1      45.238   3.468  12.367  0.00  0.00    +0.000 A 
BRANCH   6   9
ATOM      9  C   UNL     1      44.608   3.418   8.609  0.00  0.00    +0.000 C 
BRANCH   9  10
ATOM     10  C   UNL     1      45.737   2.848   7.785  0.00  0.00    +0.000 A 
ATOM     11  C   UNL     1      46.196   3.497   6.634  0.00  0.00    +0.000 A 
ATOM     12  C   UNL     1      47.143   2.879   5.819  0.00  0.00    +0.000 A 
ATOM     13  C   UNL     1      47.615   1.632   6.189  0.00  0.00    +0.000 A 
ATOM     14  N   UNL     1      47.230   0.990   7.310  0.00  0.00    +0.000 NA
ATOM     15  C   UNL     1      46.304   1.610   8.078  0.00  0.00    +0.000 A 
ENDBRANCH   9  10
ENDBRANCH   6   9
ENDBRANCH   2   3
BRANCH   2  16
ATOM     16  N   UNL     1      47.271   6.249  13.758  0.00  0.00    +0.000 N 
ATOM     17  C   UNL     1      48.242   6.551  14.681  0.00  0.00    +0.000 C 
ATOM     18  O   UNL     1      48.416   5.889  15.698  0.00  0.00    +0.000 OA
ATOM     19  H   UNL     1      46.975   6.993  13.129  0.00  0.00    +0.000 HD
BRANCH  17  20
ATOM     20  C   UNL     1      49.123   7.677  14.353  0.00  0.00    +0.000 A 
ATOM     21  C   UNL     1      50.480   7.581  14.619  0.00  0.00    +0.000 A 
ATOM     22  S   UNL     1      51.362   8.974  14.184  0.00  0.00    +0.000 S 
ATOM     23  C   UNL     1      49.949   9.769  13.666  0.00  0.00    +0.000 A 
ATOM     24  N   UNL     1      49.996  11.050  13.210  0.00  0.00    +0.000 NA
ATOM     25  C   UNL     1      48.845  11.539  12.880  0.00  0.00    +0.000 A 
ATOM     26  N   UNL     1      47.657  10.859  12.949  0.00  0.00    +0.000 N 
ATOM     27  C   UNL     1      47.568   9.550  13.368  0.00  0.00    +0.000 A 
ATOM     28  O   UNL     1      46.505   8.943  13.359  0.00  0.00    +0.000 OA
ATOM     29  C   UNL     1      48.828   8.969  13.786  0.00  0.00    +0.000 A 
ATOM     30  H   UNL     1      46.795  11.291  12.649  0.00  0.00    +0.000 HD
ENDBRANCH  17  20
ENDBRANCH   2  16
TORSDOF 5
ENDMDL
MODEL 7
REMARK VINA RESULT:    -7.009      3.993      8.914
REMARK INTER + INTRA:          -9.888
REMARK INTER:                  -9.011
REMARK INTRA:                  -0.877
REMARK UNBOUND:                -0.830
REMARK  Name = 
REMARK  6 active torsions:
REMARK  status: ('A' for Active; 'I' for Inactive)
REMARK    1  A    between atoms: C_1  and  C_2
REMARK    2  A    between atoms: C_2  and  N_3
REMARK    3  A    between atoms: C_2  and  C_16
REMARK    4  A    between atoms: C_4  and  C_6
REMARK    5  A    between atoms: C_19  and  C_20
REMARK    6  A    between atoms: C_20  and  C_21
REMARK                            x       y       z     vdW  Elec       q    Type
REMARK                         _______ _______ _______ _____ _____    ______ ____
ROOT
ATOM      1  C   UNL     1      47.008   4.681  18.305  0.00  0.00    +0.000 C 
ATOM      2  C   UNL     1      47.660   4.152  17.023  0.00  0.00    +0.000 C 
ENDROOT
BRANCH   2   3
ATOM      3  C   UNL     1      49.175   4.149  17.166  0.00  0.00    +0.000 A 
ATOM      4  C   UNL     1      49.907   5.336  17.040  0.00  0.00    +0.000 A 
ATOM      5  C   UNL     1      51.289   5.348  17.259  0.00  0.00    +0.000 A 
ATOM      6  C   UNL     1      51.968   4.171  17.602  0.00  0.00    +0.000 A 
ATOM      7  C   UNL     1      51.244   2.975  17.684  0.00  0.00    +0.000 A 
ATOM      8  C   UNL     1      49.865   2.965  17.473  0.00  0.00    +0.000 A 
BRANCH   6   9
ATOM      9  C   UNL     1      53.449   4.189  17.892  0.00  0.00    +0.000 C 
BRANCH   9  10
ATOM     10  C   UNL     1      54.058   2.852  18.234  0.00  0.00    +0.000 A 
ATOM     11  C   UNL     1      54.398   1.931  17.236  0.00  0.00    +0.000 A 
ATOM     12  C   UNL     1      54.828   0.653  17.587  0.00  0.00    +0.000 A 
ATOM     13  C   UNL     1      54.921   0.337  18.932  0.00  0.00    +0.000 A 
ATOM     14  N   UNL     1      54.644   1.206  19.925  0.00  0.00    +0.000 NA
ATOM     15  C   UNL     1      54.221   2.437  19.554  0.00  0.00    +0.000 A 
ENDBRANCH   9  10
ENDBRANCH   6   9
ENDBRANCH   2   3
BRANCH   2  16
ATOM     16  N   UNL     1      47.299   4.926  15.843  0.00  0.00    +0.000 N 
ATOM     17  C   UNL     1      47.152   4.370  14.597  0.00  0.00    +0.000 C 
ATOM     18  O   UNL     1      47.264   3.166  14.392  0.00  0.00    +0.000 OA
ATOM     19  H   UNL     1      47.509   5.921  15.891  0.00  0.00    +0.000 HD
BRANCH  17  20
ATOM     20  C   UNL     1      46.776   5.287  13.516  0.00  0.00    +0.000 A 
ATOM     21  C   UNL     1      47.703   6.205  13.046  0.00  0.00    +0.000 A 
ATOM     22  S   UNL     1      47.108   7.198  11.794  0.00  0.00    +0.000 S 
ATOM     23  C   UNL     1      45.575   6.463  11.870  0.00  0.00    +0.000 A 
ATOM     24  N   UNL     1      44.556   6.888  11.074  0.00  0.00    +0.000 NA
ATOM     25  C   UNL     1      43.440   6.261  11.261  0.00  0.00    +0.000 A 
ATOM     26  N   UNL     1      43.256   5.239  12.155  0.00  0.00    +0.000 N 
ATOM     27  C   UNL     1      44.268   4.751  12.952  0.00  0.00    +0.000 A 
ATOM     28  O   UNL     1      44.096   3.795  13.696  0.00  0.00    +0.000 OA
ATOM     29  C   UNL     1      45.531   5.448  12.808  0.00  0.00    +0.000 A 
ATOM     30  H   UNL     1      42.364   4.772  12.231  0.00  0.00    +0.000 HD
ENDBRANCH  17  20
ENDBRANCH   2  16
TORSDOF 5
ENDMDL
MODEL 8
REMARK VINA RESULT:    -6.977      2.880      8.436
REMARK INTER + INTRA:          -9.847
REMARK INTER:                  -8.691
REMARK INTRA:                  -1.156
REMARK UNBOUND:                -0.830
REMARK  Name = 
REMARK  6 active torsions:
REMARK  status: ('A' for Active; 'I' for Inactive)
REMARK    1  A    between atoms: C_1  and  C_2
REMARK    2  A    between atoms: C_2  and  N_3
REMARK    3  A    between atoms: C_2  and  C_16
REMARK    4  A    between atoms: C_4  and  C_6
REMARK    5  A    between atoms: C_19  and  C_20
REMARK    6  A    between atoms: C_20  and  C_21
REMARK                            x       y       z     vdW  Elec       q    Type
REMARK                         _______ _______ _______ _____ _____    ______ ____
ROOT
ATOM      1  C   UNL     1      49.191   7.695  11.397  0.00  0.00    +0.000 C 
ATOM      2  C   UNL     1      47.867   7.700  12.170  0.00  0.00    +0.000 C 
ENDROOT
BRANCH   2   3
ATOM      3  C   UNL     1      48.132   7.827  13.664  0.00  0.00    +0.000 A 
ATOM      4  C   UNL     1      48.475   6.704  14.427  0.00  0.00    +0.000 A 
ATOM      5  C   UNL     1      48.803   6.836  15.780  0.00  0.00    +0.000 A 
ATOM      6  C   UNL     1      48.790   8.093  16.400  0.00  0.00    +0.000 A 
ATOM      7  C   UNL     1      48.403   9.210  15.649  0.00  0.00    +0.000 A 
ATOM      8  C   UNL     1      48.083   9.079  14.298  0.00  0.00    +0.000 A 
BRANCH   6   9
ATOM      9  C   UNL     1      49.196   8.247  17.845  0.00  0.00    +0.000 C 
BRANCH   9  10
ATOM     10  C   UNL     1      48.880   7.071  18.736  0.00  0.00    +0.000 A 
ATOM     11  C   UNL     1      47.622   6.926  19.330  0.00  0.00    +0.000 A 
ATOM     12  C   UNL     1      47.403   5.908  20.256  0.00  0.00    +0.000 A 
ATOM     13  C   UNL     1      48.450   5.051  20.550  0.00  0.00    +0.000 A 
ATOM     14  N   UNL     1      49.665   5.129  19.971  0.00  0.00    +0.000 NA
ATOM     15  C   UNL     1      49.850   6.133  19.082  0.00  0.00    +0.000 A 
ENDBRANCH   9  10
ENDBRANCH   6   9
ENDBRANCH   2   3
BRANCH   2  16
ATOM     16  N   UNL     1      47.068   6.506  11.933  0.00  0.00    +0.000 N 
ATOM     17  C   UNL     1      45.696   6.516  11.899  0.00  0.00    +0.000 C 
ATOM     18  O   UNL     1      45.039   7.545  12.017  0.00  0.00    +0.000 OA
ATOM     19  H   UNL     1      47.525   5.622  12.149  0.00  0.00    +0.000 HD
BRANCH  17  20
ATOM     20  C   UNL     1      45.042   5.229  11.639  0.00  0.00    +0.000 A 
ATOM     21  C   UNL     1      44.346   4.599  12.659  0.00  0.00    +0.000 A 
ATOM     22  S   UNL     1      43.651   3.112  12.195  0.00  0.00    +0.000 S 
ATOM     23  C   UNL     1      44.296   3.242  10.625  0.00  0.00    +0.000 A 
ATOM     24  N   UNL     1      44.110   2.253   9.710  0.00  0.00    +0.000 NA
ATOM     25  C   UNL     1      44.682   2.470   8.570  0.00  0.00    +0.000 A 
ATOM     26  N   UNL     1      45.405   3.591   8.258  0.00  0.00    +0.000 N 
ATOM     27  C   UNL     1      45.586   4.634   9.140  0.00  0.00    +0.000 A 
ATOM     28  O   UNL     1      46.181   5.654   8.817  0.00  0.00    +0.000 OA
ATOM     29  C   UNL     1      44.997   4.421  10.447  0.00  0.00    +0.000 A 
ATOM     30  H   UNL     1      45.803   3.712   7.338  0.00  0.00    +0.000 HD
ENDBRANCH  17  20
ENDBRANCH   2  16
TORSDOF 5
ENDMDL
MODEL 9
REMARK VINA RESULT:    -6.763      2.767      4.348
REMARK INTER + INTRA:          -9.570
REMARK INTER:                  -8.248
REMARK INTRA:                  -1.322
REMARK UNBOUND:                -0.830
REMARK  Name = 
REMARK  6 active torsions:
REMARK  status: ('A' for Active; 'I' for Inactive)
REMARK    1  A    between atoms: C_1  and  C_2
REMARK    2  A    between atoms: C_2  and  N_3
REMARK    3  A    between atoms: C_2  and  C_16
REMARK    4  A    between atoms: C_4  and  C_6
REMARK    5  A    between atoms: C_19  and  C_20
REMARK    6  A    between atoms: C_20  and  C_21
REMARK                            x       y       z     vdW  Elec       q    Type
REMARK                         _______ _______ _______ _____ _____    ______ ____
ROOT
ATOM      1  C   UNL     1      47.600   4.621  15.891  0.00  0.00    +0.000 C 
ATOM      2  C   UNL     1      47.404   5.788  14.917  0.00  0.00    +0.000 C 
ENDROOT
BRANCH   2   3
ATOM      3  C   UNL     1      46.689   5.310  13.661  0.00  0.00    +0.000 A 
ATOM      4  C   UNL     1      46.357   3.959  13.499  0.00  0.00    +0.000 A 
ATOM      5  C   UNL     1      45.623   3.535  12.386  0.00  0.00    +0.000 A 
ATOM      6  C   UNL     1      45.210   4.452  11.411  0.00  0.00    +0.000 A 
ATOM      7  C   UNL     1      45.581   5.795  11.549  0.00  0.00    +0.000 A 
ATOM      8  C   UNL     1      46.307   6.220  12.663  0.00  0.00    +0.000 A 
BRANCH   6   9
ATOM      9  C   UNL     1      44.371   4.009  10.237  0.00  0.00    +0.000 C 
BRANCH   9  10
ATOM     10  C   UNL     1      45.141   3.447   9.066  0.00  0.00    +0.000 A 
ATOM     11  C   UNL     1      45.443   2.084   8.981  0.00  0.00    +0.000 A 
ATOM     12  C   UNL     1      46.272   1.618   7.963  0.00  0.00    +0.000 A 
ATOM     13  C   UNL     1      46.764   2.532   7.046  0.00  0.00    +0.000 A 
ATOM     14  N   UNL     1      46.466   3.846   7.067  0.00  0.00    +0.000 NA
ATOM     15  C   UNL     1      45.665   4.271   8.073  0.00  0.00    +0.000 A 
ENDBRANCH   9  10
ENDBRANCH   6   9
ENDBRANCH   2   3
BRANCH   2  16
ATOM     16  N   UNL     1      48.658   6.421  14.534  0.00  0.00    +0.000 N 
ATOM     17  C   UNL     1      48.966   7.723  14.841  0.00  0.00    +0.000 C 
ATOM     18  O   UNL     1      48.226   8.438  15.509  0.00  0.00    +0.000 OA
ATOM     19  H   UNL     1      49.136   6.002  13.739  0.00  0.00    +0.000 HD
BRANCH  17  20
ATOM     20  C   UNL     1      50.275   8.206  14.389  0.00  0.00    +0.000 A 
ATOM     21  C   UNL     1      51.161   8.742  15.312  0.00  0.00    +0.000 A 
ATOM     22  S   UNL     1      52.633   9.260  14.625  0.00  0.00    +0.000 S 
ATOM     23  C   UNL     1      52.116   8.826  13.063  0.00  0.00    +0.000 A 
ATOM     24  N   UNL     1      52.905   9.055  11.978  0.00  0.00    +0.000 NA
ATOM     25  C   UNL     1      52.373   8.704  10.852  0.00  0.00    +0.000 A 
ATOM     26  N   UNL     1      51.136   8.131  10.715  0.00  0.00    +0.000 N 
ATOM     27  C   UNL     1      50.320   7.846  11.788  0.00  0.00    +0.000 A 
ATOM     28  O   UNL     1      49.247   7.275  11.647  0.00  0.00    +0.000 OA
ATOM     29  C   UNL     1      50.856   8.257  13.071  0.00  0.00    +0.000 A 
ATOM     30  H   UNL     1      50.790   7.855   9.807  0.00  0.00    +0.000 HD
ENDBRANCH  17  20
ENDBRANCH   2  16
TORSDOF 5
ENDMDL
