MODEL 1
REMARK VINA RESULT:    -8.397      0.000      0.000
REMARK INTER + INTRA:         -13.044
REMARK INTER:                 -11.834
REMARK INTRA:                  -1.210
REMARK UNBOUND:                -1.210
REMARK  Name = 
REMARK  7 active torsions:
REMARK  status: ('A' for Active; 'I' for Inactive)
REMARK    1  A    between atoms: C_2  and  C_4
REMARK    2  A    between atoms: C_8  and  O_9
REMARK    3  A    between atoms: O_9  and  C_10
REMARK    4  A    between atoms: C_10  and  C_11
REMARK    5  A    between atoms: C_11  and  C_12
REMARK    6  A    between atoms: C_14  and  C_15
REMARK    7  A    between atoms: C_24  and  C_25
REMARK                            x       y       z     vdW  Elec       q    Type
REMARK                         _______ _______ _______ _____ _____    ______ ____
ROOT
ATOM      1  C   UNL     1      44.768   5.657  12.494  0.00  0.00    +0.000 A 
ATOM      2  C   UNL     1      44.448   6.938  11.987  0.00  0.00    +0.000 A 
ATOM      3  C   UNL     1      45.307   8.048  12.103  0.00  0.00    +0.000 A 
ATOM      4  C   UNL     1      46.535   7.827  12.739  0.00  0.00    +0.000 A 
ATOM      5  C   UNL     1      46.901   6.554  13.193  0.00  0.00    +0.000 A 
ATOM      6  C   UNL     1      46.037   5.448  13.065  0.00  0.00    +0.000 A 
ENDROOT
BRANCH   3   7
ATOM      7  C   UNL     1      44.924   9.387  11.583  0.00  0.00    +0.000 A 
ATOM      8  C   UNL     1      45.754  10.514  11.748  0.00  0.00    +0.000 A 
ATOM      9  C   UNL     1      45.397  11.772  11.248  0.00  0.00    +0.000 A 
ATOM     10  C   UNL     1      44.203  11.933  10.552  0.00  0.00    +0.000 A 
ATOM     11  C   UNL     1      43.366  10.837  10.376  0.00  0.00    +0.000 A 
ATOM     12 CL   UNL     1      41.891  11.019   9.508  0.00  0.00    +0.000 Cl
ATOM     13  C   UNL     1      43.713   9.586  10.893  0.00  0.00    +0.000 A 
ENDBRANCH   3   7
BRANCH   6  14
ATOM     14  C   UNL     1      46.568   4.113  13.550  0.00  0.00    +0.000 C 
ATOM     15  F   UNL     1      47.912   3.945  13.430  0.00  0.00    +0.000 F 
ATOM     16  F   UNL     1      46.304   3.919  14.874  0.00  0.00    +0.000 F 
ATOM     17  F   UNL     1      46.000   3.060  12.902  0.00  0.00    +0.000 F 
ENDBRANCH   6  14
BRANCH   1  18
ATOM     18  C   UNL     1      43.706   4.582  12.390  0.00  0.00    +0.000 C 
BRANCH  18  19
ATOM     19  C   UNL     1      43.261   4.336  10.951  0.00  0.00    +0.000 C 
BRANCH  19  20
ATOM     20  O   UNL     1      43.775   3.077  10.509  0.00  0.00    +0.000 OA
BRANCH  20  25
ATOM     21  C   UNL     1      46.316   2.229   7.951  0.00  0.00    +0.000 A 
ATOM     22  C   UNL     1      46.567   3.524   7.522  0.00  0.00    +0.000 A 
ATOM     23  N   UNL     1      45.922   4.610   8.012  0.00  0.00    +0.000 NA
ATOM     24  C   UNL     1      45.007   4.383   8.989  0.00  0.00    +0.000 A 
ATOM     25  C   UNL     1      44.707   3.128   9.508  0.00  0.00    +0.000 A 
ATOM     26  C   UNL     1      45.384   2.034   8.973  0.00  0.00    +0.000 A 
BRANCH  21  28
ATOM     27  N   UNL     1      46.683  -0.159   7.715  0.00  0.00    +0.000 N 
ATOM     28  C   UNL     1      47.051   1.107   7.339  0.00  0.00    +0.000 C 
ATOM     29  O   UNL     1      47.927   1.292   6.507  0.00  0.00    +0.000 OA
ATOM     30  H   UNL     1      47.124  -0.920   7.212  0.00  0.00    +0.000 HD
ATOM     31  H   UNL     1      45.811  -0.361   8.181  0.00  0.00    +0.000 HD
ENDBRANCH  21  28
ENDBRANCH  20  25
ENDBRANCH  19  20
ENDBRANCH  18  19
ENDBRANCH   1  18
TORSDOF 7
ENDMDL
MODEL 2
REMARK VINA RESULT:    -8.264      4.569      7.613
REMARK INTER + INTRA:         -12.856
REMARK INTER:                 -11.982
REMARK INTRA:                  -0.874
REMARK UNBOUND:                -1.210
REMARK  Name = 
REMARK  7 active torsions:
REMARK  status: ('A' for Active; 'I' for Inactive)
REMARK    1  A    between atoms: C_2  and  C_4
REMARK    2  A    between atoms: C_8  and  O_9
REMARK    3  A    between atoms: O_9  and  C_10
REMARK    4  A    between atoms: C_10  and  C_11
REMARK    5  A    between atoms: C_11  and  C_12
REMARK    6  A    between atoms: C_14  and  C_15
REMARK    7  A    between atoms: C_24  and  C_25
REMARK                            x       y       z     vdW  Elec       q    Type
REMARK                         _______ _______ _______ _____ _____    ______ ____
ROOT
ATOM      1  C   UNL     1      44.828   5.452  10.834  0.00  0.00    +0.000 A 
ATOM      2  C   UNL     1      45.459   4.760   9.774  0.00  0.00    +0.000 A 
ATOM      3  C   UNL     1      45.153   3.428   9.434  0.00  0.00    +0.000 A 
ATOM      4  C   UNL     1      44.157   2.801  10.193  0.00  0.00    +0.000 A 
ATOM      5  C   UNL     1      43.474   3.485  11.205  0.00  0.00    +0.000 A 
ATOM      6  C   UNL     1      43.782   4.821  11.532  0.00  0.00    +0.000 A 
ENDROOT
BRANCH   3   7
ATOM      7  C   UNL     1      45.859   2.724   8.332  0.00  0.00    +0.000 A 
ATOM      8  C   UNL     1      46.415   3.423   7.240  0.00  0.00    +0.000 A 
ATOM      9  C   UNL     1      47.091   2.760   6.208  0.00  0.00    +0.000 A 
ATOM     10  C   UNL     1      47.241   1.377   6.249  0.00  0.00    +0.000 A 
ATOM     11  C   UNL     1      46.702   0.665   7.314  0.00  0.00    +0.000 A 
ATOM     12 CL   UNL     1      46.892  -1.044   7.382  0.00  0.00    +0.000 Cl
ATOM     13  C   UNL     1      46.010   1.325   8.333  0.00  0.00    +0.000 A 
ENDBRANCH   3   7
BRANCH   6  14
ATOM     14  C   UNL     1      42.938   5.467  12.613  0.00  0.00    +0.000 C 
ATOM     15  F   UNL     1      42.465   4.619  13.565  0.00  0.00    +0.000 F 
ATOM     16  F   UNL     1      43.641   6.413  13.301  0.00  0.00    +0.000 F 
ATOM     17  F   UNL     1      41.849   6.109  12.110  0.00  0.00    +0.000 F 
ENDBRANCH   6  14
BRANCH   1  18
ATOM     18  C   UNL     1      45.330   6.846  11.152  0.00  0.00    +0.000 C 
BRANCH  18  19
ATOM     19  C   UNL     1      46.550   6.833  12.068  0.00  0.00    +0.000 C 
BRANCH  19  20
ATOM     20  O   UNL     1      46.708   5.524  12.623  0.00  0.00    +0.000 OA
BRANCH  20  25
ATOM     21  C   UNL     1      47.670   4.514  16.054  0.00  0.00    +0.000 A 
ATOM     22  C   UNL     1      48.449   5.623  16.347  0.00  0.00    +0.000 A 
ATOM     23  N   UNL     1      48.678   6.628  15.468  0.00  0.00    +0.000 NA
ATOM     24  C   UNL     1      48.078   6.521  14.255  0.00  0.00    +0.000 A 
ATOM     25  C   UNL     1      47.254   5.466  13.876  0.00  0.00    +0.000 A 
ATOM     26  C   UNL     1      47.050   4.447  14.804  0.00  0.00    +0.000 A 
BRANCH  21  28
ATOM     27  N   UNL     1      48.637   2.989  17.676  0.00  0.00    +0.000 N 
ATOM     28  C   UNL     1      47.500   3.458  17.069  0.00  0.00    +0.000 C 
ATOM     29  O   UNL     1      46.396   3.041  17.382  0.00  0.00    +0.000 OA
ATOM     30  H   UNL     1      48.499   2.340  18.441  0.00  0.00    +0.000 HD
ATOM     31  H   UNL     1      49.519   3.480  17.643  0.00  0.00    +0.000 HD
ENDBRANCH  21  28
ENDBRANCH  20  25
ENDBRANCH  19  20
ENDBRANCH  18  19
ENDBRANCH   1  18
TORSDOF 7
ENDMDL
MODEL 3
REMARK VINA RESULT:    -8.260      1.113      1.504
REMARK INTER + INTRA:         -12.851
REMARK INTER:                 -11.618
REMARK INTRA:                  -1.233
REMARK UNBOUND:                -1.210
REMARK  Name = 
REMARK  7 active torsions:
REMARK  status: ('A' for Active; 'I' for Inactive)
REMARK    1  A    between atoms: C_2  and  C_4
REMARK    2  A    between atoms: C_8  and  O_9
REMARK    3  A    between atoms: O_9  and  C_10
REMARK    4  A    between atoms: C_10  and  C_11
REMARK    5  A    between atoms: C_11  and  C_12
REMARK    6  A    between atoms: C_14  and  C_15
REMARK    7  A    between atoms: C_24  and  C_25
REMARK                            x       y       z     vdW  Elec       q    Type
REMARK                         _______ _______ _______ _____ _____    ______ ____
ROOT
ATOM      1  C   UNL     1      44.413   6.077  12.209  0.00  0.00    +0.000 A 
ATOM      2  C   UNL     1      43.788   7.164  11.556  0.00  0.00    +0.000 A 
ATOM      3  C   UNL     1      44.372   8.443  11.460  0.00  0.00    +0.000 A 
ATOM      4  C   UNL     1      45.639   8.597  12.034  0.00  0.00    +0.000 A 
ATOM      5  C   UNL     1      46.306   7.519  12.629  0.00  0.00    +0.000 A 
ATOM      6  C   UNL     1      45.717   6.242  12.713  0.00  0.00    +0.000 A 
ENDROOT
BRANCH   3   7
ATOM      7  C   UNL     1      43.670   9.570  10.792  0.00  0.00    +0.000 A 
ATOM      8  C   UNL     1      44.373  10.567  10.084  0.00  0.00    +0.000 A 
ATOM      9  C   UNL     1      43.710  11.622   9.444  0.00  0.00    +0.000 A 
ATOM     10  C   UNL     1      42.322  11.699   9.483  0.00  0.00    +0.000 A 
ATOM     11  C   UNL     1      41.606  10.729  10.175  0.00  0.00    +0.000 A 
ATOM     12 CL   UNL     1      39.888  10.806  10.221  0.00  0.00    +0.000 Cl
ATOM     13  C   UNL     1      42.268   9.687  10.830  0.00  0.00    +0.000 A 
ENDBRANCH   3   7
BRANCH   6  14
ATOM     14  C   UNL     1      46.558   5.146  13.336  0.00  0.00    +0.000 C 
ATOM     15  F   UNL     1      46.257   4.846  14.627  0.00  0.00    +0.000 F 
ATOM     16  F   UNL     1      46.429   3.968  12.660  0.00  0.00    +0.000 F 
ATOM     17  F   UNL     1      47.888   5.437  13.320  0.00  0.00    +0.000 F 
ENDBRANCH   6  14
BRANCH   1  18
ATOM     18  C   UNL     1      43.624   4.788  12.326  0.00  0.00    +0.000 C 
BRANCH  18  19
ATOM     19  C   UNL     1      43.082   4.310  10.982  0.00  0.00    +0.000 C 
BRANCH  19  20
ATOM     20  O   UNL     1      43.725   3.083  10.625  0.00  0.00    +0.000 OA
BRANCH  20  25
ATOM     21  C   UNL     1      46.259   2.304   8.039  0.00  0.00    +0.000 A 
ATOM     22  C   UNL     1      46.387   3.588   7.532  0.00  0.00    +0.000 A 
ATOM     23  N   UNL     1      45.666   4.644   7.981  0.00  0.00    +0.000 NA
ATOM     24  C   UNL     1      44.800   4.397   8.998  0.00  0.00    +0.000 A 
ATOM     25  C   UNL     1      44.622   3.154   9.595  0.00  0.00    +0.000 A 
ATOM     26  C   UNL     1      45.375   2.091   9.099  0.00  0.00    +0.000 A 
BRANCH  21  28
ATOM     27  N   UNL     1      48.138   1.576   6.687  0.00  0.00    +0.000 N 
ATOM     28  C   UNL     1      47.070   1.214   7.466  0.00  0.00    +0.000 C 
ATOM     29  O   UNL     1      46.825   0.041   7.700  0.00  0.00    +0.000 OA
ATOM     30  H   UNL     1      48.745   0.824   6.384  0.00  0.00    +0.000 HD
ATOM     31  H   UNL     1      48.526   2.508   6.687  0.00  0.00    +0.000 HD
ENDBRANCH  21  28
ENDBRANCH  20  25
ENDBRANCH  19  20
ENDBRANCH  18  19
ENDBRANCH   1  18
TORSDOF 7
ENDMDL
MODEL 4
REMARK VINA RESULT:    -8.020      3.612      5.696
REMARK INTER + INTRA:         -12.513
REMARK INTER:                 -11.627
REMARK INTRA:                  -0.886
REMARK UNBOUND:                -1.210
REMARK  Name = 
REMARK  7 active torsions:
REMARK  status: ('A' for Active; 'I' for Inactive)
REMARK    1  A    between atoms: C_2  and  C_4
REMARK    2  A    between atoms: C_8  and  O_9
REMARK    3  A    between atoms: O_9  and  C_10
REMARK    4  A    between atoms: C_10  and  C_11
REMARK    5  A    between atoms: C_11  and  C_12
REMARK    6  A    between atoms: C_14  and  C_15
REMARK    7  A    between atoms: C_24  and  C_25
REMARK                            x       y       z     vdW  Elec       q    Type
REMARK                         _______ _______ _______ _____ _____    ______ ____
ROOT
ATOM      1  C   UNL     1      45.326   4.972  13.133  0.00  0.00    +0.000 A 
ATOM      2  C   UNL     1      46.000   4.531  14.295  0.00  0.00    +0.000 A 
ATOM      3  C   UNL     1      47.197   5.113  14.758  0.00  0.00    +0.000 A 
ATOM      4  C   UNL     1      47.698   6.189  14.016  0.00  0.00    +0.000 A 
ATOM      5  C   UNL     1      47.015   6.685  12.899  0.00  0.00    +0.000 A 
ATOM      6  C   UNL     1      45.814   6.101  12.449  0.00  0.00    +0.000 A 
ENDROOT
BRANCH   3   7
ATOM      7  C   UNL     1      47.893   4.602  15.968  0.00  0.00    +0.000 A 
ATOM      8  C   UNL     1      47.701   3.285  16.435  0.00  0.00    +0.000 A 
ATOM      9  C   UNL     1      48.367   2.801  17.568  0.00  0.00    +0.000 A 
ATOM     10  C   UNL     1      49.258   3.619  18.256  0.00  0.00    +0.000 A 
ATOM     11  C   UNL     1      49.464   4.921  17.816  0.00  0.00    +0.000 A 
ATOM     12 CL   UNL     1      50.572   5.939  18.652  0.00  0.00    +0.000 Cl
ATOM     13  C   UNL     1      48.784   5.411  16.698  0.00  0.00    +0.000 A 
ENDBRANCH   3   7
BRANCH   6  14
ATOM     14  C   UNL     1      45.144   6.759  11.259  0.00  0.00    +0.000 C 
ATOM     15  F   UNL     1      45.086   8.117  11.304  0.00  0.00    +0.000 F 
ATOM     16  F   UNL     1      45.793   6.471  10.094  0.00  0.00    +0.000 F 
ATOM     17  F   UNL     1      43.862   6.336  11.083  0.00  0.00    +0.000 F 
ENDBRANCH   6  14
BRANCH   1  18
ATOM     18  C   UNL     1      44.106   4.187  12.696  0.00  0.00    +0.000 C 
BRANCH  18  19
ATOM     19  C   UNL     1      44.469   2.924  11.921  0.00  0.00    +0.000 C 
BRANCH  19  20
ATOM     20  O   UNL     1      43.776   2.926  10.669  0.00  0.00    +0.000 OA
BRANCH  20  25
ATOM     21  C   UNL     1      46.152   2.076   7.959  0.00  0.00    +0.000 A 
ATOM     22  C   UNL     1      46.065   3.278   7.271  0.00  0.00    +0.000 A 
ATOM     23  N   UNL     1      45.254   4.296   7.647  0.00  0.00    +0.000 NA
ATOM     24  C   UNL     1      44.521   4.103   8.774  0.00  0.00    +0.000 A 
ATOM     25  C   UNL     1      44.562   2.948   9.549  0.00  0.00    +0.000 A 
ATOM     26  C   UNL     1      45.400   1.921   9.125  0.00  0.00    +0.000 A 
BRANCH  21  28
ATOM     27  N   UNL     1      46.648  -0.280   7.656  0.00  0.00    +0.000 N 
ATOM     28  C   UNL     1      47.046   1.017   7.456  0.00  0.00    +0.000 C 
ATOM     29  O   UNL     1      48.078   1.279   6.857  0.00  0.00    +0.000 OA
ATOM     30  H   UNL     1      47.218  -0.994   7.218  0.00  0.00    +0.000 HD
ATOM     31  H   UNL     1      45.702  -0.533   7.900  0.00  0.00    +0.000 HD
ENDBRANCH  21  28
ENDBRANCH  20  25
ENDBRANCH  19  20
ENDBRANCH  18  19
ENDBRANCH   1  18
TORSDOF 7
ENDMDL
MODEL 5
REMARK VINA RESULT:    -7.610      3.145      3.905
REMARK INTER + INTRA:         -11.935
REMARK INTER:                 -10.974
REMARK INTRA:                  -0.961
REMARK UNBOUND:                -1.210
REMARK  Name = 
REMARK  7 active torsions:
REMARK  status: ('A' for Active; 'I' for Inactive)
REMARK    1  A    between atoms: C_2  and  C_4
REMARK    2  A    between atoms: C_8  and  O_9
REMARK    3  A    between atoms: O_9  and  C_10
REMARK    4  A    between atoms: C_10  and  C_11
REMARK    5  A    between atoms: C_11  and  C_12
REMARK    6  A    between atoms: C_14  and  C_15
REMARK    7  A    between atoms: C_24  and  C_25
REMARK                            x       y       z     vdW  Elec       q    Type
REMARK                         _______ _______ _______ _____ _____    ______ ____
ROOT
ATOM      1  C   UNL     1      46.585   6.242  12.226  0.00  0.00    +0.000 A 
ATOM      2  C   UNL     1      47.334   7.301  11.663  0.00  0.00    +0.000 A 
ATOM      3  C   UNL     1      48.481   7.843  12.277  0.00  0.00    +0.000 A 
ATOM      4  C   UNL     1      48.874   7.265  13.490  0.00  0.00    +0.000 A 
ATOM      5  C   UNL     1      48.186   6.175  14.034  0.00  0.00    +0.000 A 
ATOM      6  C   UNL     1      47.045   5.634  13.409  0.00  0.00    +0.000 A 
ENDROOT
BRANCH   3   7
ATOM      7  C   UNL     1      49.226   8.977  11.670  0.00  0.00    +0.000 A 
ATOM      8  C   UNL     1      48.595  10.200  11.361  0.00  0.00    +0.000 A 
ATOM      9  C   UNL     1      49.301  11.272  10.800  0.00  0.00    +0.000 A 
ATOM     10  C   UNL     1      50.663  11.153  10.546  0.00  0.00    +0.000 A 
ATOM     11  C   UNL     1      51.308   9.957  10.841  0.00  0.00    +0.000 A 
ATOM     12 CL   UNL     1      52.996   9.802  10.543  0.00  0.00    +0.000 Cl
ATOM     13  C   UNL     1      50.600   8.881  11.382  0.00  0.00    +0.000 A 
ENDBRANCH   3   7
BRANCH   6  14
ATOM     14  C   UNL     1      46.418   4.423  14.070  0.00  0.00    +0.000 C 
ATOM     15  F   UNL     1      45.060   4.376  14.026  0.00  0.00    +0.000 F 
ATOM     16  F   UNL     1      46.832   3.261  13.487  0.00  0.00    +0.000 F 
ATOM     17  F   UNL     1      46.752   4.317  15.385  0.00  0.00    +0.000 F 
ENDBRANCH   6  14
BRANCH   1  18
ATOM     18  C   UNL     1      45.316   5.829  11.508  0.00  0.00    +0.000 C 
BRANCH  18  19
ATOM     19  C   UNL     1      45.490   5.783   9.992  0.00  0.00    +0.000 C 
BRANCH  19  20
ATOM     20  O   UNL     1      44.581   4.824   9.444  0.00  0.00    +0.000 OA
BRANCH  20  25
ATOM     21  C   UNL     1      46.555   2.443   7.408  0.00  0.00    +0.000 A 
ATOM     22  C   UNL     1      46.096   1.281   8.009  0.00  0.00    +0.000 A 
ATOM     23  N   UNL     1      45.220   1.271   9.042  0.00  0.00    +0.000 NA
ATOM     24  C   UNL     1      44.771   2.480   9.468  0.00  0.00    +0.000 A 
ATOM     25  C   UNL     1      45.146   3.698   8.911  0.00  0.00    +0.000 A 
ATOM     26  C   UNL     1      46.056   3.668   7.857  0.00  0.00    +0.000 A 
BRANCH  21  28
ATOM     27  N   UNL     1      47.355   3.206   5.247  0.00  0.00    +0.000 N 
ATOM     28  C   UNL     1      47.531   2.353   6.305  0.00  0.00    +0.000 C 
ATOM     29  O   UNL     1      48.473   1.577   6.345  0.00  0.00    +0.000 OA
ATOM     30  H   UNL     1      48.087   3.205   4.546  0.00  0.00    +0.000 HD
ATOM     31  H   UNL     1      46.765   4.024   5.293  0.00  0.00    +0.000 HD
ENDBRANCH  21  28
ENDBRANCH  20  25
ENDBRANCH  19  20
ENDBRANCH  18  19
ENDBRANCH   1  18
TORSDOF 7
ENDMDL
MODEL 6
REMARK VINA RESULT:    -7.253      4.791      7.436
REMARK INTER + INTRA:         -11.431
REMARK INTER:                  -9.708
REMARK INTRA:                  -1.723
REMARK UNBOUND:                -1.210
REMARK  Name = 
REMARK  7 active torsions:
REMARK  status: ('A' for Active; 'I' for Inactive)
REMARK    1  A    between atoms: C_2  and  C_4
REMARK    2  A    between atoms: C_8  and  O_9
REMARK    3  A    between atoms: O_9  and  C_10
REMARK    4  A    between atoms: C_10  and  C_11
REMARK    5  A    between atoms: C_11  and  C_12
REMARK    6  A    between atoms: C_14  and  C_15
REMARK    7  A    between atoms: C_24  and  C_25
REMARK                            x       y       z     vdW  Elec       q    Type
REMARK                         _______ _______ _______ _____ _____    ______ ____
ROOT
ATOM      1  C   UNL     1      47.590   8.082  11.934  0.00  0.00    +0.000 A 
ATOM      2  C   UNL     1      46.947   6.832  11.781  0.00  0.00    +0.000 A 
ATOM      3  C   UNL     1      45.548   6.676  11.827  0.00  0.00    +0.000 A 
ATOM      4  C   UNL     1      44.794   7.840  12.015  0.00  0.00    +0.000 A 
ATOM      5  C   UNL     1      45.404   9.097  12.104  0.00  0.00    +0.000 A 
ATOM      6  C   UNL     1      46.804   9.244  12.049  0.00  0.00    +0.000 A 
ENDROOT
BRANCH   3   7
ATOM      7  C   UNL     1      44.909   5.340  11.693  0.00  0.00    +0.000 A 
ATOM      8  C   UNL     1      44.147   4.773  12.735  0.00  0.00    +0.000 A 
ATOM      9  C   UNL     1      43.535   3.520  12.603  0.00  0.00    +0.000 A 
ATOM     10  C   UNL     1      43.659   2.806  11.415  0.00  0.00    +0.000 A 
ATOM     11  C   UNL     1      44.406   3.343  10.373  0.00  0.00    +0.000 A 
ATOM     12 CL   UNL     1      44.556   2.475   8.895  0.00  0.00    +0.000 Cl
ATOM     13  C   UNL     1      45.032   4.584  10.512  0.00  0.00    +0.000 A 
ENDBRANCH   3   7
BRANCH   6  14
ATOM     14  C   UNL     1      47.341  10.660  12.107  0.00  0.00    +0.000 C 
ATOM     15  F   UNL     1      48.155  10.929  13.162  0.00  0.00    +0.000 F 
ATOM     16  F   UNL     1      48.081  10.963  11.002  0.00  0.00    +0.000 F 
ATOM     17  F   UNL     1      46.349  11.592  12.154  0.00  0.00    +0.000 F 
ENDBRANCH   6  14
BRANCH   1  18
ATOM     18  C   UNL     1      49.105   8.087  11.965  0.00  0.00    +0.000 C 
BRANCH  18  19
ATOM     19  C   UNL     1      49.667   7.372  13.191  0.00  0.00    +0.000 C 
BRANCH  19  20
ATOM     20  O   UNL     1      49.120   7.965  14.372  0.00  0.00    +0.000 OA
BRANCH  20  25
ATOM     21  C   UNL     1      48.031   5.017  16.331  0.00  0.00    +0.000 A 
ATOM     22  C   UNL     1      48.158   5.590  17.588  0.00  0.00    +0.000 A 
ATOM     23  N   UNL     1      48.606   6.853  17.791  0.00  0.00    +0.000 NA
ATOM     24  C   UNL     1      48.913   7.573  16.682  0.00  0.00    +0.000 A 
ATOM     25  C   UNL     1      48.790   7.100  15.379  0.00  0.00    +0.000 A 
ATOM     26  C   UNL     1      48.336   5.794  15.211  0.00  0.00    +0.000 A 
BRANCH  21  28
ATOM     27  N   UNL     1      46.925   3.088  17.303  0.00  0.00    +0.000 N 
ATOM     28  C   UNL     1      47.560   3.625  16.213  0.00  0.00    +0.000 C 
ATOM     29  O   UNL     1      47.698   2.987  15.181  0.00  0.00    +0.000 OA
ATOM     30  H   UNL     1      46.517   2.170  17.174  0.00  0.00    +0.000 HD
ATOM     31  H   UNL     1      46.561   3.650  18.058  0.00  0.00    +0.000 HD
ENDBRANCH  21  28
ENDBRANCH  20  25
ENDBRANCH  19  20
ENDBRANCH  18  19
ENDBRANCH   1  18
TORSDOF 7
ENDMDL
MODEL 7
REMARK VINA RESULT:    -7.165      3.491      4.735
REMARK INTER + INTRA:         -11.307
REMARK INTER:                 -10.522
REMARK INTRA:                  -0.785
REMARK UNBOUND:                -1.210
REMARK  Name = 
REMARK  7 active torsions:
REMARK  status: ('A' for Active; 'I' for Inactive)
REMARK    1  A    between atoms: C_2  and  C_4
REMARK    2  A    between atoms: C_8  and  O_9
REMARK    3  A    between atoms: O_9  and  C_10
REMARK    4  A    between atoms: C_10  and  C_11
REMARK    5  A    between atoms: C_11  and  C_12
REMARK    6  A    between atoms: C_14  and  C_15
REMARK    7  A    between atoms: C_24  and  C_25
REMARK                            x       y       z     vdW  Elec       q    Type
REMARK                         _______ _______ _______ _____ _____    ______ ____
ROOT
ATOM      1  C   UNL     1      45.789   5.898  12.194  0.00  0.00    +0.000 A 
ATOM      2  C   UNL     1      47.016   6.541  12.479  0.00  0.00    +0.000 A 
ATOM      3  C   UNL     1      47.787   6.257  13.623  0.00  0.00    +0.000 A 
ATOM      4  C   UNL     1      47.289   5.271  14.484  0.00  0.00    +0.000 A 
ATOM      5  C   UNL     1      46.110   4.576  14.191  0.00  0.00    +0.000 A 
ATOM      6  C   UNL     1      45.350   4.862  13.039  0.00  0.00    +0.000 A 
ENDROOT
BRANCH   3   7
ATOM      7  C   UNL     1      49.057   6.975  13.903  0.00  0.00    +0.000 A 
ATOM      8  C   UNL     1      49.737   7.700  12.903  0.00  0.00    +0.000 A 
ATOM      9  C   UNL     1      50.928   8.387  13.171  0.00  0.00    +0.000 A 
ATOM     10  C   UNL     1      51.463   8.379  14.455  0.00  0.00    +0.000 A 
ATOM     11  C   UNL     1      50.813   7.670  15.459  0.00  0.00    +0.000 A 
ATOM     12 CL   UNL     1      51.459   7.662  17.054  0.00  0.00    +0.000 Cl
ATOM     13  C   UNL     1      49.635   6.969  15.186  0.00  0.00    +0.000 A 
ENDBRANCH   3   7
BRANCH   6  14
ATOM     14  C   UNL     1      44.120   4.007  12.808  0.00  0.00    +0.000 C 
ATOM     15  F   UNL     1      43.284   3.892  13.874  0.00  0.00    +0.000 F 
ATOM     16  F   UNL     1      43.345   4.504  11.802  0.00  0.00    +0.000 F 
ATOM     17  F   UNL     1      44.432   2.734  12.440  0.00  0.00    +0.000 F 
ENDBRANCH   6  14
BRANCH   1  18
ATOM     18  C   UNL     1      45.016   6.378  10.982  0.00  0.00    +0.000 C 
BRANCH  18  19
ATOM     19  C   UNL     1      45.537   5.775   9.680  0.00  0.00    +0.000 C 
BRANCH  19  20
ATOM     20  O   UNL     1      44.645   4.741   9.252  0.00  0.00    +0.000 OA
BRANCH  20  25
ATOM     21  C   UNL     1      46.614   2.414   7.150  0.00  0.00    +0.000 A 
ATOM     22  C   UNL     1      46.241   1.243   7.794  0.00  0.00    +0.000 A 
ATOM     23  N   UNL     1      45.422   1.213   8.873  0.00  0.00    +0.000 NA
ATOM     24  C   UNL     1      44.942   2.409   9.303  0.00  0.00    +0.000 A 
ATOM     25  C   UNL     1      45.231   3.632   8.707  0.00  0.00    +0.000 A 
ATOM     26  C   UNL     1      46.084   3.623   7.606  0.00  0.00    +0.000 A 
BRANCH  21  28
ATOM     27  N   UNL     1      47.288   3.204   4.956  0.00  0.00    +0.000 N 
ATOM     28  C   UNL     1      47.532   2.346   5.998  0.00  0.00    +0.000 C 
ATOM     29  O   UNL     1      48.487   1.585   5.983  0.00  0.00    +0.000 OA
ATOM     30  H   UNL     1      47.983   3.219   4.219  0.00  0.00    +0.000 HD
ATOM     31  H   UNL     1      46.689   4.011   5.039  0.00  0.00    +0.000 HD
ENDBRANCH  21  28
ENDBRANCH  20  25
ENDBRANCH  19  20
ENDBRANCH  18  19
ENDBRANCH   1  18
TORSDOF 7
ENDMDL
MODEL 8
REMARK VINA RESULT:    -7.139      2.790      3.622
REMARK INTER + INTRA:         -11.270
REMARK INTER:                 -10.034
REMARK INTRA:                  -1.236
REMARK UNBOUND:                -1.210
REMARK  Name = 
REMARK  7 active torsions:
REMARK  status: ('A' for Active; 'I' for Inactive)
REMARK    1  A    between atoms: C_2  and  C_4
REMARK    2  A    between atoms: C_8  and  O_9
REMARK    3  A    between atoms: O_9  and  C_10
REMARK    4  A    between atoms: C_10  and  C_11
REMARK    5  A    between atoms: C_11  and  C_12
REMARK    6  A    between atoms: C_14  and  C_15
REMARK    7  A    between atoms: C_24  and  C_25
REMARK                            x       y       z     vdW  Elec       q    Type
REMARK                         _______ _______ _______ _____ _____    ______ ____
ROOT
ATOM      1  C   UNL     1      46.286   6.942  12.684  0.00  0.00    +0.000 A 
ATOM      2  C   UNL     1      47.018   8.009  12.113  0.00  0.00    +0.000 A 
ATOM      3  C   UNL     1      48.425   8.072  12.128  0.00  0.00    +0.000 A 
ATOM      4  C   UNL     1      49.094   6.998  12.727  0.00  0.00    +0.000 A 
ATOM      5  C   UNL     1      48.394   5.901  13.242  0.00  0.00    +0.000 A 
ATOM      6  C   UNL     1      46.987   5.843  13.215  0.00  0.00    +0.000 A 
ENDROOT
BRANCH   3   7
ATOM      7  C   UNL     1      49.158   9.226  11.544  0.00  0.00    +0.000 A 
ATOM      8  C   UNL     1      50.548   9.183  11.312  0.00  0.00    +0.000 A 
ATOM      9  C   UNL     1      51.236  10.266  10.751  0.00  0.00    +0.000 A 
ATOM     10  C   UNL     1      50.546  11.419  10.391  0.00  0.00    +0.000 A 
ATOM     11  C   UNL     1      49.175  11.487  10.609  0.00  0.00    +0.000 A 
ATOM     12 CL   UNL     1      48.308  12.903  10.158  0.00  0.00    +0.000 Cl
ATOM     13  C   UNL     1      48.492  10.414  11.188  0.00  0.00    +0.000 A 
ENDBRANCH   3   7
BRANCH   6  14
ATOM     14  C   UNL     1      46.349   4.580  13.758  0.00  0.00    +0.000 C 
ATOM     15  F   UNL     1      46.594   3.451  13.041  0.00  0.00    +0.000 F 
ATOM     16  F   UNL     1      46.786   4.299  15.020  0.00  0.00    +0.000 F 
ATOM     17  F   UNL     1      44.995   4.678  13.849  0.00  0.00    +0.000 F 
ENDBRANCH   6  14
BRANCH   1  18
ATOM     18  C   UNL     1      44.775   7.056  12.687  0.00  0.00    +0.000 C 
BRANCH  18  19
ATOM     19  C   UNL     1      44.199   7.234  11.285  0.00  0.00    +0.000 C 
BRANCH  19  20
ATOM     20  O   UNL     1      43.146   6.286  11.087  0.00  0.00    +0.000 OA
BRANCH  20  25
ATOM     21  C   UNL     1      44.713   3.319   9.519  0.00  0.00    +0.000 A 
ATOM     22  C   UNL     1      44.123   2.363  10.333  0.00  0.00    +0.000 A 
ATOM     23  N   UNL     1      43.288   2.666  11.356  0.00  0.00    +0.000 NA
ATOM     24  C   UNL     1      43.020   3.983  11.550  0.00  0.00    +0.000 A 
ATOM     25  C   UNL     1      43.536   5.013  10.771  0.00  0.00    +0.000 A 
ATOM     26  C   UNL     1      44.398   4.663   9.734  0.00  0.00    +0.000 A 
BRANCH  21  28
ATOM     27  N   UNL     1      45.969   1.564   8.409  0.00  0.00    +0.000 N 
ATOM     28  C   UNL     1      45.629   2.892   8.446  0.00  0.00    +0.000 C 
ATOM     29  O   UNL     1      46.043   3.676   7.606  0.00  0.00    +0.000 OA
ATOM     30  H   UNL     1      46.515   1.265   7.610  0.00  0.00    +0.000 HD
ATOM     31  H   UNL     1      45.454   0.852   8.906  0.00  0.00    +0.000 HD
ENDBRANCH  21  28
ENDBRANCH  20  25
ENDBRANCH  19  20
ENDBRANCH  18  19
ENDBRANCH   1  18
TORSDOF 7
ENDMDL
MODEL 9
REMARK VINA RESULT:    -6.833      5.037      6.866
REMARK INTER + INTRA:         -10.839
REMARK INTER:                  -9.091
REMARK INTRA:                  -1.748
REMARK UNBOUND:                -1.210
REMARK  Name = 
REMARK  7 active torsions:
REMARK  status: ('A' for Active; 'I' for Inactive)
REMARK    1  A    between atoms: C_2  and  C_4
REMARK    2  A    between atoms: C_8  and  O_9
REMARK    3  A    between atoms: O_9  and  C_10
REMARK    4  A    between atoms: C_10  and  C_11
REMARK    5  A    between atoms: C_11  and  C_12
REMARK    6  A    between atoms: C_14  and  C_15
REMARK    7  A    between atoms: C_24  and  C_25
REMARK                            x       y       z     vdW  Elec       q    Type
REMARK                         _______ _______ _______ _____ _____    ______ ____
ROOT
ATOM      1  C   UNL     1      45.629   5.088  12.500  0.00  0.00    +0.000 A 
ATOM      2  C   UNL     1      46.746   5.952  12.433  0.00  0.00    +0.000 A 
ATOM      3  C   UNL     1      46.664   7.281  11.970  0.00  0.00    +0.000 A 
ATOM      4  C   UNL     1      45.396   7.733  11.587  0.00  0.00    +0.000 A 
ATOM      5  C   UNL     1      44.265   6.918  11.705  0.00  0.00    +0.000 A 
ATOM      6  C   UNL     1      44.356   5.593  12.177  0.00  0.00    +0.000 A 
ENDROOT
BRANCH   3   7
ATOM      7  C   UNL     1      47.867   8.150  11.885  0.00  0.00    +0.000 A 
ATOM      8  C   UNL     1      47.813   9.525  12.194  0.00  0.00    +0.000 A 
ATOM      9  C   UNL     1      48.949  10.341  12.125  0.00  0.00    +0.000 A 
ATOM     10  C   UNL     1      50.176   9.798  11.759  0.00  0.00    +0.000 A 
ATOM     11  C   UNL     1      50.256   8.445  11.449  0.00  0.00    +0.000 A 
ATOM     12 CL   UNL     1      51.770   7.758  11.006  0.00  0.00    +0.000 Cl
ATOM     13  C   UNL     1      49.118   7.635  11.498  0.00  0.00    +0.000 A 
ENDBRANCH   3   7
BRANCH   6  14
ATOM     14  C   UNL     1      43.054   4.828  12.306  0.00  0.00    +0.000 C 
ATOM     15  F   UNL     1      42.795   4.327  13.543  0.00  0.00    +0.000 F 
ATOM     16  F   UNL     1      41.978   5.614  12.011  0.00  0.00    +0.000 F 
ATOM     17  F   UNL     1      42.984   3.770  11.452  0.00  0.00    +0.000 F 
ENDBRANCH   6  14
BRANCH   1  18
ATOM     18  C   UNL     1      45.882   3.655  12.921  0.00  0.00    +0.000 C 
BRANCH  18  19
ATOM     19  C   UNL     1      47.035   3.530  13.913  0.00  0.00    +0.000 C 
BRANCH  19  20
ATOM     20  O   UNL     1      46.551   3.806  15.231  0.00  0.00    +0.000 OA
BRANCH  20  25
ATOM     21  C   UNL     1      49.101   6.145  16.551  0.00  0.00    +0.000 A 
ATOM     22  C   UNL     1      48.991   5.783  17.886  0.00  0.00    +0.000 A 
ATOM     23  N   UNL     1      48.113   4.855  18.338  0.00  0.00    +0.000 NA
ATOM     24  C   UNL     1      47.334   4.252  17.404  0.00  0.00    +0.000 A 
ATOM     25  C   UNL     1      47.391   4.521  16.040  0.00  0.00    +0.000 A 
ATOM     26  C   UNL     1      48.299   5.488  15.615  0.00  0.00    +0.000 A 
BRANCH  21  28
ATOM     27  N   UNL     1      50.759   7.806  17.170  0.00  0.00    +0.000 N 
ATOM     28  C   UNL     1      50.069   7.186  16.160  0.00  0.00    +0.000 C 
ATOM     29  O   UNL     1      50.273   7.463  14.988  0.00  0.00    +0.000 OA
ATOM     30  H   UNL     1      51.492   8.444  16.882  0.00  0.00    +0.000 HD
ATOM     31  H   UNL     1      50.816   7.432  18.105  0.00  0.00    +0.000 HD
ENDBRANCH  21  28
ENDBRANCH  20  25
ENDBRANCH  19  20
ENDBRANCH  18  19
ENDBRANCH   1  18
TORSDOF 7
ENDMDL
