MODEL 1
REMARK VINA RESULT:    -7.541      0.000      0.000
REMARK INTER + INTRA:         -12.195
REMARK INTER:                 -11.068
REMARK INTRA:                  -1.127
REMARK UNBOUND:                -1.127
REMARK  Name = 
REMARK  10 active torsions:
REMARK  status: ('A' for Active; 'I' for Inactive)
REMARK    1  A    between atoms: C_1  and  O_2
REMARK    2  A    between atoms: O_2  and  C_3
REMARK    3  A    between atoms: C_10  and  C_11
REMARK    4  A    between atoms: N_13  and  C_14
REMARK    5  A    between atoms: C_14  and  C_15
REMARK    6  A    between atoms: C_14  and  C_16
REMARK    7  A    between atoms: C_19  and  O_20
REMARK    8  A    between atoms: O_20  and  C_21
REMARK    9  A    between atoms: C_21  and  C_22
REMARK   10  A    between atoms: C_22  and  N_23
REMARK                            x       y       z     vdW  Elec       q    Type
REMARK                         _______ _______ _______ _____ _____    ______ ____
ROOT
ATOM      1  C   UNL     1      47.842   7.232  13.568  0.00  0.00    +0.000 C 
ATOM      2  C   UNL     1      49.115   6.845  12.806  0.00  0.00    +0.000 C 
ENDROOT
BRANCH   1   3
ATOM      3  C   UNL     1      46.647   6.462  13.032  0.00  0.00    +0.000 A 
ATOM      4  C   UNL     1      45.638   7.130  12.325  0.00  0.00    +0.000 A 
ATOM      5  C   UNL     1      44.593   6.415  11.723  0.00  0.00    +0.000 A 
ATOM      6  C   UNL     1      44.538   5.026  11.814  0.00  0.00    +0.000 A 
ATOM      7  C   UNL     1      45.500   4.359  12.573  0.00  0.00    +0.000 A 
ATOM      8  C   UNL     1      46.546   5.068  13.171  0.00  0.00    +0.000 A 
BRANCH   6   9
ATOM      9  O   UNL     1      43.580   4.235  11.221  0.00  0.00    +0.000 OA
BRANCH   9  10
ATOM     10  C   UNL     1      44.115   3.287  10.287  0.00  0.00    +0.000 C 
BRANCH  10  11
ATOM     11  C   UNL     1      44.486   3.967   8.954  0.00  0.00    +0.000 C 
BRANCH  11  12
ATOM     12  N   UNL     1      45.217   3.066   8.032  0.00  0.00    +0.000 NA
ATOM     13  C   UNL     1      46.284   3.777   7.308  0.00  0.00    +0.000 C 
ATOM     14  C   UNL     1      47.000   2.860   6.316  0.00  0.00    +0.000 C 
ATOM     15  C   UNL     1      47.572   1.636   7.014  0.00  0.00    +0.000 C 
ATOM     16  C   UNL     1      46.483   0.935   7.814  0.00  0.00    +0.000 C 
ATOM     17  C   UNL     1      45.764   1.906   8.757  0.00  0.00    +0.000 C 
ENDBRANCH  11  12
ENDBRANCH  10  11
ENDBRANCH   9  10
ENDBRANCH   6   9
ENDBRANCH   1   3
BRANCH   1  20
ATOM     18  C   UNL     1      48.812   7.839  15.755  0.00  0.00    +0.000 C 
ATOM     19  O   UNL     1      49.376   8.819  15.265  0.00  0.00    +0.000 OA
ATOM     20  N   UNL     1      48.010   7.029  15.000  0.00  0.00    +0.000 N 
ATOM     21  H   UNL     1      47.645   6.174  15.401  0.00  0.00    +0.000 HD
BRANCH  18  29
ATOM     22  C   UNL     1      48.501   4.925  17.610  0.00  0.00    +0.000 A 
ATOM     23  N   UNL     1      48.484   3.969  18.563  0.00  0.00    +0.000 NA
ATOM     24  C   UNL     1      48.772   4.315  19.819  0.00  0.00    +0.000 A 
ATOM     25  N   UNL     1      49.090   5.528  20.255  0.00  0.00    +0.000 NA
ATOM     26  C   UNL     1      49.115   6.448  19.276  0.00  0.00    +0.000 A 
ATOM     27  S   UNL     1      49.510   8.053  19.665  0.00  0.00    +0.000 S 
ATOM     28  C   UNL     1      49.343   8.534  18.048  0.00  0.00    +0.000 A 
ATOM     29  C   UNL     1      48.986   7.505  17.183  0.00  0.00    +0.000 A 
ATOM     30  C   UNL     1      48.846   6.253  17.922  0.00  0.00    +0.000 A 
BRANCH  22  32
ATOM     31  C   UNL     1      47.998   3.121  16.226  0.00  0.00    +0.000 C 
ATOM     32  O   UNL     1      48.228   4.530  16.314  0.00  0.00    +0.000 OA
ENDBRANCH  22  32
ENDBRANCH  18  29
ENDBRANCH   1  20
TORSDOF 8
ENDMDL
MODEL 2
REMARK VINA RESULT:    -7.533      1.759      2.173
REMARK INTER + INTRA:         -12.183
REMARK INTER:                 -10.858
REMARK INTRA:                  -1.325
REMARK UNBOUND:                -1.127
REMARK  Name = 
REMARK  10 active torsions:
REMARK  status: ('A' for Active; 'I' for Inactive)
REMARK    1  A    between atoms: C_1  and  O_2
REMARK    2  A    between atoms: O_2  and  C_3
REMARK    3  A    between atoms: C_10  and  C_11
REMARK    4  A    between atoms: N_13  and  C_14
REMARK    5  A    between atoms: C_14  and  C_15
REMARK    6  A    between atoms: C_14  and  C_16
REMARK    7  A    between atoms: C_19  and  O_20
REMARK    8  A    between atoms: O_20  and  C_21
REMARK    9  A    between atoms: C_21  and  C_22
REMARK   10  A    between atoms: C_22  and  N_23
REMARK                            x       y       z     vdW  Elec       q    Type
REMARK                         _______ _______ _______ _____ _____    ______ ____
ROOT
ATOM      1  C   UNL     1      47.945   7.524  13.273  0.00  0.00    +0.000 C 
ATOM      2  C   UNL     1      48.540   8.307  12.097  0.00  0.00    +0.000 C 
ENDROOT
BRANCH   1   3
ATOM      3  C   UNL     1      47.004   6.442  12.770  0.00  0.00    +0.000 A 
ATOM      4  C   UNL     1      46.722   5.325  13.568  0.00  0.00    +0.000 A 
ATOM      5  C   UNL     1      45.765   4.382  13.167  0.00  0.00    +0.000 A 
ATOM      6  C   UNL     1      45.075   4.538  11.967  0.00  0.00    +0.000 A 
ATOM      7  C   UNL     1      45.399   5.609  11.134  0.00  0.00    +0.000 A 
ATOM      8  C   UNL     1      46.350   6.554  11.532  0.00  0.00    +0.000 A 
BRANCH   6   9
ATOM      9  O   UNL     1      44.090   3.691  11.510  0.00  0.00    +0.000 OA
BRANCH   9  10
ATOM     10  C   UNL     1      44.056   3.568  10.081  0.00  0.00    +0.000 C 
BRANCH  10  11
ATOM     11  C   UNL     1      44.684   2.238   9.622  0.00  0.00    +0.000 C 
BRANCH  11  12
ATOM     12  N   UNL     1      45.816   2.430   8.684  0.00  0.00    +0.000 NA
ATOM     13  C   UNL     1      46.220   1.164   8.050  0.00  0.00    +0.000 C 
ATOM     14  C   UNL     1      47.424   1.353   7.127  0.00  0.00    +0.000 C 
ATOM     15  C   UNL     1      47.139   2.400   6.061  0.00  0.00    +0.000 C 
ATOM     16  C   UNL     1      46.661   3.691   6.712  0.00  0.00    +0.000 C 
ATOM     17  C   UNL     1      45.486   3.441   7.664  0.00  0.00    +0.000 C 
ENDBRANCH  11  12
ENDBRANCH  10  11
ENDBRANCH   9  10
ENDBRANCH   6   9
ENDBRANCH   1   3
BRANCH   1  20
ATOM     18  C   UNL     1      49.286   7.490  15.345  0.00  0.00    +0.000 C 
ATOM     19  O   UNL     1      48.622   8.412  15.823  0.00  0.00    +0.000 OA
ATOM     20  N   UNL     1      48.996   6.969  14.114  0.00  0.00    +0.000 N 
ATOM     21  H   UNL     1      49.620   6.286  13.702  0.00  0.00    +0.000 HD
BRANCH  18  29
ATOM     22  C   UNL     1      49.805   4.506  17.034  0.00  0.00    +0.000 A 
ATOM     23  N   UNL     1      50.294   3.454  17.724  0.00  0.00    +0.000 NA
ATOM     24  C   UNL     1      51.539   3.524  18.196  0.00  0.00    +0.000 A 
ATOM     25  N   UNL     1      52.385   4.539  18.057  0.00  0.00    +0.000 NA
ATOM     26  C   UNL     1      51.870   5.558  17.349  0.00  0.00    +0.000 A 
ATOM     27  S   UNL     1      52.824   6.935  17.075  0.00  0.00    +0.000 S 
ATOM     28  C   UNL     1      51.581   7.679  16.196  0.00  0.00    +0.000 A 
ATOM     29  C   UNL     1      50.423   6.914  16.090  0.00  0.00    +0.000 A 
ATOM     30  C   UNL     1      50.596   5.642  16.786  0.00  0.00    +0.000 A 
BRANCH  22  32
ATOM     31  C   UNL     1      47.534   4.621  17.542  0.00  0.00    +0.000 C 
ATOM     32  O   UNL     1      48.522   4.391  16.532  0.00  0.00    +0.000 OA
ENDBRANCH  22  32
ENDBRANCH  18  29
ENDBRANCH   1  20
TORSDOF 8
ENDMDL
MODEL 3
REMARK VINA RESULT:    -7.272      1.981      3.044
REMARK INTER + INTRA:         -11.800
REMARK INTER:                 -10.340
REMARK INTRA:                  -1.461
REMARK UNBOUND:                -1.127
REMARK  Name = 
REMARK  10 active torsions:
REMARK  status: ('A' for Active; 'I' for Inactive)
REMARK    1  A    between atoms: C_1  and  O_2
REMARK    2  A    between atoms: O_2  and  C_3
REMARK    3  A    between atoms: C_10  and  C_11
REMARK    4  A    between atoms: N_13  and  C_14
REMARK    5  A    between atoms: C_14  and  C_15
REMARK    6  A    between atoms: C_14  and  C_16
REMARK    7  A    between atoms: C_19  and  O_20
REMARK    8  A    between atoms: O_20  and  C_21
REMARK    9  A    between atoms: C_21  and  C_22
REMARK   10  A    between atoms: C_22  and  N_23
REMARK                            x       y       z     vdW  Elec       q    Type
REMARK                         _______ _______ _______ _____ _____    ______ ____
ROOT
ATOM      1  C   UNL     1      47.738   5.019  15.006  0.00  0.00    +0.000 C 
ATOM      2  C   UNL     1      47.381   4.071  16.156  0.00  0.00    +0.000 C 
ENDROOT
BRANCH   1   3
ATOM      3  C   UNL     1      46.759   4.852  13.855  0.00  0.00    +0.000 A 
ATOM      4  C   UNL     1      46.450   3.573  13.374  0.00  0.00    +0.000 A 
ATOM      5  C   UNL     1      45.461   3.397  12.396  0.00  0.00    +0.000 A 
ATOM      6  C   UNL     1      44.765   4.490  11.885  0.00  0.00    +0.000 A 
ATOM      7  C   UNL     1      45.114   5.773  12.309  0.00  0.00    +0.000 A 
ATOM      8  C   UNL     1      46.097   5.952  13.287  0.00  0.00    +0.000 A 
BRANCH   6   9
ATOM      9  O   UNL     1      43.749   4.414  10.959  0.00  0.00    +0.000 OA
BRANCH   9  10
ATOM     10  C   UNL     1      43.992   3.456   9.918  0.00  0.00    +0.000 C 
BRANCH  10  11
ATOM     11  C   UNL     1      44.705   4.110   8.717  0.00  0.00    +0.000 C 
BRANCH  11  12
ATOM     12  N   UNL     1      45.408   3.125   7.860  0.00  0.00    +0.000 NA
ATOM     13  C   UNL     1      46.551   3.732   7.158  0.00  0.00    +0.000 C 
ATOM     14  C   UNL     1      47.241   2.730   6.232  0.00  0.00    +0.000 C 
ATOM     15  C   UNL     1      47.696   1.498   6.997  0.00  0.00    +0.000 C 
ATOM     16  C   UNL     1      46.527   0.905   7.774  0.00  0.00    +0.000 C 
ATOM     17  C   UNL     1      45.841   1.959   8.650  0.00  0.00    +0.000 C 
ENDBRANCH  11  12
ENDBRANCH  10  11
ENDBRANCH   9  10
ENDBRANCH   6   9
ENDBRANCH   1   3
BRANCH   1  20
ATOM     18  C   UNL     1      48.880   7.196  15.234  0.00  0.00    +0.000 C 
ATOM     19  O   UNL     1      49.835   6.797  14.565  0.00  0.00    +0.000 OA
ATOM     20  N   UNL     1      47.792   6.399  15.465  0.00  0.00    +0.000 N 
ATOM     21  H   UNL     1      47.070   6.713  16.103  0.00  0.00    +0.000 HD
BRANCH  18  29
ATOM     22  C   UNL     1      47.950   8.519  18.302  0.00  0.00    +0.000 A 
ATOM     23  N   UNL     1      47.701   9.296  19.377  0.00  0.00    +0.000 NA
ATOM     24  C   UNL     1      47.934  10.606  19.285  0.00  0.00    +0.000 A 
ATOM     25  N   UNL     1      48.406  11.256  18.227  0.00  0.00    +0.000 NA
ATOM     26  C   UNL     1      48.660  10.447  17.185  0.00  0.00    +0.000 A 
ATOM     27  S   UNL     1      49.274  11.120  15.751  0.00  0.00    +0.000 S 
ATOM     28  C   UNL     1      49.322   9.599  15.004  0.00  0.00    +0.000 A 
ATOM     29  C   UNL     1      48.877   8.555  15.809  0.00  0.00    +0.000 A 
ATOM     30  C   UNL     1      48.477   9.066  17.118  0.00  0.00    +0.000 A 
BRANCH  22  32
ATOM     31  C   UNL     1      48.883   6.480  18.934  0.00  0.00    +0.000 C 
ATOM     32  O   UNL     1      47.727   7.161  18.438  0.00  0.00    +0.000 OA
ENDBRANCH  22  32
ENDBRANCH  18  29
ENDBRANCH   1  20
TORSDOF 8
ENDMDL
MODEL 4
REMARK VINA RESULT:    -6.968      2.171      4.085
REMARK INTER + INTRA:         -11.354
REMARK INTER:                 -10.087
REMARK INTRA:                  -1.266
REMARK UNBOUND:                -1.127
REMARK  Name = 
REMARK  10 active torsions:
REMARK  status: ('A' for Active; 'I' for Inactive)
REMARK    1  A    between atoms: C_1  and  O_2
REMARK    2  A    between atoms: O_2  and  C_3
REMARK    3  A    between atoms: C_10  and  C_11
REMARK    4  A    between atoms: N_13  and  C_14
REMARK    5  A    between atoms: C_14  and  C_15
REMARK    6  A    between atoms: C_14  and  C_16
REMARK    7  A    between atoms: C_19  and  O_20
REMARK    8  A    between atoms: O_20  and  C_21
REMARK    9  A    between atoms: C_21  and  C_22
REMARK   10  A    between atoms: C_22  and  N_23
REMARK                            x       y       z     vdW  Elec       q    Type
REMARK                         _______ _______ _______ _____ _____    ______ ____
ROOT
ATOM      1  C   UNL     1      47.686   5.085  14.938  0.00  0.00    +0.000 C 
ATOM      2  C   UNL     1      47.319   4.231  16.158  0.00  0.00    +0.000 C 
ENDROOT
BRANCH   1   3
ATOM      3  C   UNL     1      46.706   4.839  13.803  0.00  0.00    +0.000 A 
ATOM      4  C   UNL     1      46.489   3.539  13.329  0.00  0.00    +0.000 A 
ATOM      5  C   UNL     1      45.502   3.284  12.366  0.00  0.00    +0.000 A 
ATOM      6  C   UNL     1      44.716   4.319  11.864  0.00  0.00    +0.000 A 
ATOM      7  C   UNL     1      44.972   5.626  12.280  0.00  0.00    +0.000 A 
ATOM      8  C   UNL     1      45.952   5.883  13.243  0.00  0.00    +0.000 A 
BRANCH   6   9
ATOM      9  O   UNL     1      43.696   4.162  10.952  0.00  0.00    +0.000 OA
BRANCH   9  10
ATOM     10  C   UNL     1      44.009   3.246   9.893  0.00  0.00    +0.000 C 
BRANCH  10  11
ATOM     11  C   UNL     1      44.696   3.969   8.717  0.00  0.00    +0.000 C 
BRANCH  11  12
ATOM     12  N   UNL     1      45.432   3.043   7.824  0.00  0.00    +0.000 NA
ATOM     13  C   UNL     1      46.555   3.714   7.149  0.00  0.00    +0.000 C 
ATOM     14  C   UNL     1      47.278   2.774   6.185  0.00  0.00    +0.000 C 
ATOM     15  C   UNL     1      47.772   1.527   6.901  0.00  0.00    +0.000 C 
ATOM     16  C   UNL     1      46.623   0.866   7.651  0.00  0.00    +0.000 C 
ATOM     17  C   UNL     1      45.902   1.861   8.567  0.00  0.00    +0.000 C 
ENDBRANCH  11  12
ENDBRANCH  10  11
ENDBRANCH   9  10
ENDBRANCH   6   9
ENDBRANCH   1   3
BRANCH   1  20
ATOM     18  C   UNL     1      48.933   7.186  15.287  0.00  0.00    +0.000 C 
ATOM     19  O   UNL     1      49.983   6.657  14.918  0.00  0.00    +0.000 OA
ATOM     20  N   UNL     1      47.752   6.495  15.291  0.00  0.00    +0.000 N 
ATOM     21  H   UNL     1      46.927   6.920  15.696  0.00  0.00    +0.000 HD
BRANCH  18  29
ATOM     22  C   UNL     1      49.293  10.243  13.689  0.00  0.00    +0.000 A 
ATOM     23  N   UNL     1      49.368  11.546  13.347  0.00  0.00    +0.000 NA
ATOM     24  C   UNL     1      49.257  12.465  14.307  0.00  0.00    +0.000 A 
ATOM     25  N   UNL     1      49.066  12.240  15.602  0.00  0.00    +0.000 NA
ATOM     26  C   UNL     1      48.978  10.934  15.901  0.00  0.00    +0.000 A 
ATOM     27  S   UNL     1      48.730  10.473  17.517  0.00  0.00    +0.000 S 
ATOM     28  C   UNL     1      48.728   8.832  17.097  0.00  0.00    +0.000 A 
ATOM     29  C   UNL     1      48.915   8.591  15.739  0.00  0.00    +0.000 A 
ATOM     30  C   UNL     1      49.068   9.855  15.022  0.00  0.00    +0.000 A 
BRANCH  22  32
ATOM     31  C   UNL     1      48.092   8.948  12.170  0.00  0.00    +0.000 C 
ATOM     32  O   UNL     1      49.383   9.315  12.667  0.00  0.00    +0.000 OA
ENDBRANCH  22  32
ENDBRANCH  18  29
ENDBRANCH   1  20
TORSDOF 8
ENDMDL
MODEL 5
REMARK VINA RESULT:    -6.607      2.143      3.807
REMARK INTER + INTRA:         -10.824
REMARK INTER:                  -9.750
REMARK INTRA:                  -1.074
REMARK UNBOUND:                -1.127
REMARK  Name = 
REMARK  10 active torsions:
REMARK  status: ('A' for Active; 'I' for Inactive)
REMARK    1  A    between atoms: C_1  and  O_2
REMARK    2  A    between atoms: O_2  and  C_3
REMARK    3  A    between atoms: C_10  and  C_11
REMARK    4  A    between atoms: N_13  and  C_14
REMARK    5  A    between atoms: C_14  and  C_15
REMARK    6  A    between atoms: C_14  and  C_16
REMARK    7  A    between atoms: C_19  and  O_20
REMARK    8  A    between atoms: O_20  and  C_21
REMARK    9  A    between atoms: C_21  and  C_22
REMARK   10  A    between atoms: C_22  and  N_23
REMARK                            x       y       z     vdW  Elec       q    Type
REMARK                         _______ _______ _______ _____ _____    ______ ____
ROOT
ATOM      1  C   UNL     1      47.971   4.612  16.504  0.00  0.00    +0.000 C 
ATOM      2  C   UNL     1      47.337   3.372  17.145  0.00  0.00    +0.000 C 
ENDROOT
BRANCH   1   3
ATOM      3  C   UNL     1      47.485   4.777  15.074  0.00  0.00    +0.000 A 
ATOM      4  C   UNL     1      46.782   3.742  14.443  0.00  0.00    +0.000 A 
ATOM      5  C   UNL     1      46.226   3.927  13.170  0.00  0.00    +0.000 A 
ATOM      6  C   UNL     1      46.360   5.145  12.506  0.00  0.00    +0.000 A 
ATOM      7  C   UNL     1      47.117   6.157  13.097  0.00  0.00    +0.000 A 
ATOM      8  C   UNL     1      47.669   5.978  14.369  0.00  0.00    +0.000 A 
BRANCH   6   9
ATOM      9  O   UNL     1      45.813   5.436  11.276  0.00  0.00    +0.000 OA
BRANCH   9  10
ATOM     10  C   UNL     1      44.384   5.313  11.240  0.00  0.00    +0.000 C 
BRANCH  10  11
ATOM     11  C   UNL     1      43.947   4.184  10.286  0.00  0.00    +0.000 C 
BRANCH  11  12
ATOM     12  N   UNL     1      45.077   3.615   9.513  0.00  0.00    +0.000 NA
ATOM     13  C   UNL     1      44.838   2.206   9.156  0.00  0.00    +0.000 C 
ATOM     14  C   UNL     1      46.028   1.605   8.408  0.00  0.00    +0.000 C 
ATOM     15  C   UNL     1      46.357   2.409   7.161  0.00  0.00    +0.000 C 
ATOM     16  C   UNL     1      46.544   3.877   7.521  0.00  0.00    +0.000 C 
ATOM     17  C   UNL     1      45.347   4.420   8.309  0.00  0.00    +0.000 C 
ENDBRANCH  11  12
ENDBRANCH  10  11
ENDBRANCH   9  10
ENDBRANCH   6   9
ENDBRANCH   1   3
BRANCH   1  20
ATOM     18  C   UNL     1      48.393   6.066  18.453  0.00  0.00    +0.000 C 
ATOM     19  O   UNL     1      49.313   5.339  18.832  0.00  0.00    +0.000 OA
ATOM     20  N   UNL     1      47.707   5.802  17.299  0.00  0.00    +0.000 N 
ATOM     21  H   UNL     1      46.890   6.354  17.067  0.00  0.00    +0.000 HD
BRANCH  18  29
ATOM     22  C   UNL     1      47.955   9.422  17.695  0.00  0.00    +0.000 A 
ATOM     23  N   UNL     1      47.688  10.745  17.694  0.00  0.00    +0.000 NA
ATOM     24  C   UNL     1      47.327  11.324  18.840  0.00  0.00    +0.000 A 
ATOM     25  N   UNL     1      47.186  10.730  20.019  0.00  0.00    +0.000 NA
ATOM     26  C   UNL     1      47.441   9.411  19.978  0.00  0.00    +0.000 A 
ATOM     27  S   UNL     1      47.303   8.500  21.403  0.00  0.00    +0.000 S 
ATOM     28  C   UNL     1      47.738   7.078  20.591  0.00  0.00    +0.000 A 
ATOM     29  C   UNL     1      48.000   7.254  19.236  0.00  0.00    +0.000 A 
ATOM     30  C   UNL     1      47.824   8.657  18.868  0.00  0.00    +0.000 A 
BRANCH  22  32
ATOM     31  C   UNL     1      48.812   9.812  15.565  0.00  0.00    +0.000 C 
ATOM     32  O   UNL     1      48.299   8.846  16.487  0.00  0.00    +0.000 OA
ENDBRANCH  22  32
ENDBRANCH  18  29
ENDBRANCH   1  20
TORSDOF 8
ENDMDL
MODEL 6
REMARK VINA RESULT:    -6.568      2.725      3.564
REMARK INTER + INTRA:         -10.767
REMARK INTER:                  -9.491
REMARK INTRA:                  -1.276
REMARK UNBOUND:                -1.127
REMARK  Name = 
REMARK  10 active torsions:
REMARK  status: ('A' for Active; 'I' for Inactive)
REMARK    1  A    between atoms: C_1  and  O_2
REMARK    2  A    between atoms: O_2  and  C_3
REMARK    3  A    between atoms: C_10  and  C_11
REMARK    4  A    between atoms: N_13  and  C_14
REMARK    5  A    between atoms: C_14  and  C_15
REMARK    6  A    between atoms: C_14  and  C_16
REMARK    7  A    between atoms: C_19  and  O_20
REMARK    8  A    between atoms: O_20  and  C_21
REMARK    9  A    between atoms: C_21  and  C_22
REMARK   10  A    between atoms: C_22  and  N_23
REMARK                            x       y       z     vdW  Elec       q    Type
REMARK                         _______ _______ _______ _____ _____    ______ ____
ROOT
ATOM      1  C   UNL     1      49.729   7.868  16.395  0.00  0.00    +0.000 C 
ATOM      2  C   UNL     1      50.681   9.008  16.015  0.00  0.00    +0.000 C 
ENDROOT
BRANCH   1   3
ATOM      3  C   UNL     1      48.708   7.639  15.293  0.00  0.00    +0.000 A 
ATOM      4  C   UNL     1      48.068   8.729  14.687  0.00  0.00    +0.000 A 
ATOM      5  C   UNL     1      47.216   8.539  13.591  0.00  0.00    +0.000 A 
ATOM      6  C   UNL     1      46.989   7.263  13.080  0.00  0.00    +0.000 A 
ATOM      7  C   UNL     1      47.567   6.166  13.720  0.00  0.00    +0.000 A 
ATOM      8  C   UNL     1      48.421   6.352  14.811  0.00  0.00    +0.000 A 
BRANCH   6   9
ATOM      9  O   UNL     1      46.206   6.982  11.983  0.00  0.00    +0.000 OA
BRANCH   9  10
ATOM     10  C   UNL     1      45.955   5.580  11.801  0.00  0.00    +0.000 C 
BRANCH  10  11
ATOM     11  C   UNL     1      44.561   5.340  11.189  0.00  0.00    +0.000 C 
BRANCH  11  12
ATOM     12  N   UNL     1      44.600   4.454  10.001  0.00  0.00    +0.000 NA
ATOM     13  C   UNL     1      45.691   4.821   9.082  0.00  0.00    +0.000 C 
ATOM     14  C   UNL     1      45.694   3.944   7.831  0.00  0.00    +0.000 C 
ATOM     15  C   UNL     1      45.794   2.470   8.193  0.00  0.00    +0.000 C 
ATOM     16  C   UNL     1      44.703   2.104   9.191  0.00  0.00    +0.000 C 
ATOM     17  C   UNL     1      44.711   3.041  10.404  0.00  0.00    +0.000 C 
ENDBRANCH  11  12
ENDBRANCH  10  11
ENDBRANCH   9  10
ENDBRANCH   6   9
ENDBRANCH   1   3
BRANCH   1  20
ATOM     18  C   UNL     1      50.854   6.342  17.975  0.00  0.00    +0.000 C 
ATOM     19  O   UNL     1      50.532   7.049  18.931  0.00  0.00    +0.000 OA
ATOM     20  N   UNL     1      50.468   6.651  16.700  0.00  0.00    +0.000 N 
ATOM     21  H   UNL     1      50.832   6.113  15.923  0.00  0.00    +0.000 HD
BRANCH  18  29
ATOM     22  C   UNL     1      50.402   2.979  17.256  0.00  0.00    +0.000 A 
ATOM     23  N   UNL     1      50.517   1.645  17.080  0.00  0.00    +0.000 NA
ATOM     24  C   UNL     1      51.623   1.038  17.511  0.00  0.00    +0.000 A 
ATOM     25  N   UNL     1      52.663   1.611  18.106  0.00  0.00    +0.000 NA
ATOM     26  C   UNL     1      52.521   2.940  18.246  0.00  0.00    +0.000 A 
ATOM     27  S   UNL     1      53.766   3.828  18.985  0.00  0.00    +0.000 S 
ATOM     28  C   UNL     1      52.908   5.277  18.794  0.00  0.00    +0.000 A 
ATOM     29  C   UNL     1      51.670   5.128  18.175  0.00  0.00    +0.000 A 
ATOM     30  C   UNL     1      51.437   3.724  17.849  0.00  0.00    +0.000 A 
BRANCH  22  32
ATOM     31  C   UNL     1      48.078   2.868  17.151  0.00  0.00    +0.000 C 
ATOM     32  O   UNL     1      49.257   3.584  16.772  0.00  0.00    +0.000 OA
ENDBRANCH  22  32
ENDBRANCH  18  29
ENDBRANCH   1  20
TORSDOF 8
ENDMDL
MODEL 7
REMARK VINA RESULT:    -6.487      1.328      1.789
REMARK INTER + INTRA:         -10.648
REMARK INTER:                  -9.265
REMARK INTRA:                  -1.383
REMARK UNBOUND:                -1.127
REMARK  Name = 
REMARK  10 active torsions:
REMARK  status: ('A' for Active; 'I' for Inactive)
REMARK    1  A    between atoms: C_1  and  O_2
REMARK    2  A    between atoms: O_2  and  C_3
REMARK    3  A    between atoms: C_10  and  C_11
REMARK    4  A    between atoms: N_13  and  C_14
REMARK    5  A    between atoms: C_14  and  C_15
REMARK    6  A    between atoms: C_14  and  C_16
REMARK    7  A    between atoms: C_19  and  O_20
REMARK    8  A    between atoms: O_20  and  C_21
REMARK    9  A    between atoms: C_21  and  C_22
REMARK   10  A    between atoms: C_22  and  N_23
REMARK                            x       y       z     vdW  Elec       q    Type
REMARK                         _______ _______ _______ _____ _____    ______ ____
ROOT
ATOM      1  C   UNL     1      49.031   8.674  14.716  0.00  0.00    +0.000 C 
ATOM      2  C   UNL     1      50.379   8.525  14.001  0.00  0.00    +0.000 C 
ENDROOT
BRANCH   1   3
ATOM      3  C   UNL     1      47.906   8.140  13.844  0.00  0.00    +0.000 A 
ATOM      4  C   UNL     1      46.995   9.023  13.250  0.00  0.00    +0.000 A 
ATOM      5  C   UNL     1      46.027   8.555  12.350  0.00  0.00    +0.000 A 
ATOM      6  C   UNL     1      45.954   7.201  12.027  0.00  0.00    +0.000 A 
ATOM      7  C   UNL     1      46.812   6.306  12.666  0.00  0.00    +0.000 A 
ATOM      8  C   UNL     1      47.781   6.770  13.561  0.00  0.00    +0.000 A 
BRANCH   6   9
ATOM      9  O   UNL     1      45.071   6.654  11.124  0.00  0.00    +0.000 OA
BRANCH   9  10
ATOM     10  C   UNL     1      45.005   5.221  11.181  0.00  0.00    +0.000 C 
BRANCH  10  11
ATOM     11  C   UNL     1      43.897   4.679  10.257  0.00  0.00    +0.000 C 
BRANCH  11  12
ATOM     12  N   UNL     1      44.420   3.788   9.194  0.00  0.00    +0.000 NA
ATOM     13  C   UNL     1      45.556   4.397   8.482  0.00  0.00    +0.000 C 
ATOM     14  C   UNL     1      46.058   3.501   7.349  0.00  0.00    +0.000 C 
ATOM     15  C   UNL     1      46.447   2.126   7.867  0.00  0.00    +0.000 C 
ATOM     16  C   UNL     1      45.294   1.521   8.657  0.00  0.00    +0.000 C 
ATOM     17  C   UNL     1      44.796   2.475   9.748  0.00  0.00    +0.000 C 
ENDBRANCH  11  12
ENDBRANCH  10  11
ENDBRANCH   9  10
ENDBRANCH   6   9
ENDBRANCH   1   3
BRANCH   1  20
ATOM     18  C   UNL     1      48.431   8.561  17.107  0.00  0.00    +0.000 C 
ATOM     19  O   UNL     1      47.761   9.592  17.017  0.00  0.00    +0.000 OA
ATOM     20  N   UNL     1      49.056   8.021  16.016  0.00  0.00    +0.000 N 
ATOM     21  H   UNL     1      49.682   7.235  16.138  0.00  0.00    +0.000 HD
BRANCH  18  29
ATOM     22  C   UNL     1      48.420   5.233  18.085  0.00  0.00    +0.000 A 
ATOM     23  N   UNL     1      48.485   4.056  18.743  0.00  0.00    +0.000 NA
ATOM     24  C   UNL     1      48.665   4.073  20.064  0.00  0.00    +0.000 A 
ATOM     25  N   UNL     1      48.801   5.148  20.833  0.00  0.00    +0.000 NA
ATOM     26  C   UNL     1      48.750   6.299  20.141  0.00  0.00    +0.000 A 
ATOM     27  S   UNL     1      48.912   7.769  20.975  0.00  0.00    +0.000 S 
ATOM     28  C   UNL     1      48.758   8.654  19.538  0.00  0.00    +0.000 A 
ATOM     29  C   UNL     1      48.580   7.869  18.402  0.00  0.00    +0.000 A 
ATOM     30  C   UNL     1      48.572   6.454  18.766  0.00  0.00    +0.000 A 
BRANCH  22  32
ATOM     31  C   UNL     1      47.345   4.155  16.322  0.00  0.00    +0.000 C 
ATOM     32  O   UNL     1      48.262   5.182  16.713  0.00  0.00    +0.000 OA
ENDBRANCH  22  32
ENDBRANCH  18  29
ENDBRANCH   1  20
TORSDOF 8
ENDMDL
MODEL 8
REMARK VINA RESULT:    -6.288      3.092      4.227
REMARK INTER + INTRA:         -10.356
REMARK INTER:                  -9.055
REMARK INTRA:                  -1.300
REMARK UNBOUND:                -1.127
REMARK  Name = 
REMARK  10 active torsions:
REMARK  status: ('A' for Active; 'I' for Inactive)
REMARK    1  A    between atoms: C_1  and  O_2
REMARK    2  A    between atoms: O_2  and  C_3
REMARK    3  A    between atoms: C_10  and  C_11
REMARK    4  A    between atoms: N_13  and  C_14
REMARK    5  A    between atoms: C_14  and  C_15
REMARK    6  A    between atoms: C_14  and  C_16
REMARK    7  A    between atoms: C_19  and  O_20
REMARK    8  A    between atoms: O_20  and  C_21
REMARK    9  A    between atoms: C_21  and  C_22
REMARK   10  A    between atoms: C_22  and  N_23
REMARK                            x       y       z     vdW  Elec       q    Type
REMARK                         _______ _______ _______ _____ _____    ______ ____
ROOT
ATOM      1  C   UNL     1      49.201   6.621  17.342  0.00  0.00    +0.000 C 
ATOM      2  C   UNL     1      49.695   8.027  16.985  0.00  0.00    +0.000 C 
ENDROOT
BRANCH   1   3
ATOM      3  C   UNL     1      48.499   5.986  16.153  0.00  0.00    +0.000 A 
ATOM      4  C   UNL     1      47.798   4.783  16.308  0.00  0.00    +0.000 A 
ATOM      5  C   UNL     1      47.047   4.251  15.250  0.00  0.00    +0.000 A 
ATOM      6  C   UNL     1      46.983   4.909  14.024  0.00  0.00    +0.000 A 
ATOM      7  C   UNL     1      47.734   6.070  13.839  0.00  0.00    +0.000 A 
ATOM      8  C   UNL     1      48.479   6.607  14.893  0.00  0.00    +0.000 A 
BRANCH   6   9
ATOM      9  O   UNL     1      46.241   4.489  12.943  0.00  0.00    +0.000 OA
BRANCH   9  10
ATOM     10  C   UNL     1      44.825   4.629  13.130  0.00  0.00    +0.000 C 
BRANCH  10  11
ATOM     11  C   UNL     1      44.046   4.046  11.935  0.00  0.00    +0.000 C 
BRANCH  11  12
ATOM     12  N   UNL     1      44.908   3.790  10.756  0.00  0.00    +0.000 NA
ATOM     13  C   UNL     1      44.456   2.613   9.995  0.00  0.00    +0.000 C 
ATOM     14  C   UNL     1      45.379   2.317   8.814  0.00  0.00    +0.000 C 
ATOM     15  C   UNL     1      45.493   3.520   7.891  0.00  0.00    +0.000 C 
ATOM     16  C   UNL     1      45.899   4.753   8.687  0.00  0.00    +0.000 C 
ATOM     17  C   UNL     1      44.973   4.978   9.887  0.00  0.00    +0.000 C 
ENDBRANCH  11  12
ENDBRANCH  10  11
ENDBRANCH   9  10
ENDBRANCH   6   9
ENDBRANCH   1   3
BRANCH   1  20
ATOM     18  C   UNL     1      50.476   5.534  19.154  0.00  0.00    +0.000 C 
ATOM     19  O   UNL     1      49.677   5.942  19.999  0.00  0.00    +0.000 OA
ATOM     20  N   UNL     1      50.295   5.791  17.823  0.00  0.00    +0.000 N 
ATOM     21  H   UNL     1      51.019   5.534  17.162  0.00  0.00    +0.000 HD
BRANCH  18  29
ATOM     22  C   UNL     1      52.071   2.739  17.860  0.00  0.00    +0.000 A 
ATOM     23  N   UNL     1      52.896   1.708  17.582  0.00  0.00    +0.000 NA
ATOM     24  C   UNL     1      53.922   1.473  18.401  0.00  0.00    +0.000 A 
ATOM     25  N   UNL     1      54.242   2.162  19.490  0.00  0.00    +0.000 NA
ATOM     26  C   UNL     1      53.411   3.191  19.724  0.00  0.00    +0.000 A 
ATOM     27  S   UNL     1      53.683   4.179  21.078  0.00  0.00    +0.000 S 
ATOM     28  C   UNL     1      52.343   5.146  20.699  0.00  0.00    +0.000 A 
ATOM     29  C   UNL     1      51.661   4.749  19.553  0.00  0.00    +0.000 A 
ATOM     30  C   UNL     1      52.301   3.573  18.969  0.00  0.00    +0.000 A 
BRANCH  22  32
ATOM     31  C   UNL     1      49.982   2.017  17.124  0.00  0.00    +0.000 C 
ATOM     32  O   UNL     1      51.034   2.975  16.976  0.00  0.00    +0.000 OA
ENDBRANCH  22  32
ENDBRANCH  18  29
ENDBRANCH   1  20
TORSDOF 8
ENDMDL
MODEL 9
REMARK VINA RESULT:    -6.056      3.604      9.467
REMARK INTER + INTRA:         -10.015
REMARK INTER:                  -9.160
REMARK INTRA:                  -0.855
REMARK UNBOUND:                -1.127
REMARK  Name = 
REMARK  10 active torsions:
REMARK  status: ('A' for Active; 'I' for Inactive)
REMARK    1  A    between atoms: C_1  and  O_2
REMARK    2  A    between atoms: O_2  and  C_3
REMARK    3  A    between atoms: C_10  and  C_11
REMARK    4  A    between atoms: N_13  and  C_14
REMARK    5  A    between atoms: C_14  and  C_15
REMARK    6  A    between atoms: C_14  and  C_16
REMARK    7  A    between atoms: C_19  and  O_20
REMARK    8  A    between atoms: O_20  and  C_21
REMARK    9  A    between atoms: C_21  and  C_22
REMARK   10  A    between atoms: C_22  and  N_23
REMARK                            x       y       z     vdW  Elec       q    Type
REMARK                         _______ _______ _______ _____ _____    ______ ____
ROOT
ATOM      1  C   UNL     1      47.393   3.588  16.803  0.00  0.00    +0.000 C 
ATOM      2  C   UNL     1      48.631   2.822  16.324  0.00  0.00    +0.000 C 
ENDROOT
BRANCH   1   3
ATOM      3  C   UNL     1      47.655   4.231  18.155  0.00  0.00    +0.000 A 
ATOM      4  C   UNL     1      48.632   3.703  19.009  0.00  0.00    +0.000 A 
ATOM      5  C   UNL     1      48.966   4.356  20.203  0.00  0.00    +0.000 A 
ATOM      6  C   UNL     1      48.335   5.545  20.564  0.00  0.00    +0.000 A 
ATOM      7  C   UNL     1      47.314   6.041  19.753  0.00  0.00    +0.000 A 
ATOM      8  C   UNL     1      46.980   5.395  18.559  0.00  0.00    +0.000 A 
BRANCH   6   9
ATOM      9  O   UNL     1      48.626   6.280  21.691  0.00  0.00    +0.000 OA
BRANCH   9  10
ATOM     10  C   UNL     1      49.733   7.177  21.521  0.00  0.00    +0.000 C 
BRANCH  10  11
ATOM     11  C   UNL     1      49.291   8.644  21.691  0.00  0.00    +0.000 C 
BRANCH  11  12
ATOM     12  N   UNL     1      49.133   9.350  20.397  0.00  0.00    +0.000 NA
ATOM     13  C   UNL     1      49.804   8.634  19.299  0.00  0.00    +0.000 C 
ATOM     14  C   UNL     1      49.689   9.391  17.977  0.00  0.00    +0.000 C 
ATOM     15  C   UNL     1      48.234   9.648  17.616  0.00  0.00    +0.000 C 
ATOM     16  C   UNL     1      47.523  10.334  18.775  0.00  0.00    +0.000 C 
ATOM     17  C   UNL     1      47.708   9.562  20.086  0.00  0.00    +0.000 C 
ENDBRANCH  11  12
ENDBRANCH  10  11
ENDBRANCH   9  10
ENDBRANCH   6   9
ENDBRANCH   1   3
BRANCH   1  20
ATOM     18  C   UNL     1      46.919   4.276  14.481  0.00  0.00    +0.000 C 
ATOM     19  O   UNL     1      47.157   3.140  14.066  0.00  0.00    +0.000 OA
ATOM     20  N   UNL     1      46.974   4.571  15.815  0.00  0.00    +0.000 N 
ATOM     21  H   UNL     1      46.877   5.533  16.117  0.00  0.00    +0.000 HD
BRANCH  18  29
ATOM     22  C   UNL     1      44.085   5.040  12.633  0.00  0.00    +0.000 A 
ATOM     23  N   UNL     1      43.143   5.592  11.839  0.00  0.00    +0.000 NA
ATOM     24  C   UNL     1      43.441   6.711  11.177  0.00  0.00    +0.000 A 
ATOM     25  N   UNL     1      44.592   7.372  11.214  0.00  0.00    +0.000 NA
ATOM     26  C   UNL     1      45.498   6.804  12.028  0.00  0.00    +0.000 A 
ATOM     27  S   UNL     1      47.025   7.527  12.193  0.00  0.00    +0.000 S 
ATOM     28  C   UNL     1      47.526   6.330  13.283  0.00  0.00    +0.000 A 
ATOM     29  C   UNL     1      46.563   5.361  13.545  0.00  0.00    +0.000 A 
ATOM     30  C   UNL     1      45.346   5.645  12.789  0.00  0.00    +0.000 A 
BRANCH  22  32
ATOM     31  C   UNL     1      43.559   2.778  12.455  0.00  0.00    +0.000 C 
ATOM     32  O   UNL     1      43.736   3.898  13.328  0.00  0.00    +0.000 OA
ENDBRANCH  22  32
ENDBRANCH  18  29
ENDBRANCH   1  20
TORSDOF 8
ENDMDL
