MODEL 1
REMARK VINA RESULT:    -7.984      0.000      0.000
REMARK INTER + INTRA:         -12.162
REMARK INTER:                 -11.251
REMARK INTRA:                  -0.911
REMARK UNBOUND:                -0.911
REMARK  Name = 
REMARK  8 active torsions:
REMARK  status: ('A' for Active; 'I' for Inactive)
REMARK    1  A    between atoms: C_1  and  C_2
REMARK    2  A    between atoms: C_6  and  C_7
REMARK    3  A    between atoms: C_7  and  O_8
REMARK    4  A    between atoms: O_8  and  C_9
REMARK    5  A    between atoms: C_9  and  C_10
REMARK    6  A    between atoms: C_13  and  C_14
REMARK    7  A    between atoms: C_14  and  N_15
REMARK    8  A    between atoms: C_16  and  C_18
REMARK                            x       y       z     vdW  Elec       q    Type
REMARK                         _______ _______ _______ _____ _____    ______ ____
ROOT
ATOM      1  C   UNL     1      44.334   5.492  12.150  0.00  0.00    +0.000 A 
ATOM      2  C   UNL     1      44.993   6.662  11.874  0.00  0.00    +0.000 A 
ATOM      3  N   UNL     1      46.149   7.026  12.462  0.00  0.00    +0.000 NA
ATOM      4  C   UNL     1      46.682   6.160  13.346  0.00  0.00    +0.000 A 
ATOM      5  N   UNL     1      46.092   5.010  13.726  0.00  0.00    +0.000 NA
ATOM      6  C   UNL     1      44.935   4.702  13.108  0.00  0.00    +0.000 A 
ENDROOT
BRANCH   1   7
ATOM      7  C   UNL     1      43.064   5.093  11.475  0.00  0.00    +0.000 C 
BRANCH   7   8
ATOM      8  O   UNL     1      43.370   4.633  10.163  0.00  0.00    +0.000 OA
BRANCH   8   9
ATOM      9  C   UNL     1      43.953   3.328  10.174  0.00  0.00    +0.000 C 
BRANCH   9  15
ATOM     10  C   UNL     1      46.923   0.490   7.524  0.00  0.00    +0.000 C 
ATOM     11  C   UNL     1      46.415   1.855   7.857  0.00  0.00    +0.000 A 
ATOM     12  C   UNL     1      46.898   2.983   7.205  0.00  0.00    +0.000 A 
ATOM     13  N   UNL     1      46.466   4.233   7.487  0.00  0.00    +0.000 NA
ATOM     14  C   UNL     1      45.514   4.313   8.445  0.00  0.00    +0.000 A 
ATOM     15  C   UNL     1      45.002   3.197   9.101  0.00  0.00    +0.000 A 
ATOM     16  N   UNL     1      45.464   1.948   8.820  0.00  0.00    +0.000 NA
ENDBRANCH   9  15
ENDBRANCH   8   9
ENDBRANCH   7   8
ENDBRANCH   1   7
BRANCH   4  17
ATOM     17  C   UNL     1      48.018   6.523  13.948  0.00  0.00    +0.000 C 
BRANCH  17  18
ATOM     18  N   UNL     1      47.995   6.681  15.385  0.00  0.00    +0.000 N 
ATOM     19  C   UNL     1      49.191   6.774  16.051  0.00  0.00    +0.000 C 
ATOM     20  O   UNL     1      50.264   6.559  15.494  0.00  0.00    +0.000 OA
ATOM     21  H   UNL     1      47.196   7.183  15.759  0.00  0.00    +0.000 HD
BRANCH  19  22
ATOM     22  C   UNL     1      49.114   7.034  17.486  0.00  0.00    +0.000 A 
ATOM     23  C   UNL     1      49.547   8.242  18.016  0.00  0.00    +0.000 A 
ATOM     24  S   UNL     1      49.906   8.112  19.684  0.00  0.00    +0.000 S 
ATOM     25  C   UNL     1      49.290   6.526  19.746  0.00  0.00    +0.000 A 
ATOM     26  N   UNL     1      49.393   5.747  20.852  0.00  0.00    +0.000 NA
ATOM     27  C   UNL     1      48.804   4.600  20.747  0.00  0.00    +0.000 A 
ATOM     28  N   UNL     1      48.061   4.183  19.669  0.00  0.00    +0.000 N 
ATOM     29  C   UNL     1      47.930   4.940  18.531  0.00  0.00    +0.000 A 
ATOM     30  O   UNL     1      47.186   4.615  17.611  0.00  0.00    +0.000 OA
ATOM     31  C   UNL     1      48.703   6.166  18.548  0.00  0.00    +0.000 A 
ATOM     32  H   UNL     1      47.548   3.316  19.694  0.00  0.00    +0.000 HD
ENDBRANCH  19  22
ENDBRANCH  17  18
ENDBRANCH   4  17
TORSDOF 7
ENDMDL
MODEL 2
REMARK VINA RESULT:    -7.955      1.568      2.107
REMARK INTER + INTRA:         -12.122
REMARK INTER:                 -11.142
REMARK INTRA:                  -0.980
REMARK UNBOUND:                -0.911
REMARK  Name = 
REMARK  8 active torsions:
REMARK  status: ('A' for Active; 'I' for Inactive)
REMARK    1  A    between atoms: C_1  and  C_2
REMARK    2  A    between atoms: C_6  and  C_7
REMARK    3  A    between atoms: C_7  and  O_8
REMARK    4  A    between atoms: O_8  and  C_9
REMARK    5  A    between atoms: C_9  and  C_10
REMARK    6  A    between atoms: C_13  and  C_14
REMARK    7  A    between atoms: C_14  and  N_15
REMARK    8  A    between atoms: C_16  and  C_18
REMARK                            x       y       z     vdW  Elec       q    Type
REMARK                         _______ _______ _______ _____ _____    ______ ____
ROOT
ATOM      1  C   UNL     1      44.853   4.704  11.797  0.00  0.00    +0.000 A 
ATOM      2  C   UNL     1      45.284   3.440  12.104  0.00  0.00    +0.000 A 
ATOM      3  N   UNL     1      46.117   3.162  13.127  0.00  0.00    +0.000 NA
ATOM      4  C   UNL     1      46.510   4.198  13.892  0.00  0.00    +0.000 A 
ATOM      5  N   UNL     1      46.186   5.484  13.647  0.00  0.00    +0.000 NA
ATOM      6  C   UNL     1      45.356   5.700  12.608  0.00  0.00    +0.000 A 
ENDROOT
BRANCH   1   7
ATOM      7  C   UNL     1      43.914   4.995  10.674  0.00  0.00    +0.000 C 
BRANCH   7   8
ATOM      8  O   UNL     1      43.921   3.891   9.775  0.00  0.00    +0.000 OA
BRANCH   8   9
ATOM      9  C   UNL     1      44.552   4.214   8.534  0.00  0.00    +0.000 C 
BRANCH   9  15
ATOM     10  C   UNL     1      47.885   2.515   5.387  0.00  0.00    +0.000 C 
ATOM     11  C   UNL     1      47.015   2.286   6.580  0.00  0.00    +0.000 A 
ATOM     12  C   UNL     1      47.019   1.071   7.254  0.00  0.00    +0.000 A 
ATOM     13  N   UNL     1      46.240   0.828   8.331  0.00  0.00    +0.000 NA
ATOM     14  C   UNL     1      45.458   1.861   8.723  0.00  0.00    +0.000 A 
ATOM     15  C   UNL     1      45.449   3.093   8.077  0.00  0.00    +0.000 A 
ATOM     16  N   UNL     1      46.223   3.313   6.980  0.00  0.00    +0.000 NA
ENDBRANCH   9  15
ENDBRANCH   8   9
ENDBRANCH   7   8
ENDBRANCH   1   7
BRANCH   4  17
ATOM     17  C   UNL     1      47.376   3.884  15.089  0.00  0.00    +0.000 C 
BRANCH  17  18
ATOM     18  N   UNL     1      47.574   5.002  15.984  0.00  0.00    +0.000 N 
ATOM     19  C   UNL     1      48.738   5.061  16.708  0.00  0.00    +0.000 C 
ATOM     20  O   UNL     1      49.529   4.122  16.745  0.00  0.00    +0.000 OA
ATOM     21  H   UNL     1      47.139   5.875  15.700  0.00  0.00    +0.000 HD
BRANCH  19  22
ATOM     22  C   UNL     1      48.936   6.258  17.519  0.00  0.00    +0.000 A 
ATOM     23  C   UNL     1      49.835   7.243  17.132  0.00  0.00    +0.000 A 
ATOM     24  S   UNL     1      50.323   8.214  18.454  0.00  0.00    +0.000 S 
ATOM     25  C   UNL     1      49.191   7.470  19.484  0.00  0.00    +0.000 A 
ATOM     26  N   UNL     1      49.142   7.724  20.817  0.00  0.00    +0.000 NA
ATOM     27  C   UNL     1      48.171   7.129  21.433  0.00  0.00    +0.000 A 
ATOM     28  N   UNL     1      47.203   6.360  20.834  0.00  0.00    +0.000 N 
ATOM     29  C   UNL     1      47.215   6.078  19.491  0.00  0.00    +0.000 A 
ATOM     30  O   UNL     1      46.297   5.479  18.940  0.00  0.00    +0.000 OA
ATOM     31  C   UNL     1      48.373   6.599  18.792  0.00  0.00    +0.000 A 
ATOM     32  H   UNL     1      46.420   6.007  21.361  0.00  0.00    +0.000 HD
ENDBRANCH  19  22
ENDBRANCH  17  18
ENDBRANCH   4  17
TORSDOF 7
ENDMDL
MODEL 3
REMARK VINA RESULT:    -7.928      1.786      2.016
REMARK INTER + INTRA:         -12.083
REMARK INTER:                 -11.051
REMARK INTRA:                  -1.032
REMARK UNBOUND:                -0.911
REMARK  Name = 
REMARK  8 active torsions:
REMARK  status: ('A' for Active; 'I' for Inactive)
REMARK    1  A    between atoms: C_1  and  C_2
REMARK    2  A    between atoms: C_6  and  C_7
REMARK    3  A    between atoms: C_7  and  O_8
REMARK    4  A    between atoms: O_8  and  C_9
REMARK    5  A    between atoms: C_9  and  C_10
REMARK    6  A    between atoms: C_13  and  C_14
REMARK    7  A    between atoms: C_14  and  N_15
REMARK    8  A    between atoms: C_16  and  C_18
REMARK                            x       y       z     vdW  Elec       q    Type
REMARK                         _______ _______ _______ _____ _____    ______ ____
ROOT
ATOM      1  C   UNL     1      44.435   5.140  12.634  0.00  0.00    +0.000 A 
ATOM      2  C   UNL     1      45.495   4.620  13.331  0.00  0.00    +0.000 A 
ATOM      3  N   UNL     1      46.620   5.308  13.605  0.00  0.00    +0.000 NA
ATOM      4  C   UNL     1      46.670   6.587  13.184  0.00  0.00    +0.000 A 
ATOM      5  N   UNL     1      45.707   7.179  12.449  0.00  0.00    +0.000 NA
ATOM      6  C   UNL     1      44.609   6.439  12.203  0.00  0.00    +0.000 A 
ENDROOT
BRANCH   1   7
ATOM      7  C   UNL     1      43.186   4.373  12.357  0.00  0.00    +0.000 C 
BRANCH   7   8
ATOM      8  O   UNL     1      43.171   4.007  10.981  0.00  0.00    +0.000 OA
BRANCH   8   9
ATOM      9  C   UNL     1      43.974   2.853  10.725  0.00  0.00    +0.000 C 
BRANCH   9  15
ATOM     10  C   UNL     1      47.008   1.049   7.342  0.00  0.00    +0.000 C 
ATOM     11  C   UNL     1      46.337   2.232   7.962  0.00  0.00    +0.000 A 
ATOM     12  C   UNL     1      46.556   3.518   7.484  0.00  0.00    +0.000 A 
ATOM     13  N   UNL     1      45.972   4.610   8.027  0.00  0.00    +0.000 NA
ATOM     14  C   UNL     1      45.142   4.364   9.068  0.00  0.00    +0.000 A 
ATOM     15  C   UNL     1      44.893   3.084   9.554  0.00  0.00    +0.000 A 
ATOM     16  N   UNL     1      45.506   1.998   9.010  0.00  0.00    +0.000 NA
ENDBRANCH   9  15
ENDBRANCH   8   9
ENDBRANCH   7   8
ENDBRANCH   1   7
BRANCH   4  17
ATOM     17  C   UNL     1      47.893   7.390  13.558  0.00  0.00    +0.000 C 
BRANCH  17  18
ATOM     18  N   UNL     1      48.791   6.710  14.465  0.00  0.00    +0.000 N 
ATOM     19  C   UNL     1      48.928   7.202  15.739  0.00  0.00    +0.000 C 
ATOM     20  O   UNL     1      48.450   8.283  16.073  0.00  0.00    +0.000 OA
ATOM     21  H   UNL     1      48.885   5.710  14.323  0.00  0.00    +0.000 HD
BRANCH  19  22
ATOM     22  C   UNL     1      49.767   6.424  16.646  0.00  0.00    +0.000 A 
ATOM     23  C   UNL     1      50.946   6.950  17.156  0.00  0.00    +0.000 A 
ATOM     24  S   UNL     1      52.013   5.722  17.686  0.00  0.00    +0.000 S 
ATOM     25  C   UNL     1      50.834   4.519  17.438  0.00  0.00    +0.000 A 
ATOM     26  N   UNL     1      51.105   3.196  17.570  0.00  0.00    +0.000 NA
ATOM     27  C   UNL     1      50.074   2.428  17.419  0.00  0.00    +0.000 A 
ATOM     28  N   UNL     1      48.785   2.859  17.218  0.00  0.00    +0.000 N 
ATOM     29  C   UNL     1      48.467   4.187  17.080  0.00  0.00    +0.000 A 
ATOM     30  O   UNL     1      47.307   4.578  17.004  0.00  0.00    +0.000 OA
ATOM     31  C   UNL     1      49.617   5.070  17.089  0.00  0.00    +0.000 A 
ATOM     32  H   UNL     1      48.015   2.209  17.207  0.00  0.00    +0.000 HD
ENDBRANCH  19  22
ENDBRANCH  17  18
ENDBRANCH   4  17
TORSDOF 7
ENDMDL
MODEL 4
REMARK VINA RESULT:    -7.721      1.858      2.973
REMARK INTER + INTRA:         -11.793
REMARK INTER:                 -10.874
REMARK INTRA:                  -0.918
REMARK UNBOUND:                -0.911
REMARK  Name = 
REMARK  8 active torsions:
REMARK  status: ('A' for Active; 'I' for Inactive)
REMARK    1  A    between atoms: C_1  and  C_2
REMARK    2  A    between atoms: C_6  and  C_7
REMARK    3  A    between atoms: C_7  and  O_8
REMARK    4  A    between atoms: O_8  and  C_9
REMARK    5  A    between atoms: C_9  and  C_10
REMARK    6  A    between atoms: C_13  and  C_14
REMARK    7  A    between atoms: C_14  and  N_15
REMARK    8  A    between atoms: C_16  and  C_18
REMARK                            x       y       z     vdW  Elec       q    Type
REMARK                         _______ _______ _______ _____ _____    ______ ____
ROOT
ATOM      1  C   UNL     1      45.504   5.141  11.926  0.00  0.00    +0.000 A 
ATOM      2  C   UNL     1      45.452   3.866  12.426  0.00  0.00    +0.000 A 
ATOM      3  N   UNL     1      46.076   3.479  13.556  0.00  0.00    +0.000 NA
ATOM      4  C   UNL     1      46.759   4.426  14.229  0.00  0.00    +0.000 A 
ATOM      5  N   UNL     1      46.915   5.694  13.800  0.00  0.00    +0.000 NA
ATOM      6  C   UNL     1      46.273   6.019  12.661  0.00  0.00    +0.000 A 
ENDROOT
BRANCH   1   7
ATOM      7  C   UNL     1      44.790   5.559  10.684  0.00  0.00    +0.000 C 
BRANCH   7   8
ATOM      8  O   UNL     1      45.533   5.110   9.557  0.00  0.00    +0.000 OA
BRANCH   8   9
ATOM      9  C   UNL     1      44.749   4.285   8.692  0.00  0.00    +0.000 C 
BRANCH   9  15
ATOM     10  C   UNL     1      47.835   2.528   5.333  0.00  0.00    +0.000 C 
ATOM     11  C   UNL     1      47.013   2.303   6.560  0.00  0.00    +0.000 A 
ATOM     12  C   UNL     1      46.987   1.067   7.195  0.00  0.00    +0.000 A 
ATOM     13  N   UNL     1      46.249   0.828   8.302  0.00  0.00    +0.000 NA
ATOM     14  C   UNL     1      45.541   1.885   8.764  0.00  0.00    +0.000 A 
ATOM     15  C   UNL     1      45.564   3.137   8.157  0.00  0.00    +0.000 A 
ATOM     16  N   UNL     1      46.295   3.355   7.030  0.00  0.00    +0.000 NA
ENDBRANCH   9  15
ENDBRANCH   8   9
ENDBRANCH   7   8
ENDBRANCH   1   7
BRANCH   4  17
ATOM     17  C   UNL     1      47.393   4.020  15.539  0.00  0.00    +0.000 C 
BRANCH  17  18
ATOM     18  N   UNL     1      47.670   5.126  16.428  0.00  0.00    +0.000 N 
ATOM     19  C   UNL     1      48.906   5.194  17.020  0.00  0.00    +0.000 C 
ATOM     20  O   UNL     1      49.711   4.269  16.952  0.00  0.00    +0.000 OA
ATOM     21  H   UNL     1      47.192   5.995  16.211  0.00  0.00    +0.000 HD
BRANCH  19  22
ATOM     22  C   UNL     1      49.172   6.381  17.827  0.00  0.00    +0.000 A 
ATOM     23  C   UNL     1      49.734   6.272  19.093  0.00  0.00    +0.000 A 
ATOM     24  S   UNL     1      49.420   7.657  20.048  0.00  0.00    +0.000 S 
ATOM     25  C   UNL     1      48.732   8.478  18.725  0.00  0.00    +0.000 A 
ATOM     26  N   UNL     1      48.128   9.686  18.852  0.00  0.00    +0.000 NA
ATOM     27  C   UNL     1      47.729  10.198  17.732  0.00  0.00    +0.000 A 
ATOM     28  N   UNL     1      47.937   9.650  16.489  0.00  0.00    +0.000 N 
ATOM     29  C   UNL     1      48.544   8.431  16.316  0.00  0.00    +0.000 A 
ATOM     30  O   UNL     1      48.822   7.990  15.205  0.00  0.00    +0.000 OA
ATOM     31  C   UNL     1      48.868   7.754  17.556  0.00  0.00    +0.000 A 
ATOM     32  H   UNL     1      47.686  10.150  15.651  0.00  0.00    +0.000 HD
ENDBRANCH  19  22
ENDBRANCH  17  18
ENDBRANCH   4  17
TORSDOF 7
ENDMDL
MODEL 5
REMARK VINA RESULT:    -7.555      3.352      8.422
REMARK INTER + INTRA:         -11.558
REMARK INTER:                 -10.251
REMARK INTRA:                  -1.307
REMARK UNBOUND:                -0.911
REMARK  Name = 
REMARK  8 active torsions:
REMARK  status: ('A' for Active; 'I' for Inactive)
REMARK    1  A    between atoms: C_1  and  C_2
REMARK    2  A    between atoms: C_6  and  C_7
REMARK    3  A    between atoms: C_7  and  O_8
REMARK    4  A    between atoms: O_8  and  C_9
REMARK    5  A    between atoms: C_9  and  C_10
REMARK    6  A    between atoms: C_13  and  C_14
REMARK    7  A    between atoms: C_14  and  N_15
REMARK    8  A    between atoms: C_16  and  C_18
REMARK                            x       y       z     vdW  Elec       q    Type
REMARK                         _______ _______ _______ _____ _____    ______ ____
ROOT
ATOM      1  C   UNL     1      48.980   7.892  16.483  0.00  0.00    +0.000 A 
ATOM      2  C   UNL     1      49.268   6.868  15.619  0.00  0.00    +0.000 A 
ATOM      3  N   UNL     1      48.948   6.880  14.310  0.00  0.00    +0.000 NA
ATOM      4  C   UNL     1      48.335   7.985  13.843  0.00  0.00    +0.000 A 
ATOM      5  N   UNL     1      47.962   9.025  14.615  0.00  0.00    +0.000 NA
ATOM      6  C   UNL     1      48.305   8.953  15.916  0.00  0.00    +0.000 A 
ENDROOT
BRANCH   1   7
ATOM      7  C   UNL     1      49.360   7.873  17.926  0.00  0.00    +0.000 C 
BRANCH   7   8
ATOM      8  O   UNL     1      48.300   7.281  18.669  0.00  0.00    +0.000 OA
BRANCH   8   9
ATOM      9  C   UNL     1      48.710   6.076  19.318  0.00  0.00    +0.000 C 
BRANCH   9  15
ATOM     10  C   UNL     1      50.310   2.013  17.118  0.00  0.00    +0.000 C 
ATOM     11  C   UNL     1      49.190   2.961  17.402  0.00  0.00    +0.000 A 
ATOM     12  C   UNL     1      47.919   2.754  16.879  0.00  0.00    +0.000 A 
ATOM     13  N   UNL     1      46.886   3.595  17.109  0.00  0.00    +0.000 NA
ATOM     14  C   UNL     1      47.170   4.655  17.903  0.00  0.00    +0.000 A 
ATOM     15  C   UNL     1      48.429   4.875  18.453  0.00  0.00    +0.000 A 
ATOM     16  N   UNL     1      49.464   4.030  18.192  0.00  0.00    +0.000 NA
ENDBRANCH   9  15
ENDBRANCH   8   9
ENDBRANCH   7   8
ENDBRANCH   1   7
BRANCH   4  17
ATOM     17  C   UNL     1      48.047   8.042  12.362  0.00  0.00    +0.000 C 
BRANCH  17  18
ATOM     18  N   UNL     1      47.522   6.810  11.816  0.00  0.00    +0.000 N 
ATOM     19  C   UNL     1      46.217   6.788  11.390  0.00  0.00    +0.000 C 
ATOM     20  O   UNL     1      45.445   7.718  11.612  0.00  0.00    +0.000 OA
ATOM     21  H   UNL     1      48.194   6.220  11.336  0.00  0.00    +0.000 HD
BRANCH  19  22
ATOM     22  C   UNL     1      45.764   5.554  10.755  0.00  0.00    +0.000 A 
ATOM     23  C   UNL     1      45.823   5.398   9.376  0.00  0.00    +0.000 A 
ATOM     24  S   UNL     1      44.747   4.186   8.827  0.00  0.00    +0.000 S 
ATOM     25  C   UNL     1      44.367   3.729  10.422  0.00  0.00    +0.000 A 
ATOM     26  N   UNL     1      43.399   2.821  10.709  0.00  0.00    +0.000 NA
ATOM     27  C   UNL     1      43.297   2.538  11.967  0.00  0.00    +0.000 A 
ATOM     28  N   UNL     1      44.113   3.022  12.960  0.00  0.00    +0.000 N 
ATOM     29  C   UNL     1      45.104   3.941  12.715  0.00  0.00    +0.000 A 
ATOM     30  O   UNL     1      45.898   4.295  13.580  0.00  0.00    +0.000 OA
ATOM     31  C   UNL     1      45.150   4.400  11.340  0.00  0.00    +0.000 A 
ATOM     32  H   UNL     1      44.040   2.683  13.907  0.00  0.00    +0.000 HD
ENDBRANCH  19  22
ENDBRANCH  17  18
ENDBRANCH   4  17
TORSDOF 7
ENDMDL
MODEL 6
REMARK VINA RESULT:    -7.162      2.853      8.865
REMARK INTER + INTRA:         -11.004
REMARK INTER:                  -9.903
REMARK INTRA:                  -1.100
REMARK UNBOUND:                -0.911
REMARK  Name = 
REMARK  8 active torsions:
REMARK  status: ('A' for Active; 'I' for Inactive)
REMARK    1  A    between atoms: C_1  and  C_2
REMARK    2  A    between atoms: C_6  and  C_7
REMARK    3  A    between atoms: C_7  and  O_8
REMARK    4  A    between atoms: O_8  and  C_9
REMARK    5  A    between atoms: C_9  and  C_10
REMARK    6  A    between atoms: C_13  and  C_14
REMARK    7  A    between atoms: C_14  and  N_15
REMARK    8  A    between atoms: C_16  and  C_18
REMARK                            x       y       z     vdW  Elec       q    Type
REMARK                         _______ _______ _______ _____ _____    ______ ____
ROOT
ATOM      1  C   UNL     1      49.148   8.090  15.928  0.00  0.00    +0.000 A 
ATOM      2  C   UNL     1      49.759   7.141  15.151  0.00  0.00    +0.000 A 
ATOM      3  N   UNL     1      49.396   6.865  13.883  0.00  0.00    +0.000 NA
ATOM      4  C   UNL     1      48.391   7.597  13.364  0.00  0.00    +0.000 A 
ATOM      5  N   UNL     1      47.692   8.517  14.056  0.00  0.00    +0.000 NA
ATOM      6  C   UNL     1      48.097   8.746  15.320  0.00  0.00    +0.000 A 
ENDROOT
BRANCH   1   7
ATOM      7  C   UNL     1      49.575   8.400  17.324  0.00  0.00    +0.000 C 
BRANCH   7   8
ATOM      8  O   UNL     1      50.114   7.220  17.909  0.00  0.00    +0.000 OA
BRANCH   8   9
ATOM      9  C   UNL     1      49.179   6.579  18.780  0.00  0.00    +0.000 C 
BRANCH   9  15
ATOM     10  C   UNL     1      50.274   2.099  17.158  0.00  0.00    +0.000 C 
ATOM     11  C   UNL     1      49.245   3.148  17.429  0.00  0.00    +0.000 A 
ATOM     12  C   UNL     1      47.900   2.927  17.156  0.00  0.00    +0.000 A 
ATOM     13  N   UNL     1      46.945   3.857  17.382  0.00  0.00    +0.000 NA
ATOM     14  C   UNL     1      47.387   5.022  17.909  0.00  0.00    +0.000 A 
ATOM     15  C   UNL     1      48.724   5.262  18.208  0.00  0.00    +0.000 A 
ATOM     16  N   UNL     1      49.677   4.323  17.954  0.00  0.00    +0.000 NA
ENDBRANCH   9  15
ENDBRANCH   8   9
ENDBRANCH   7   8
ENDBRANCH   1   7
BRANCH   4  17
ATOM     17  C   UNL     1      48.033   7.350  11.918  0.00  0.00    +0.000 C 
BRANCH  17  18
ATOM     18  N   UNL     1      46.982   6.375  11.728  0.00  0.00    +0.000 N 
ATOM     19  C   UNL     1      45.726   6.824  11.403  0.00  0.00    +0.000 C 
ATOM     20  O   UNL     1      45.433   8.016  11.434  0.00  0.00    +0.000 OA
ATOM     21  H   UNL     1      47.278   5.473  11.370  0.00  0.00    +0.000 HD
BRANCH  19  22
ATOM     22  C   UNL     1      44.725   5.798  11.123  0.00  0.00    +0.000 A 
ATOM     23  C   UNL     1      43.562   5.712  11.876  0.00  0.00    +0.000 A 
ATOM     24  S   UNL     1      42.853   4.158  11.776  0.00  0.00    +0.000 S 
ATOM     25  C   UNL     1      43.961   3.674  10.578  0.00  0.00    +0.000 A 
ATOM     26  N   UNL     1      44.021   2.400  10.113  0.00  0.00    +0.000 NA
ATOM     27  C   UNL     1      44.870   2.228   9.151  0.00  0.00    +0.000 A 
ATOM     28  N   UNL     1      45.614   3.220   8.561  0.00  0.00    +0.000 N 
ATOM     29  C   UNL     1      45.583   4.521   8.999  0.00  0.00    +0.000 A 
ATOM     30  O   UNL     1      46.168   5.424   8.409  0.00  0.00    +0.000 OA
ATOM     31  C   UNL     1      44.761   4.725  10.175  0.00  0.00    +0.000 A 
ATOM     32  H   UNL     1      46.183   3.032   7.751  0.00  0.00    +0.000 HD
ENDBRANCH  19  22
ENDBRANCH  17  18
ENDBRANCH   4  17
TORSDOF 7
ENDMDL
MODEL 7
REMARK VINA RESULT:    -6.922      5.141      9.784
REMARK INTER + INTRA:         -10.666
REMARK INTER:                  -9.951
REMARK INTRA:                  -0.715
REMARK UNBOUND:                -0.911
REMARK  Name = 
REMARK  8 active torsions:
REMARK  status: ('A' for Active; 'I' for Inactive)
REMARK    1  A    between atoms: C_1  and  C_2
REMARK    2  A    between atoms: C_6  and  C_7
REMARK    3  A    between atoms: C_7  and  O_8
REMARK    4  A    between atoms: O_8  and  C_9
REMARK    5  A    between atoms: C_9  and  C_10
REMARK    6  A    between atoms: C_13  and  C_14
REMARK    7  A    between atoms: C_14  and  N_15
REMARK    8  A    between atoms: C_16  and  C_18
REMARK                            x       y       z     vdW  Elec       q    Type
REMARK                         _______ _______ _______ _____ _____    ______ ____
ROOT
ATOM      1  C   UNL     1      51.353   3.904  17.653  0.00  0.00    +0.000 A 
ATOM      2  C   UNL     1      50.634   5.067  17.564  0.00  0.00    +0.000 A 
ATOM      3  N   UNL     1      49.327   5.117  17.236  0.00  0.00    +0.000 NA
ATOM      4  C   UNL     1      48.710   3.940  17.017  0.00  0.00    +0.000 A 
ATOM      5  N   UNL     1      49.334   2.745  17.029  0.00  0.00    +0.000 NA
ATOM      6  C   UNL     1      50.640   2.760  17.357  0.00  0.00    +0.000 A 
ENDROOT
BRANCH   1   7
ATOM      7  C   UNL     1      52.794   3.864  18.037  0.00  0.00    +0.000 C 
BRANCH   7   8
ATOM      8  O   UNL     1      53.027   2.693  18.812  0.00  0.00    +0.000 OA
BRANCH   8   9
ATOM      9  C   UNL     1      54.399   2.292  18.778  0.00  0.00    +0.000 C 
BRANCH   9  15
ATOM     10  C   UNL     1      54.605  -2.453  19.935  0.00  0.00    +0.000 C 
ATOM     11  C   UNL     1      54.641  -1.386  18.890  0.00  0.00    +0.000 A 
ATOM     12  C   UNL     1      54.799  -1.699  17.545  0.00  0.00    +0.000 A 
ATOM     13  N   UNL     1      54.843  -0.758  16.575  0.00  0.00    +0.000 NA
ATOM     14  C   UNL     1      54.707   0.519  17.002  0.00  0.00    +0.000 A 
ATOM     15  C   UNL     1      54.530   0.857  18.340  0.00  0.00    +0.000 A 
ATOM     16  N   UNL     1      54.510  -0.101  19.307  0.00  0.00    +0.000 NA
ENDBRANCH   9  15
ENDBRANCH   8   9
ENDBRANCH   7   8
ENDBRANCH   1   7
BRANCH   4  17
ATOM     17  C   UNL     1      47.227   3.980  16.730  0.00  0.00    +0.000 C 
BRANCH  17  18
ATOM     18  N   UNL     1      46.872   4.773  15.574  0.00  0.00    +0.000 N 
ATOM     19  C   UNL     1      46.853   4.162  14.345  0.00  0.00    +0.000 C 
ATOM     20  O   UNL     1      47.287   3.026  14.177  0.00  0.00    +0.000 OA
ATOM     21  H   UNL     1      46.219   5.531  15.745  0.00  0.00    +0.000 HD
BRANCH  19  22
ATOM     22  C   UNL     1      46.390   4.977  13.226  0.00  0.00    +0.000 A 
ATOM     23  C   UNL     1      47.174   6.005  12.719  0.00  0.00    +0.000 A 
ATOM     24  S   UNL     1      46.241   7.150  11.856  0.00  0.00    +0.000 S 
ATOM     25  C   UNL     1      44.848   6.179  11.972  0.00  0.00    +0.000 A 
ATOM     26  N   UNL     1      43.628   6.603  11.555  0.00  0.00    +0.000 NA
ATOM     27  C   UNL     1      42.697   5.708  11.649  0.00  0.00    +0.000 A 
ATOM     28  N   UNL     1      42.882   4.409  12.054  0.00  0.00    +0.000 N 
ATOM     29  C   UNL     1      44.099   3.938  12.483  0.00  0.00    +0.000 A 
ATOM     30  O   UNL     1      44.288   2.755  12.746  0.00  0.00    +0.000 OA
ATOM     31  C   UNL     1      45.133   4.953  12.539  0.00  0.00    +0.000 A 
ATOM     32  H   UNL     1      42.132   3.737  12.010  0.00  0.00    +0.000 HD
ENDBRANCH  19  22
ENDBRANCH  17  18
ENDBRANCH   4  17
TORSDOF 7
ENDMDL
MODEL 8
REMARK VINA RESULT:    -6.891      1.642      2.229
REMARK INTER + INTRA:         -10.622
REMARK INTER:                  -9.814
REMARK INTRA:                  -0.809
REMARK UNBOUND:                -0.911
REMARK  Name = 
REMARK  8 active torsions:
REMARK  status: ('A' for Active; 'I' for Inactive)
REMARK    1  A    between atoms: C_1  and  C_2
REMARK    2  A    between atoms: C_6  and  C_7
REMARK    3  A    between atoms: C_7  and  O_8
REMARK    4  A    between atoms: O_8  and  C_9
REMARK    5  A    between atoms: C_9  and  C_10
REMARK    6  A    between atoms: C_13  and  C_14
REMARK    7  A    between atoms: C_14  and  N_15
REMARK    8  A    between atoms: C_16  and  C_18
REMARK                            x       y       z     vdW  Elec       q    Type
REMARK                         _______ _______ _______ _____ _____    ______ ____
ROOT
ATOM      1  C   UNL     1      45.104   6.264  11.864  0.00  0.00    +0.000 A 
ATOM      2  C   UNL     1      46.080   5.552  12.510  0.00  0.00    +0.000 A 
ATOM      3  N   UNL     1      47.040   6.115  13.269  0.00  0.00    +0.000 NA
ATOM      4  C   UNL     1      47.000   7.455  13.407  0.00  0.00    +0.000 A 
ATOM      5  N   UNL     1      46.116   8.253  12.775  0.00  0.00    +0.000 NA
ATOM      6  C   UNL     1      45.184   7.632  12.026  0.00  0.00    +0.000 A 
ENDROOT
BRANCH   1   7
ATOM      7  C   UNL     1      44.034   5.624  11.044  0.00  0.00    +0.000 C 
BRANCH   7   8
ATOM      8  O   UNL     1      44.551   4.428  10.472  0.00  0.00    +0.000 OA
BRANCH   8   9
ATOM      9  C   UNL     1      44.318   4.364   9.063  0.00  0.00    +0.000 C 
BRANCH   9  15
ATOM     10  C   UNL     1      47.254   3.062   5.377  0.00  0.00    +0.000 C 
ATOM     11  C   UNL     1      46.584   2.713   6.667  0.00  0.00    +0.000 A 
ATOM     12  C   UNL     1      46.762   1.469   7.259  0.00  0.00    +0.000 A 
ATOM     13  N   UNL     1      46.165   1.118   8.420  0.00  0.00    +0.000 NA
ATOM     14  C   UNL     1      45.387   2.073   8.980  0.00  0.00    +0.000 A 
ATOM     15  C   UNL     1      45.206   3.332   8.417  0.00  0.00    +0.000 A 
ATOM     16  N   UNL     1      45.797   3.661   7.235  0.00  0.00    +0.000 NA
ENDBRANCH   9  15
ENDBRANCH   8   9
ENDBRANCH   7   8
ENDBRANCH   1   7
BRANCH   4  17
ATOM     17  C   UNL     1      48.022   8.086  14.322  0.00  0.00    +0.000 C 
BRANCH  17  18
ATOM     18  N   UNL     1      48.250   7.353  15.547  0.00  0.00    +0.000 N 
ATOM     19  C   UNL     1      49.510   6.865  15.791  0.00  0.00    +0.000 C 
ATOM     20  O   UNL     1      50.392   6.885  14.936  0.00  0.00    +0.000 OA
ATOM     21  H   UNL     1      47.681   7.633  16.339  0.00  0.00    +0.000 HD
BRANCH  19  22
ATOM     22  C   UNL     1      49.714   6.221  17.085  0.00  0.00    +0.000 A 
ATOM     23  C   UNL     1      50.605   5.165  17.224  0.00  0.00    +0.000 A 
ATOM     24  S   UNL     1      50.263   4.223  18.610  0.00  0.00    +0.000 S 
ATOM     25  C   UNL     1      49.081   5.330  19.134  0.00  0.00    +0.000 A 
ATOM     26  N   UNL     1      48.281   5.090  20.205  0.00  0.00    +0.000 NA
ATOM     27  C   UNL     1      47.493   6.071  20.505  0.00  0.00    +0.000 A 
ATOM     28  N   UNL     1      47.474   7.296  19.883  0.00  0.00    +0.000 N 
ATOM     29  C   UNL     1      48.266   7.581  18.798  0.00  0.00    +0.000 A 
ATOM     30  O   UNL     1      48.324   8.703  18.307  0.00  0.00    +0.000 OA
ATOM     31  C   UNL     1      49.052   6.455  18.334  0.00  0.00    +0.000 A 
ATOM     32  H   UNL     1      46.902   8.049  20.232  0.00  0.00    +0.000 HD
ENDBRANCH  19  22
ENDBRANCH  17  18
ENDBRANCH   4  17
TORSDOF 7
ENDMDL
MODEL 9
REMARK VINA RESULT:    -6.478      3.504      8.902
REMARK INTER + INTRA:         -10.040
REMARK INTER:                  -8.982
REMARK INTRA:                  -1.059
REMARK UNBOUND:                -0.911
REMARK  Name = 
REMARK  8 active torsions:
REMARK  status: ('A' for Active; 'I' for Inactive)
REMARK    1  A    between atoms: C_1  and  C_2
REMARK    2  A    between atoms: C_6  and  C_7
REMARK    3  A    between atoms: C_7  and  O_8
REMARK    4  A    between atoms: O_8  and  C_9
REMARK    5  A    between atoms: C_9  and  C_10
REMARK    6  A    between atoms: C_13  and  C_14
REMARK    7  A    between atoms: C_14  and  N_15
REMARK    8  A    between atoms: C_16  and  C_18
REMARK                            x       y       z     vdW  Elec       q    Type
REMARK                         _______ _______ _______ _____ _____    ______ ____
ROOT
ATOM      1  C   UNL     1      49.377   5.897  19.561  0.00  0.00    +0.000 A 
ATOM      2  C   UNL     1      49.937   4.990  18.698  0.00  0.00    +0.000 A 
ATOM      3  N   UNL     1      49.231   4.283  17.794  0.00  0.00    +0.000 NA
ATOM      4  C   UNL     1      47.906   4.519  17.736  0.00  0.00    +0.000 A 
ATOM      5  N   UNL     1      47.249   5.350  18.570  0.00  0.00    +0.000 NA
ATOM      6  C   UNL     1      48.007   6.025  19.456  0.00  0.00    +0.000 A 
ENDROOT
BRANCH   1   7
ATOM      7  C   UNL     1      50.175   6.688  20.542  0.00  0.00    +0.000 C 
BRANCH   7   8
ATOM      8  O   UNL     1      49.819   8.061  20.418  0.00  0.00    +0.000 OA
BRANCH   8   9
ATOM      9  C   UNL     1      50.615   8.734  19.441  0.00  0.00    +0.000 C 
BRANCH   9  15
ATOM     10  C   UNL     1      50.150   7.555  14.719  0.00  0.00    +0.000 C 
ATOM     11  C   UNL     1      49.658   8.323  15.903  0.00  0.00    +0.000 A 
ATOM     12  C   UNL     1      48.546   9.151  15.814  0.00  0.00    +0.000 A 
ATOM     13  N   UNL     1      48.079   9.866  16.863  0.00  0.00    +0.000 NA
ATOM     14  C   UNL     1      48.764   9.708  18.020  0.00  0.00    +0.000 A 
ATOM     15  C   UNL     1      49.869   8.871  18.139  0.00  0.00    +0.000 A 
ATOM     16  N   UNL     1      50.340   8.176  17.067  0.00  0.00    +0.000 NA
ENDBRANCH   9  15
ENDBRANCH   8   9
ENDBRANCH   7   8
ENDBRANCH   1   7
BRANCH   4  17
ATOM     17  C   UNL     1      47.120   3.791  16.671  0.00  0.00    +0.000 C 
BRANCH  17  18
ATOM     18  N   UNL     1      46.739   4.620  15.549  0.00  0.00    +0.000 N 
ATOM     19  C   UNL     1      46.823   4.088  14.287  0.00  0.00    +0.000 C 
ATOM     20  O   UNL     1      47.364   3.007  14.071  0.00  0.00    +0.000 OA
ATOM     21  H   UNL     1      46.014   5.305  15.735  0.00  0.00    +0.000 HD
BRANCH  19  22
ATOM     22  C   UNL     1      46.332   4.928  13.198  0.00  0.00    +0.000 A 
ATOM     23  C   UNL     1      47.074   6.008  12.739  0.00  0.00    +0.000 A 
ATOM     24  S   UNL     1      46.098   7.147  11.916  0.00  0.00    +0.000 S 
ATOM     25  C   UNL     1      44.746   6.114  11.983  0.00  0.00    +0.000 A 
ATOM     26  N   UNL     1      43.511   6.502  11.576  0.00  0.00    +0.000 NA
ATOM     27  C   UNL     1      42.620   5.565  11.627  0.00  0.00    +0.000 A 
ATOM     28  N   UNL     1      42.857   4.259  11.980  0.00  0.00    +0.000 N 
ATOM     29  C   UNL     1      44.091   3.824  12.398  0.00  0.00    +0.000 A 
ATOM     30  O   UNL     1      44.329   2.641  12.615  0.00  0.00    +0.000 OA
ATOM     31  C   UNL     1      45.081   4.878  12.502  0.00  0.00    +0.000 A 
ATOM     32  H   UNL     1      42.136   3.560  11.903  0.00  0.00    +0.000 HD
ENDBRANCH  19  22
ENDBRANCH  17  18
ENDBRANCH   4  17
TORSDOF 7
ENDMDL
