MODEL 1
REMARK VINA RESULT:    -8.278      0.000      0.000
REMARK INTER + INTRA:         -11.608
REMARK INTER:                 -10.698
REMARK INTRA:                  -0.911
REMARK UNBOUND:                -0.911
REMARK  Name = 
REMARK  5 active torsions:
REMARK  status: ('A' for Active; 'I' for Inactive)
REMARK    1  A    between atoms: C_2  and  C_19
REMARK    2  A    between atoms: N_3  and  C_4
REMARK    3  A    between atoms: C_4  and  C_5
REMARK    4  A    between atoms: C_8  and  C_9
REMARK    5  A    between atoms: C_9  and  C_10
REMARK                            x       y       z     vdW  Elec       q    Type
REMARK                         _______ _______ _______ _____ _____    ______ ____
ROOT
ATOM      1  C   UNL     1      46.426   7.568  12.841  0.00  0.00    +0.000 C 
ENDROOT
BRANCH   1   2
ATOM      2  C   UNL     1      45.866   6.409  12.071  0.00  0.00    +0.000 A 
ATOM      3  C   UNL     1      46.130   6.227  10.711  0.00  0.00    +0.000 A 
ATOM      4  C   UNL     1      45.584   5.133  10.040  0.00  0.00    +0.000 A 
ATOM      5  C   UNL     1      44.787   4.236  10.749  0.00  0.00    +0.000 A 
ATOM      6  N   UNL     1      44.542   4.378  12.074  0.00  0.00    +0.000 NA
ATOM      7  C   UNL     1      45.084   5.449  12.700  0.00  0.00    +0.000 A 
BRANCH   5   8
ATOM      8  C   UNL     1      44.124   3.066  10.053  0.00  0.00    +0.000 C 
BRANCH   8   9
ATOM      9  C   UNL     1      45.098   2.095   9.437  0.00  0.00    +0.000 C 
ATOM     10  C   UNL     1      45.592   2.116   8.185  0.00  0.00    +0.000 C 
ATOM     11  C   UNL     1      46.603   1.095   7.698  0.00  0.00    +0.000 C 
ATOM     12  C   UNL     1      47.863   1.806   7.176  0.00  0.00    +0.000 C 
ATOM     13  N   UNL     1      47.570   2.824   6.149  0.00  0.00    +0.000 NA
ATOM     14  C   UNL     1      46.611   3.811   6.673  0.00  0.00    +0.000 C 
ATOM     15  C   UNL     1      45.298   3.163   7.135  0.00  0.00    +0.000 C 
ATOM     16  H   UNL     1      47.140   2.357   5.350  0.00  0.00    +0.000 HD
ENDBRANCH   8   9
ENDBRANCH   5   8
ENDBRANCH   1   2
BRANCH   1  19
ATOM     17  O   UNL     1      48.866   6.216  13.212  0.00  0.00    +0.000 OA
ATOM     18  C   UNL     1      48.212   6.547  14.198  0.00  0.00    +0.000 C 
ATOM     19  N   UNL     1      46.982   7.145  14.098  0.00  0.00    +0.000 N 
ATOM     20  H   UNL     1      46.583   7.582  14.922  0.00  0.00    +0.000 HD
BRANCH  18  21
ATOM     21  C   UNL     1      48.680   6.275  15.558  0.00  0.00    +0.000 A 
ATOM     22  C   UNL     1      49.413   7.226  16.255  0.00  0.00    +0.000 A 
ATOM     23  S   UNL     1      49.876   6.716  17.816  0.00  0.00    +0.000 S 
ATOM     24  C   UNL     1      49.079   5.223  17.628  0.00  0.00    +0.000 A 
ATOM     25  N   UNL     1      49.067   4.300  18.625  0.00  0.00    +0.000 NA
ATOM     26  C   UNL     1      48.392   3.229  18.350  0.00  0.00    +0.000 A 
ATOM     27  N   UNL     1      47.734   2.997  17.173  0.00  0.00    +0.000 N 
ATOM     28  C   UNL     1      47.781   3.872  16.116  0.00  0.00    +0.000 A 
ATOM     29  O   UNL     1      47.295   3.567  15.030  0.00  0.00    +0.000 OA
ATOM     30  C   UNL     1      48.487   5.109  16.379  0.00  0.00    +0.000 A 
ATOM     31  H   UNL     1      47.253   2.129  17.006  0.00  0.00    +0.000 HD
ENDBRANCH  18  21
ENDBRANCH   1  19
TORSDOF 5
ENDMDL
MODEL 2
REMARK VINA RESULT:    -7.813      1.866      2.284
REMARK INTER + INTRA:         -11.008
REMARK INTER:                 -10.186
REMARK INTRA:                  -0.822
REMARK UNBOUND:                -0.911
REMARK  Name = 
REMARK  5 active torsions:
REMARK  status: ('A' for Active; 'I' for Inactive)
REMARK    1  A    between atoms: C_2  and  C_19
REMARK    2  A    between atoms: N_3  and  C_4
REMARK    3  A    between atoms: C_4  and  C_5
REMARK    4  A    between atoms: C_8  and  C_9
REMARK    5  A    between atoms: C_9  and  C_10
REMARK                            x       y       z     vdW  Elec       q    Type
REMARK                         _______ _______ _______ _____ _____    ______ ____
ROOT
ATOM      1  C   UNL     1      48.439   6.770  13.949  0.00  0.00    +0.000 C 
ENDROOT
BRANCH   1   2
ATOM      2  C   UNL     1      47.302   6.098  13.238  0.00  0.00    +0.000 A 
ATOM      3  C   UNL     1      46.857   6.523  11.985  0.00  0.00    +0.000 A 
ATOM      4  C   UNL     1      45.793   5.866  11.367  0.00  0.00    +0.000 A 
ATOM      5  C   UNL     1      45.199   4.786  12.017  0.00  0.00    +0.000 A 
ATOM      6  N   UNL     1      45.633   4.339  13.220  0.00  0.00    +0.000 NA
ATOM      7  C   UNL     1      46.667   4.996  13.797  0.00  0.00    +0.000 A 
BRANCH   5   8
ATOM      8  C   UNL     1      44.005   4.076  11.415  0.00  0.00    +0.000 C 
BRANCH   8   9
ATOM      9  C   UNL     1      44.366   2.841  10.629  0.00  0.00    +0.000 C 
ATOM     10  C   UNL     1      44.671   2.765   9.320  0.00  0.00    +0.000 C 
ATOM     11  C   UNL     1      45.056   1.457   8.655  0.00  0.00    +0.000 C 
ATOM     12  C   UNL     1      46.433   1.592   7.983  0.00  0.00    +0.000 C 
ATOM     13  N   UNL     1      46.512   2.729   7.046  0.00  0.00    +0.000 NA
ATOM     14  C   UNL     1      46.160   3.981   7.739  0.00  0.00    +0.000 C 
ATOM     15  C   UNL     1      44.758   3.931   8.363  0.00  0.00    +0.000 C 
ATOM     16  H   UNL     1      45.830   2.577   6.302  0.00  0.00    +0.000 HD
ENDBRANCH   8   9
ENDBRANCH   5   8
ENDBRANCH   1   2
BRANCH   1  19
ATOM     17  O   UNL     1      50.263   6.117  15.990  0.00  0.00    +0.000 OA
ATOM     18  C   UNL     1      49.166   6.577  16.296  0.00  0.00    +0.000 C 
ATOM     19  N   UNL     1      48.198   6.853  15.365  0.00  0.00    +0.000 N 
ATOM     20  H   UNL     1      47.402   7.418  15.641  0.00  0.00    +0.000 HD
BRANCH  18  21
ATOM     21  C   UNL     1      48.793   6.815  17.692  0.00  0.00    +0.000 A 
ATOM     22  C   UNL     1      48.428   8.083  18.118  0.00  0.00    +0.000 A 
ATOM     23  S   UNL     1      48.042   8.158  19.779  0.00  0.00    +0.000 S 
ATOM     24  C   UNL     1      48.313   6.488  19.975  0.00  0.00    +0.000 A 
ATOM     25  N   UNL     1      48.138   5.882  21.179  0.00  0.00    +0.000 NA
ATOM     26  C   UNL     1      48.347   4.604  21.166  0.00  0.00    +0.000 A 
ATOM     27  N   UNL     1      48.717   3.880  20.065  0.00  0.00    +0.000 N 
ATOM     28  C   UNL     1      48.973   4.465  18.850  0.00  0.00    +0.000 A 
ATOM     29  O   UNL     1      49.437   3.804  17.924  0.00  0.00    +0.000 OA
ATOM     30  C   UNL     1      48.715   5.889  18.790  0.00  0.00    +0.000 A 
ATOM     31  H   UNL     1      48.897   2.892  20.127  0.00  0.00    +0.000 HD
ENDBRANCH  18  21
ENDBRANCH   1  19
TORSDOF 5
ENDMDL
MODEL 3
REMARK VINA RESULT:    -7.713      1.960      2.568
REMARK INTER + INTRA:         -10.879
REMARK INTER:                 -10.030
REMARK INTRA:                  -0.848
REMARK UNBOUND:                -0.911
REMARK  Name = 
REMARK  5 active torsions:
REMARK  status: ('A' for Active; 'I' for Inactive)
REMARK    1  A    between atoms: C_2  and  C_19
REMARK    2  A    between atoms: N_3  and  C_4
REMARK    3  A    between atoms: C_4  and  C_5
REMARK    4  A    between atoms: C_8  and  C_9
REMARK    5  A    between atoms: C_9  and  C_10
REMARK                            x       y       z     vdW  Elec       q    Type
REMARK                         _______ _______ _______ _____ _____    ______ ____
ROOT
ATOM      1  C   UNL     1      47.229   6.501  13.450  0.00  0.00    +0.000 C 
ENDROOT
BRANCH   1   2
ATOM      2  C   UNL     1      46.431   5.539  12.620  0.00  0.00    +0.000 A 
ATOM      3  C   UNL     1      46.148   4.243  13.057  0.00  0.00    +0.000 A 
ATOM      4  C   UNL     1      45.404   3.386  12.247  0.00  0.00    +0.000 A 
ATOM      5  C   UNL     1      44.950   3.848  11.014  0.00  0.00    +0.000 A 
ATOM      6  N   UNL     1      45.188   5.111  10.583  0.00  0.00    +0.000 NA
ATOM      7  C   UNL     1      45.913   5.922  11.389  0.00  0.00    +0.000 A 
BRANCH   5   8
ATOM      8  C   UNL     1      44.188   2.939  10.073  0.00  0.00    +0.000 C 
BRANCH   8   9
ATOM      9  C   UNL     1      45.064   1.967   9.326  0.00  0.00    +0.000 C 
ATOM     10  C   UNL     1      45.643   2.146   8.123  0.00  0.00    +0.000 C 
ATOM     11  C   UNL     1      46.539   1.096   7.494  0.00  0.00    +0.000 C 
ATOM     12  C   UNL     1      47.916   1.702   7.172  0.00  0.00    +0.000 C 
ATOM     13  N   UNL     1      47.835   2.922   6.348  0.00  0.00    +0.000 NA
ATOM     14  C   UNL     1      46.981   3.924   7.008  0.00  0.00    +0.000 C 
ATOM     15  C   UNL     1      45.565   3.398   7.281  0.00  0.00    +0.000 C 
ATOM     16  H   UNL     1      47.403   2.676   5.456  0.00  0.00    +0.000 HD
ENDBRANCH   8   9
ENDBRANCH   5   8
ENDBRANCH   1   2
BRANCH   1  19
ATOM     17  O   UNL     1      49.566   6.730  15.001  0.00  0.00    +0.000 OA
ATOM     18  C   UNL     1      48.566   6.224  15.502  0.00  0.00    +0.000 C 
ATOM     19  N   UNL     1      47.412   6.013  14.790  0.00  0.00    +0.000 N 
ATOM     20  H   UNL     1      46.561   5.790  15.295  0.00  0.00    +0.000 HD
BRANCH  18  21
ATOM     21  C   UNL     1      48.552   5.758  16.890  0.00  0.00    +0.000 A 
ATOM     22  C   UNL     1      48.705   4.410  17.182  0.00  0.00    +0.000 A 
ATOM     23  S   UNL     1      48.648   4.066  18.853  0.00  0.00    +0.000 S 
ATOM     24  C   UNL     1      48.455   5.713  19.243  0.00  0.00    +0.000 A 
ATOM     25  N   UNL     1      48.359   6.124  20.535  0.00  0.00    +0.000 NA
ATOM     26  C   UNL     1      48.252   7.407  20.677  0.00  0.00    +0.000 A 
ATOM     27  N   UNL     1      48.228   8.312  19.651  0.00  0.00    +0.000 N 
ATOM     28  C   UNL     1      48.250   7.931  18.332  0.00  0.00    +0.000 A 
ATOM     29  O   UNL     1      48.086   8.760  17.439  0.00  0.00    +0.000 OA
ATOM     30  C   UNL     1      48.412   6.509  18.109  0.00  0.00    +0.000 A 
ATOM     31  H   UNL     1      48.109   9.296  19.825  0.00  0.00    +0.000 HD
ENDBRANCH  18  21
ENDBRANCH   1  19
TORSDOF 5
ENDMDL
MODEL 4
REMARK VINA RESULT:    -7.648      2.588      3.276
REMARK INTER + INTRA:         -10.794
REMARK INTER:                  -9.783
REMARK INTRA:                  -1.011
REMARK UNBOUND:                -0.911
REMARK  Name = 
REMARK  5 active torsions:
REMARK  status: ('A' for Active; 'I' for Inactive)
REMARK    1  A    between atoms: C_2  and  C_19
REMARK    2  A    between atoms: N_3  and  C_4
REMARK    3  A    between atoms: C_4  and  C_5
REMARK    4  A    between atoms: C_8  and  C_9
REMARK    5  A    between atoms: C_9  and  C_10
REMARK                            x       y       z     vdW  Elec       q    Type
REMARK                         _______ _______ _______ _____ _____    ______ ____
ROOT
ATOM      1  C   UNL     1      48.375   6.580  14.322  0.00  0.00    +0.000 C 
ENDROOT
BRANCH   1   2
ATOM      2  C   UNL     1      47.267   5.964  13.521  0.00  0.00    +0.000 A 
ATOM      3  C   UNL     1      46.898   6.454  12.267  0.00  0.00    +0.000 A 
ATOM      4  C   UNL     1      45.859   5.847  11.563  0.00  0.00    +0.000 A 
ATOM      5  C   UNL     1      45.211   4.751  12.129  0.00  0.00    +0.000 A 
ATOM      6  N   UNL     1      45.571   4.241  13.332  0.00  0.00    +0.000 NA
ATOM      7  C   UNL     1      46.583   4.850  13.994  0.00  0.00    +0.000 A 
BRANCH   5   8
ATOM      8  C   UNL     1      44.040   4.092  11.432  0.00  0.00    +0.000 C 
BRANCH   8   9
ATOM      9  C   UNL     1      44.414   2.856  10.654  0.00  0.00    +0.000 C 
ATOM     10  C   UNL     1      44.706   2.773   9.342  0.00  0.00    +0.000 C 
ATOM     11  C   UNL     1      45.106   1.465   8.685  0.00  0.00    +0.000 C 
ATOM     12  C   UNL     1      46.472   1.618   7.995  0.00  0.00    +0.000 C 
ATOM     13  N   UNL     1      46.520   2.747   7.047  0.00  0.00    +0.000 NA
ATOM     14  C   UNL     1      46.154   3.999   7.732  0.00  0.00    +0.000 C 
ATOM     15  C   UNL     1      44.761   3.931   8.373  0.00  0.00    +0.000 C 
ATOM     16  H   UNL     1      45.833   2.575   6.312  0.00  0.00    +0.000 HD
ENDBRANCH   8   9
ENDBRANCH   5   8
ENDBRANCH   1   2
BRANCH   1  19
ATOM     17  O   UNL     1      50.050   5.598  16.359  0.00  0.00    +0.000 OA
ATOM     18  C   UNL     1      48.982   6.120  16.667  0.00  0.00    +0.000 C 
ATOM     19  N   UNL     1      48.080   6.558  15.730  0.00  0.00    +0.000 N 
ATOM     20  H   UNL     1      47.322   7.162  16.029  0.00  0.00    +0.000 HD
BRANCH  18  21
ATOM     21  C   UNL     1      48.570   6.263  18.064  0.00  0.00    +0.000 A 
ATOM     22  C   UNL     1      48.651   5.188  18.937  0.00  0.00    +0.000 A 
ATOM     23  S   UNL     1      48.112   5.552  20.515  0.00  0.00    +0.000 S 
ATOM     24  C   UNL     1      47.789   7.169  20.093  0.00  0.00    +0.000 A 
ATOM     25  N   UNL     1      47.313   8.054  21.008  0.00  0.00    +0.000 NA
ATOM     26  C   UNL     1      47.149   9.255  20.551  0.00  0.00    +0.000 A 
ATOM     27  N   UNL     1      47.413   9.649  19.268  0.00  0.00    +0.000 N 
ATOM     28  C   UNL     1      47.826   8.771  18.297  0.00  0.00    +0.000 A 
ATOM     29  O   UNL     1      47.919   9.132  17.126  0.00  0.00    +0.000 OA
ATOM     30  C   UNL     1      48.068   7.419  18.758  0.00  0.00    +0.000 A 
ATOM     31  H   UNL     1      47.234  10.591  18.964  0.00  0.00    +0.000 HD
ENDBRANCH  18  21
ENDBRANCH   1  19
TORSDOF 5
ENDMDL
MODEL 5
REMARK VINA RESULT:    -7.264      1.938      2.578
REMARK INTER + INTRA:         -10.297
REMARK INTER:                  -9.476
REMARK INTRA:                  -0.821
REMARK UNBOUND:                -0.911
REMARK  Name = 
REMARK  5 active torsions:
REMARK  status: ('A' for Active; 'I' for Inactive)
REMARK    1  A    between atoms: C_2  and  C_19
REMARK    2  A    between atoms: N_3  and  C_4
REMARK    3  A    between atoms: C_4  and  C_5
REMARK    4  A    between atoms: C_8  and  C_9
REMARK    5  A    between atoms: C_9  and  C_10
REMARK                            x       y       z     vdW  Elec       q    Type
REMARK                         _______ _______ _______ _____ _____    ______ ____
ROOT
ATOM      1  C   UNL     1      47.655   6.791  13.456  0.00  0.00    +0.000 C 
ENDROOT
BRANCH   1   2
ATOM      2  C   UNL     1      46.748   5.895  12.666  0.00  0.00    +0.000 A 
ATOM      3  C   UNL     1      46.254   4.697  13.187  0.00  0.00    +0.000 A 
ATOM      4  C   UNL     1      45.415   3.897  12.410  0.00  0.00    +0.000 A 
ATOM      5  C   UNL     1      45.082   4.319  11.124  0.00  0.00    +0.000 A 
ATOM      6  N   UNL     1      45.528   5.491  10.610  0.00  0.00    +0.000 NA
ATOM      7  C   UNL     1      46.340   6.247  11.385  0.00  0.00    +0.000 A 
BRANCH   5   8
ATOM      8  C   UNL     1      44.223   3.460  10.221  0.00  0.00    +0.000 C 
BRANCH   8   9
ATOM      9  C   UNL     1      44.972   2.328   9.567  0.00  0.00    +0.000 C 
ATOM     10  C   UNL     1      45.507   2.308   8.331  0.00  0.00    +0.000 C 
ATOM     11  C   UNL     1      46.276   1.112   7.803  0.00  0.00    +0.000 C 
ATOM     12  C   UNL     1      47.684   1.543   7.360  0.00  0.00    +0.000 C 
ATOM     13  N   UNL     1      47.673   2.659   6.396  0.00  0.00    +0.000 NA
ATOM     14  C   UNL     1      46.945   3.808   6.960  0.00  0.00    +0.000 C 
ATOM     15  C   UNL     1      45.501   3.454   7.346  0.00  0.00    +0.000 C 
ATOM     16  H   UNL     1      47.179   2.351   5.558  0.00  0.00    +0.000 HD
ENDBRANCH   8   9
ENDBRANCH   5   8
ENDBRANCH   1   2
BRANCH   1  19
ATOM     17  O   UNL     1      48.740   7.955  15.777  0.00  0.00    +0.000 OA
ATOM     18  C   UNL     1      48.705   6.731  15.685  0.00  0.00    +0.000 C 
ATOM     19  N   UNL     1      48.257   6.090  14.558  0.00  0.00    +0.000 N 
ATOM     20  H   UNL     1      48.054   5.097  14.609  0.00  0.00    +0.000 HD
BRANCH  18  21
ATOM     21  C   UNL     1      49.192   5.864  16.760  0.00  0.00    +0.000 A 
ATOM     22  C   UNL     1      48.301   5.146  17.544  0.00  0.00    +0.000 A 
ATOM     23  S   UNL     1      49.062   4.206  18.749  0.00  0.00    +0.000 S 
ATOM     24  C   UNL     1      50.609   4.698  18.236  0.00  0.00    +0.000 A 
ATOM     25  N   UNL     1      51.733   4.236  18.845  0.00  0.00    +0.000 NA
ATOM     26  C   UNL     1      52.837   4.669  18.323  0.00  0.00    +0.000 A 
ATOM     27  N   UNL     1      52.918   5.523  17.256  0.00  0.00    +0.000 N 
ATOM     28  C   UNL     1      51.808   6.068  16.661  0.00  0.00    +0.000 A 
ATOM     29  O   UNL     1      51.923   6.935  15.798  0.00  0.00    +0.000 OA
ATOM     30  C   UNL     1      50.541   5.587  17.173  0.00  0.00    +0.000 A 
ATOM     31  H   UNL     1      53.807   5.850  16.917  0.00  0.00    +0.000 HD
ENDBRANCH  18  21
ENDBRANCH   1  19
TORSDOF 5
ENDMDL
MODEL 6
REMARK VINA RESULT:    -7.232      3.006      5.059
REMARK INTER + INTRA:         -10.256
REMARK INTER:                  -9.688
REMARK INTRA:                  -0.568
REMARK UNBOUND:                -0.911
REMARK  Name = 
REMARK  5 active torsions:
REMARK  status: ('A' for Active; 'I' for Inactive)
REMARK    1  A    between atoms: C_2  and  C_19
REMARK    2  A    between atoms: N_3  and  C_4
REMARK    3  A    between atoms: C_4  and  C_5
REMARK    4  A    between atoms: C_8  and  C_9
REMARK    5  A    between atoms: C_9  and  C_10
REMARK                            x       y       z     vdW  Elec       q    Type
REMARK                         _______ _______ _______ _____ _____    ______ ____
ROOT
ATOM      1  C   UNL     1      47.494   6.215  13.966  0.00  0.00    +0.000 C 
ENDROOT
BRANCH   1   2
ATOM      2  C   UNL     1      46.646   5.424  13.015  0.00  0.00    +0.000 A 
ATOM      3  C   UNL     1      46.133   5.982  11.841  0.00  0.00    +0.000 A 
ATOM      4  C   UNL     1      45.347   5.204  10.991  0.00  0.00    +0.000 A 
ATOM      5  C   UNL     1      45.096   3.877  11.331  0.00  0.00    +0.000 A 
ATOM      6  N   UNL     1      45.607   3.308  12.450  0.00  0.00    +0.000 NA
ATOM      7  C   UNL     1      46.366   4.085  13.257  0.00  0.00    +0.000 A 
BRANCH   5   8
ATOM      8  C   UNL     1      44.202   3.008  10.472  0.00  0.00    +0.000 C 
BRANCH   8   9
ATOM      9  C   UNL     1      44.955   2.024   9.614  0.00  0.00    +0.000 C 
ATOM     10  C   UNL     1      45.465   2.233   8.385  0.00  0.00    +0.000 C 
ATOM     11  C   UNL     1      46.240   1.163   7.640  0.00  0.00    +0.000 C 
ATOM     12  C   UNL     1      47.633   1.690   7.257  0.00  0.00    +0.000 C 
ATOM     13  N   UNL     1      47.587   2.960   6.507  0.00  0.00    +0.000 NA
ATOM     14  C   UNL     1      46.853   3.977   7.278  0.00  0.00    +0.000 C 
ATOM     15  C   UNL     1      45.423   3.535   7.620  0.00  0.00    +0.000 C 
ATOM     16  H   UNL     1      47.081   2.796   5.636  0.00  0.00    +0.000 HD
ENDBRANCH   8   9
ENDBRANCH   5   8
ENDBRANCH   1   2
BRANCH   1  19
ATOM     17  O   UNL     1      49.278   7.300  12.079  0.00  0.00    +0.000 OA
ATOM     18  C   UNL     1      48.437   8.032  12.593  0.00  0.00    +0.000 C 
ATOM     19  N   UNL     1      47.580   7.596  13.571  0.00  0.00    +0.000 N 
ATOM     20  H   UNL     1      46.779   8.170  13.809  0.00  0.00    +0.000 HD
BRANCH  18  21
ATOM     21  C   UNL     1      48.325   9.447  12.233  0.00  0.00    +0.000 A 
ATOM     22  C   UNL     1      49.457  10.188  11.928  0.00  0.00    +0.000 A 
ATOM     23  S   UNL     1      49.120  11.818  11.548  0.00  0.00    +0.000 S 
ATOM     24  C   UNL     1      47.446  11.576  11.740  0.00  0.00    +0.000 A 
ATOM     25  N   UNL     1      46.560  12.587  11.538  0.00  0.00    +0.000 NA
ATOM     26  C   UNL     1      45.320  12.244  11.686  0.00  0.00    +0.000 A 
ATOM     27  N   UNL     1      44.886  10.990  12.020  0.00  0.00    +0.000 N 
ATOM     28  C   UNL     1      45.751   9.961  12.302  0.00  0.00    +0.000 A 
ATOM     29  O   UNL     1      45.329   8.891  12.733  0.00  0.00    +0.000 OA
ATOM     30  C   UNL     1      47.153  10.272  12.112  0.00  0.00    +0.000 A 
ATOM     31  H   UNL     1      43.909  10.794  12.153  0.00  0.00    +0.000 HD
ENDBRANCH  18  21
ENDBRANCH   1  19
TORSDOF 5
ENDMDL
MODEL 7
REMARK VINA RESULT:    -7.142      2.791      8.426
REMARK INTER + INTRA:         -10.141
REMARK INTER:                  -8.989
REMARK INTRA:                  -1.151
REMARK UNBOUND:                -0.911
REMARK  Name = 
REMARK  5 active torsions:
REMARK  status: ('A' for Active; 'I' for Inactive)
REMARK    1  A    between atoms: C_2  and  C_19
REMARK    2  A    between atoms: N_3  and  C_4
REMARK    3  A    between atoms: C_4  and  C_5
REMARK    4  A    between atoms: C_8  and  C_9
REMARK    5  A    between atoms: C_9  and  C_10
REMARK                            x       y       z     vdW  Elec       q    Type
REMARK                         _______ _______ _______ _____ _____    ______ ____
ROOT
ATOM      1  C   UNL     1      47.426   7.764  11.981  0.00  0.00    +0.000 C 
ENDROOT
BRANCH   1   2
ATOM      2  C   UNL     1      48.067   7.826  13.335  0.00  0.00    +0.000 A 
ATOM      3  C   UNL     1      47.718   8.799  14.275  0.00  0.00    +0.000 A 
ATOM      4  C   UNL     1      48.346   8.815  15.520  0.00  0.00    +0.000 A 
ATOM      5  C   UNL     1      49.309   7.848  15.803  0.00  0.00    +0.000 A 
ATOM      6  N   UNL     1      49.641   6.878  14.917  0.00  0.00    +0.000 NA
ATOM      7  C   UNL     1      49.016   6.886  13.716  0.00  0.00    +0.000 A 
BRANCH   5   8
ATOM      8  C   UNL     1      50.059   7.858  17.118  0.00  0.00    +0.000 C 
BRANCH   8   9
ATOM      9  C   UNL     1      50.348   6.482  17.662  0.00  0.00    +0.000 C 
ATOM     10  C   UNL     1      49.480   5.635  18.247  0.00  0.00    +0.000 C 
ATOM     11  C   UNL     1      49.893   4.255  18.720  0.00  0.00    +0.000 C 
ATOM     12  C   UNL     1      49.007   3.184  18.061  0.00  0.00    +0.000 C 
ATOM     13  N   UNL     1      47.565   3.424  18.258  0.00  0.00    +0.000 NA
ATOM     14  C   UNL     1      47.202   4.761  17.758  0.00  0.00    +0.000 C 
ATOM     15  C   UNL     1      48.002   5.879  18.442  0.00  0.00    +0.000 C 
ATOM     16  H   UNL     1      47.371   3.396  19.259  0.00  0.00    +0.000 HD
ENDBRANCH   8   9
ENDBRANCH   5   8
ENDBRANCH   1   2
BRANCH   1  19
ATOM     17  O   UNL     1      44.675   7.306  12.360  0.00  0.00    +0.000 OA
ATOM     18  C   UNL     1      45.376   6.395  11.928  0.00  0.00    +0.000 C 
ATOM     19  N   UNL     1      46.735   6.517  11.783  0.00  0.00    +0.000 N 
ATOM     20  H   UNL     1      47.232   5.823  11.235  0.00  0.00    +0.000 HD
BRANCH  18  21
ATOM     21  C   UNL     1      44.815   5.087  11.585  0.00  0.00    +0.000 A 
ATOM     22  C   UNL     1      44.068   4.375  12.514  0.00  0.00    +0.000 A 
ATOM     23  S   UNL     1      43.514   2.871  11.930  0.00  0.00    +0.000 S 
ATOM     24  C   UNL     1      44.220   3.138  10.404  0.00  0.00    +0.000 A 
ATOM     25  N   UNL     1      44.103   2.225   9.403  0.00  0.00    +0.000 NA
ATOM     26  C   UNL     1      44.661   2.582   8.290  0.00  0.00    +0.000 A 
ATOM     27  N   UNL     1      45.327   3.761   8.089  0.00  0.00    +0.000 N 
ATOM     28  C   UNL     1      45.529   4.675   9.092  0.00  0.00    +0.000 A 
ATOM     29  O   UNL     1      46.249   5.654   8.911  0.00  0.00    +0.000 OA
ATOM     30  C   UNL     1      44.890   4.351  10.352  0.00  0.00    +0.000 A 
ATOM     31  H   UNL     1      45.769   3.966   7.208  0.00  0.00    +0.000 HD
ENDBRANCH  18  21
ENDBRANCH   1  19
TORSDOF 5
ENDMDL
MODEL 8
REMARK VINA RESULT:    -7.078      3.853      9.943
REMARK INTER + INTRA:         -10.058
REMARK INTER:                  -9.249
REMARK INTRA:                  -0.809
REMARK UNBOUND:                -0.911
REMARK  Name = 
REMARK  5 active torsions:
REMARK  status: ('A' for Active; 'I' for Inactive)
REMARK    1  A    between atoms: C_2  and  C_19
REMARK    2  A    between atoms: N_3  and  C_4
REMARK    3  A    between atoms: C_4  and  C_5
REMARK    4  A    between atoms: C_8  and  C_9
REMARK    5  A    between atoms: C_9  and  C_10
REMARK                            x       y       z     vdW  Elec       q    Type
REMARK                         _______ _______ _______ _____ _____    ______ ____
ROOT
ATOM      1  C   UNL     1      47.577   3.737  16.589  0.00  0.00    +0.000 C 
ENDROOT
BRANCH   1   2
ATOM      2  C   UNL     1      47.737   4.388  17.932  0.00  0.00    +0.000 A 
ATOM      3  C   UNL     1      46.912   5.433  18.351  0.00  0.00    +0.000 A 
ATOM      4  C   UNL     1      47.103   6.006  19.608  0.00  0.00    +0.000 A 
ATOM      5  C   UNL     1      48.118   5.513  20.426  0.00  0.00    +0.000 A 
ATOM      6  N   UNL     1      48.911   4.481  20.051  0.00  0.00    +0.000 NA
ATOM      7  C   UNL     1      48.704   3.944  18.826  0.00  0.00    +0.000 A 
BRANCH   5   8
ATOM      8  C   UNL     1      48.403   6.138  21.775  0.00  0.00    +0.000 C 
BRANCH   8   9
ATOM      9  C   UNL     1      47.475   7.272  22.127  0.00  0.00    +0.000 C 
ATOM     10  C   UNL     1      47.614   8.573  21.805  0.00  0.00    +0.000 C 
ATOM     11  C   UNL     1      46.582   9.615  22.190  0.00  0.00    +0.000 C 
ATOM     12  C   UNL     1      46.080  10.351  20.936  0.00  0.00    +0.000 C 
ATOM     13  N   UNL     1      47.171  10.928  20.128  0.00  0.00    +0.000 NA
ATOM     14  C   UNL     1      48.132   9.879  19.751  0.00  0.00    +0.000 C 
ATOM     15  C   UNL     1      48.728   9.163  20.971  0.00  0.00    +0.000 C 
ATOM     16  H   UNL     1      47.661  11.617  20.701  0.00  0.00    +0.000 HD
ENDBRANCH   8   9
ENDBRANCH   5   8
ENDBRANCH   1   2
BRANCH   1  19
ATOM     17  O   UNL     1      47.160   3.216  13.855  0.00  0.00    +0.000 OA
ATOM     18  C   UNL     1      46.828   4.307  14.311  0.00  0.00    +0.000 C 
ATOM     19  N   UNL     1      47.063   4.662  15.615  0.00  0.00    +0.000 N 
ATOM     20  H   UNL     1      46.590   5.477  15.992  0.00  0.00    +0.000 HD
BRANCH  18  21
ATOM     21  C   UNL     1      46.202   5.333  13.474  0.00  0.00    +0.000 A 
ATOM     22  C   UNL     1      46.870   6.515  13.191  0.00  0.00    +0.000 A 
ATOM     23  S   UNL     1      45.970   7.586  12.213  0.00  0.00    +0.000 S 
ATOM     24  C   UNL     1      44.674   6.488  12.105  0.00  0.00    +0.000 A 
ATOM     25  N   UNL     1      43.561   6.781  11.381  0.00  0.00    +0.000 NA
ATOM     26  C   UNL     1      42.676   5.836  11.361  0.00  0.00    +0.000 A 
ATOM     27  N   UNL     1      42.799   4.632  12.001  0.00  0.00    +0.000 N 
ATOM     28  C   UNL     1      43.873   4.327  12.799  0.00  0.00    +0.000 A 
ATOM     29  O   UNL     1      43.883   3.295  13.466  0.00  0.00    +0.000 OA
ATOM     30  C   UNL     1      44.918   5.329  12.826  0.00  0.00    +0.000 A 
ATOM     31  H   UNL     1      42.059   3.950  11.975  0.00  0.00    +0.000 HD
ENDBRANCH  18  21
ENDBRANCH   1  19
TORSDOF 5
ENDMDL
MODEL 9
REMARK VINA RESULT:    -7.024      3.201      7.844
REMARK INTER + INTRA:          -9.988
REMARK INTER:                  -9.022
REMARK INTRA:                  -0.966
REMARK UNBOUND:                -0.911
REMARK  Name = 
REMARK  5 active torsions:
REMARK  status: ('A' for Active; 'I' for Inactive)
REMARK    1  A    between atoms: C_2  and  C_19
REMARK    2  A    between atoms: N_3  and  C_4
REMARK    3  A    between atoms: C_4  and  C_5
REMARK    4  A    between atoms: C_8  and  C_9
REMARK    5  A    between atoms: C_9  and  C_10
REMARK                            x       y       z     vdW  Elec       q    Type
REMARK                         _______ _______ _______ _____ _____    ______ ____
ROOT
ATOM      1  C   UNL     1      47.924   8.443  12.227  0.00  0.00    +0.000 C 
ENDROOT
BRANCH   1   2
ATOM      2  C   UNL     1      48.414   8.178  13.619  0.00  0.00    +0.000 A 
ATOM      3  C   UNL     1      48.089   9.013  14.690  0.00  0.00    +0.000 A 
ATOM      4  C   UNL     1      48.572   8.725  15.966  0.00  0.00    +0.000 A 
ATOM      5  C   UNL     1      49.368   7.595  16.146  0.00  0.00    +0.000 A 
ATOM      6  N   UNL     1      49.672   6.755  15.127  0.00  0.00    +0.000 NA
ATOM      7  C   UNL     1      49.190   7.060  13.899  0.00  0.00    +0.000 A 
BRANCH   5   8
ATOM      8  C   UNL     1      49.964   7.270  17.499  0.00  0.00    +0.000 C 
BRANCH   8   9
ATOM      9  C   UNL     1      50.150   5.794  17.742  0.00  0.00    +0.000 C 
ATOM     10  C   UNL     1      49.192   4.877  17.978  0.00  0.00    +0.000 C 
ATOM     11  C   UNL     1      49.511   3.407  18.169  0.00  0.00    +0.000 C 
ATOM     12  C   UNL     1      48.724   2.560  17.155  0.00  0.00    +0.000 C 
ATOM     13  N   UNL     1      47.272   2.816  17.188  0.00  0.00    +0.000 NA
ATOM     14  C   UNL     1      47.006   4.248  16.968  0.00  0.00    +0.000 C 
ATOM     15  C   UNL     1      47.704   5.139  18.005  0.00  0.00    +0.000 C 
ATOM     16  H   UNL     1      46.926   2.568  18.115  0.00  0.00    +0.000 HD
ENDBRANCH   8   9
ENDBRANCH   5   8
ENDBRANCH   1   2
BRANCH   1  19
ATOM     17  O   UNL     1      45.192   7.769  12.283  0.00  0.00    +0.000 OA
ATOM     18  C   UNL     1      45.971   7.049  11.664  0.00  0.00    +0.000 C 
ATOM     19  N   UNL     1      47.324   7.270  11.648  0.00  0.00    +0.000 N 
ATOM     20  H   UNL     1      47.891   6.780  10.964  0.00  0.00    +0.000 HD
BRANCH  18  21
ATOM     21  C   UNL     1      45.511   5.863  10.938  0.00  0.00    +0.000 A 
ATOM     22  C   UNL     1      45.831   5.688   9.600  0.00  0.00    +0.000 A 
ATOM     23  S   UNL     1      45.193   4.253   8.931  0.00  0.00    +0.000 S 
ATOM     24  C   UNL     1      44.500   3.800  10.419  0.00  0.00    +0.000 A 
ATOM     25  N   UNL     1      43.811   2.636  10.550  0.00  0.00    +0.000 NA
ATOM     26  C   UNL     1      43.373   2.409  11.748  0.00  0.00    +0.000 A 
ATOM     27  N   UNL     1      43.558   3.238  12.821  0.00  0.00    +0.000 N 
ATOM     28  C   UNL     1      44.186   4.454  12.714  0.00  0.00    +0.000 A 
ATOM     29  O   UNL     1      44.211   5.230  13.666  0.00  0.00    +0.000 OA
ATOM     30  C   UNL     1      44.736   4.745  11.406  0.00  0.00    +0.000 A 
ATOM     31  H   UNL     1      43.165   3.021  13.721  0.00  0.00    +0.000 HD
ENDBRANCH  18  21
ENDBRANCH   1  19
TORSDOF 5
ENDMDL
