MODEL 1
REMARK VINA RESULT:    -7.766      0.000      0.000
REMARK INTER + INTRA:         -11.110
REMARK INTER:                 -10.718
REMARK INTRA:                  -0.392
REMARK UNBOUND:                -0.392
REMARK  Name = 
REMARK  8 active torsions:
REMARK  status: ('A' for Active; 'I' for Inactive)
REMARK    1  A    between atoms: C_1  and  N_2
REMARK    2  A    between atoms: C_4  and  C_5
REMARK    3  A    between atoms: N_7  and  C_8
REMARK    4  A    between atoms: C_8  and  C_9
REMARK    5  A    between atoms: C_12  and  N_13
REMARK    6  A    between atoms: N_13  and  C_14
REMARK    7  A    between atoms: C_14  and  C_15
REMARK    8  A    between atoms: C_15  and  O_16
REMARK                            x       y       z     vdW  Elec       q    Type
REMARK                         _______ _______ _______ _____ _____    ______ ____
ROOT
ATOM      1  C   UNL     1      46.049   4.310  13.610  0.00  0.00    +0.000 C 
ATOM      2  O   UNL     1      46.107   3.143  13.246  0.00  0.00    +0.000 OA
ATOM      3  N   UNL     1      45.021   5.146  13.217  0.00  0.00    +0.000 N 
ATOM      4  H   UNL     1      44.952   6.080  13.593  0.00  0.00    +0.000 HD
ENDROOT
BRANCH   1   8
ATOM      5  C   UNL     1      48.845   5.257  17.634  0.00  0.00    +0.000 C 
ATOM      6  N   UNL     1      48.292   5.336  16.301  0.00  0.00    +0.000 N 
ATOM      7  C   UNL     1      47.338   4.503  15.777  0.00  0.00    +0.000 A 
ATOM      8  C   UNL     1      47.052   4.918  14.478  0.00  0.00    +0.000 A 
ATOM      9  C   UNL     1      47.894   6.065  14.222  0.00  0.00    +0.000 A 
ATOM     10  C   UNL     1      48.178   6.969  13.200  0.00  0.00    +0.000 A 
ATOM     11 CL   UNL     1      47.447   6.843  11.676  0.00  0.00    +0.000 Cl
ATOM     12  N   UNL     1      49.094   7.946  13.332  0.00  0.00    +0.000 NA
ATOM     13  C   UNL     1      49.725   8.029  14.508  0.00  0.00    +0.000 A 
ATOM     14  N   UNL     1      49.564   7.240  15.580  0.00  0.00    +0.000 NA
ATOM     15  C   UNL     1      48.644   6.279  15.378  0.00  0.00    +0.000 A 
ENDBRANCH   1   8
BRANCH   3  16
ATOM     16  C   UNL     1      43.935   4.623  12.420  0.00  0.00    +0.000 C 
BRANCH  16  17
ATOM     17  C   UNL     1      44.372   4.253  11.026  0.00  0.00    +0.000 A 
ATOM     18  C   UNL     1      44.057   3.000  10.488  0.00  0.00    +0.000 A 
ATOM     19  C   UNL     1      44.473   2.646   9.196  0.00  0.00    +0.000 A 
ATOM     20  C   UNL     1      45.204   3.534   8.398  0.00  0.00    +0.000 A 
ATOM     21  C   UNL     1      45.536   4.774   8.959  0.00  0.00    +0.000 A 
ATOM     22  C   UNL     1      45.122   5.138  10.246  0.00  0.00    +0.000 A 
BRANCH  20  23
ATOM     23  N   UNL     1      45.748   3.196   7.148  0.00  0.00    +0.000 N 
ATOM     24  H   UNL     1      45.367   2.309   6.823  0.00  0.00    +0.000 HD
BRANCH  23  25
ATOM     25  C   UNL     1      47.203   3.277   6.958  0.00  0.00    +0.000 C 
BRANCH  25  26
ATOM     26  C   UNL     1      47.785   1.859   6.856  0.00  0.00    +0.000 C 
BRANCH  26  27
ATOM     27  O   UNL     1      48.548   1.710   5.660  0.00  0.00    +0.000 OA
ATOM     28  H   UNL     1      49.257   1.073   5.875  0.00  0.00    +0.000 HD
ENDBRANCH  26  27
ENDBRANCH  25  26
ENDBRANCH  23  25
ENDBRANCH  20  23
ENDBRANCH  16  17
ENDBRANCH   3  16
TORSDOF 7
ENDMDL
MODEL 2
REMARK VINA RESULT:    -7.627      1.530      2.511
REMARK INTER + INTRA:         -10.918
REMARK INTER:                 -10.328
REMARK INTRA:                  -0.589
REMARK UNBOUND:                -0.392
REMARK  Name = 
REMARK  8 active torsions:
REMARK  status: ('A' for Active; 'I' for Inactive)
REMARK    1  A    between atoms: C_1  and  N_2
REMARK    2  A    between atoms: C_4  and  C_5
REMARK    3  A    between atoms: N_7  and  C_8
REMARK    4  A    between atoms: C_8  and  C_9
REMARK    5  A    between atoms: C_12  and  N_13
REMARK    6  A    between atoms: N_13  and  C_14
REMARK    7  A    between atoms: C_14  and  C_15
REMARK    8  A    between atoms: C_15  and  O_16
REMARK                            x       y       z     vdW  Elec       q    Type
REMARK                         _______ _______ _______ _____ _____    ______ ____
ROOT
ATOM      1  C   UNL     1      46.581   4.633  13.939  0.00  0.00    +0.000 C 
ATOM      2  O   UNL     1      46.708   3.416  13.892  0.00  0.00    +0.000 OA
ATOM      3  N   UNL     1      45.497   5.275  13.371  0.00  0.00    +0.000 N 
ATOM      4  H   UNL     1      45.374   6.270  13.491  0.00  0.00    +0.000 HD
ENDROOT
BRANCH   1   8
ATOM      5  C   UNL     1      49.872   8.318  14.639  0.00  0.00    +0.000 C 
ATOM      6  N   UNL     1      49.039   7.161  14.880  0.00  0.00    +0.000 N 
ATOM      7  C   UNL     1      48.140   6.623  13.997  0.00  0.00    +0.000 A 
ATOM      8  C   UNL     1      47.555   5.505  14.588  0.00  0.00    +0.000 A 
ATOM      9  C   UNL     1      48.145   5.383  15.902  0.00  0.00    +0.000 A 
ATOM     10  C   UNL     1      48.064   4.571  17.032  0.00  0.00    +0.000 A 
ATOM     11 CL   UNL     1      46.963   3.286  17.126  0.00  0.00    +0.000 Cl
ATOM     12  N   UNL     1      48.797   4.797  18.138  0.00  0.00    +0.000 NA
ATOM     13  C   UNL     1      49.632   5.841  18.108  0.00  0.00    +0.000 A 
ATOM     14  N   UNL     1      49.821   6.708  17.103  0.00  0.00    +0.000 NA
ATOM     15  C   UNL     1      49.052   6.432  16.035  0.00  0.00    +0.000 A 
ENDBRANCH   1   8
BRANCH   3  16
ATOM     16  C   UNL     1      44.436   4.499  12.771  0.00  0.00    +0.000 C 
BRANCH  16  17
ATOM     17  C   UNL     1      44.710   4.171  11.327  0.00  0.00    +0.000 A 
ATOM     18  C   UNL     1      44.452   2.892  10.824  0.00  0.00    +0.000 A 
ATOM     19  C   UNL     1      44.718   2.577   9.482  0.00  0.00    +0.000 A 
ATOM     20  C   UNL     1      45.237   3.532   8.601  0.00  0.00    +0.000 A 
ATOM     21  C   UNL     1      45.518   4.802   9.124  0.00  0.00    +0.000 A 
ATOM     22  C   UNL     1      45.251   5.126  10.460  0.00  0.00    +0.000 A 
BRANCH  20  23
ATOM     23  N   UNL     1      45.634   3.247   7.284  0.00  0.00    +0.000 N 
ATOM     24  H   UNL     1      45.181   2.397   6.952  0.00  0.00    +0.000 HD
BRANCH  23  25
ATOM     25  C   UNL     1      47.064   3.281   6.947  0.00  0.00    +0.000 C 
BRANCH  25  26
ATOM     26  C   UNL     1      47.596   1.844   6.830  0.00  0.00    +0.000 C 
BRANCH  26  27
ATOM     27  O   UNL     1      48.514   1.731   5.743  0.00  0.00    +0.000 OA
ATOM     28  H   UNL     1      48.146   1.042   5.157  0.00  0.00    +0.000 HD
ENDBRANCH  26  27
ENDBRANCH  25  26
ENDBRANCH  23  25
ENDBRANCH  20  23
ENDBRANCH  16  17
ENDBRANCH   3  16
TORSDOF 7
ENDMDL
MODEL 3
REMARK VINA RESULT:    -7.109      3.019      4.573
REMARK INTER + INTRA:         -10.202
REMARK INTER:                  -9.109
REMARK INTRA:                  -1.093
REMARK UNBOUND:                -0.392
REMARK  Name = 
REMARK  8 active torsions:
REMARK  status: ('A' for Active; 'I' for Inactive)
REMARK    1  A    between atoms: C_1  and  N_2
REMARK    2  A    between atoms: C_4  and  C_5
REMARK    3  A    between atoms: N_7  and  C_8
REMARK    4  A    between atoms: C_8  and  C_9
REMARK    5  A    between atoms: C_12  and  N_13
REMARK    6  A    between atoms: N_13  and  C_14
REMARK    7  A    between atoms: C_14  and  C_15
REMARK    8  A    between atoms: C_15  and  O_16
REMARK                            x       y       z     vdW  Elec       q    Type
REMARK                         _______ _______ _______ _____ _____    ______ ____
ROOT
ATOM      1  C   UNL     1      48.836   7.012  14.833  0.00  0.00    +0.000 C 
ATOM      2  O   UNL     1      49.692   6.935  13.961  0.00  0.00    +0.000 OA
ATOM      3  N   UNL     1      47.685   7.758  14.660  0.00  0.00    +0.000 N 
ATOM      4  H   UNL     1      46.958   7.743  15.361  0.00  0.00    +0.000 HD
ENDROOT
BRANCH   1   8
ATOM      5  C   UNL     1      50.433   5.860  19.418  0.00  0.00    +0.000 C 
ATOM      6  N   UNL     1      49.694   5.826  18.176  0.00  0.00    +0.000 N 
ATOM      7  C   UNL     1      49.815   6.722  17.146  0.00  0.00    +0.000 A 
ATOM      8  C   UNL     1      48.956   6.335  16.120  0.00  0.00    +0.000 A 
ATOM      9  C   UNL     1      48.285   5.140  16.579  0.00  0.00    +0.000 A 
ATOM     10  C   UNL     1      47.323   4.228  16.147  0.00  0.00    +0.000 A 
ATOM     11 CL   UNL     1      46.530   4.411  14.660  0.00  0.00    +0.000 Cl
ATOM     12  N   UNL     1      46.914   3.195  16.906  0.00  0.00    +0.000 NA
ATOM     13  C   UNL     1      47.486   3.063  18.108  0.00  0.00    +0.000 A 
ATOM     14  N   UNL     1      48.418   3.852  18.661  0.00  0.00    +0.000 NA
ATOM     15  C   UNL     1      48.773   4.870  17.856  0.00  0.00    +0.000 A 
ENDBRANCH   1   8
BRANCH   3  16
ATOM     16  C   UNL     1      47.432   8.405  13.393  0.00  0.00    +0.000 C 
BRANCH  16  17
ATOM     17  C   UNL     1      46.507   7.605  12.515  0.00  0.00    +0.000 A 
ATOM     18  C   UNL     1      45.121   7.786  12.585  0.00  0.00    +0.000 A 
ATOM     19  C   UNL     1      44.254   7.034  11.779  0.00  0.00    +0.000 A 
ATOM     20  C   UNL     1      44.743   6.088  10.870  0.00  0.00    +0.000 A 
ATOM     21  C   UNL     1      46.131   5.896  10.829  0.00  0.00    +0.000 A 
ATOM     22  C   UNL     1      47.004   6.646  11.627  0.00  0.00    +0.000 A 
BRANCH  20  23
ATOM     23  N   UNL     1      43.925   5.224  10.124  0.00  0.00    +0.000 N 
ATOM     24  H   UNL     1      42.961   5.552  10.133  0.00  0.00    +0.000 HD
BRANCH  23  25
ATOM     25  C   UNL     1      44.020   3.775  10.355  0.00  0.00    +0.000 C 
BRANCH  25  26
ATOM     26  C   UNL     1      43.257   3.411  11.637  0.00  0.00    +0.000 C 
BRANCH  26  27
ATOM     27  O   UNL     1      42.951   2.017  11.665  0.00  0.00    +0.000 OA
ATOM     28  H   UNL     1      42.450   1.840  10.845  0.00  0.00    +0.000 HD
ENDBRANCH  26  27
ENDBRANCH  25  26
ENDBRANCH  23  25
ENDBRANCH  20  23
ENDBRANCH  16  17
ENDBRANCH   3  16
TORSDOF 7
ENDMDL
MODEL 4
REMARK VINA RESULT:    -6.293      3.641      5.585
REMARK INTER + INTRA:          -9.076
REMARK INTER:                  -8.458
REMARK INTRA:                  -0.617
REMARK UNBOUND:                -0.392
REMARK  Name = 
REMARK  8 active torsions:
REMARK  status: ('A' for Active; 'I' for Inactive)
REMARK    1  A    between atoms: C_1  and  N_2
REMARK    2  A    between atoms: C_4  and  C_5
REMARK    3  A    between atoms: N_7  and  C_8
REMARK    4  A    between atoms: C_8  and  C_9
REMARK    5  A    between atoms: C_12  and  N_13
REMARK    6  A    between atoms: N_13  and  C_14
REMARK    7  A    between atoms: C_14  and  C_15
REMARK    8  A    between atoms: C_15  and  O_16
REMARK                            x       y       z     vdW  Elec       q    Type
REMARK                         _______ _______ _______ _____ _____    ______ ____
ROOT
ATOM      1  C   UNL     1      49.214   6.867  16.168  0.00  0.00    +0.000 C 
ATOM      2  O   UNL     1      50.306   6.378  15.913  0.00  0.00    +0.000 OA
ATOM      3  N   UNL     1      48.329   7.234  15.171  0.00  0.00    +0.000 N 
ATOM      4  H   UNL     1      47.404   7.562  15.407  0.00  0.00    +0.000 HD
ENDROOT
BRANCH   1   8
ATOM      5  C   UNL     1      47.543   9.251  20.222  0.00  0.00    +0.000 C 
ATOM      6  N   UNL     1      48.013   8.201  19.346  0.00  0.00    +0.000 N 
ATOM      7  C   UNL     1      48.312   8.339  18.016  0.00  0.00    +0.000 A 
ATOM      8  C   UNL     1      48.755   7.110  17.532  0.00  0.00    +0.000 A 
ATOM      9  C   UNL     1      48.708   6.192  18.648  0.00  0.00    +0.000 A 
ATOM     10  C   UNL     1      48.966   4.852  18.934  0.00  0.00    +0.000 A 
ATOM     11 CL   UNL     1      49.461   3.767  17.730  0.00  0.00    +0.000 Cl
ATOM     12  N   UNL     1      48.771   4.323  20.155  0.00  0.00    +0.000 NA
ATOM     13  C   UNL     1      48.326   5.149  21.109  0.00  0.00    +0.000 A 
ATOM     14  N   UNL     1      48.034   6.452  20.990  0.00  0.00    +0.000 NA
ATOM     15  C   UNL     1      48.240   6.914  19.743  0.00  0.00    +0.000 A 
ENDBRANCH   1   8
BRANCH   3  16
ATOM     16  C   UNL     1      48.654   6.966  13.789  0.00  0.00    +0.000 C 
BRANCH  16  17
ATOM     17  C   UNL     1      47.523   6.293  13.055  0.00  0.00    +0.000 A 
ATOM     18  C   UNL     1      46.908   5.153  13.583  0.00  0.00    +0.000 A 
ATOM     19  C   UNL     1      45.863   4.515  12.897  0.00  0.00    +0.000 A 
ATOM     20  C   UNL     1      45.393   5.001  11.672  0.00  0.00    +0.000 A 
ATOM     21  C   UNL     1      46.036   6.128  11.141  0.00  0.00    +0.000 A 
ATOM     22  C   UNL     1      47.077   6.774  11.820  0.00  0.00    +0.000 A 
BRANCH  20  23
ATOM     23  N   UNL     1      44.436   4.343  10.883  0.00  0.00    +0.000 N 
ATOM     24  H   UNL     1      44.379   4.773   9.961  0.00  0.00    +0.000 HD
BRANCH  23  25
ATOM     25  C   UNL     1      43.108   4.071  11.451  0.00  0.00    +0.000 C 
BRANCH  25  26
ATOM     26  C   UNL     1      42.475   5.389  11.924  0.00  0.00    +0.000 C 
BRANCH  26  27
ATOM     27  O   UNL     1      42.497   5.478  13.348  0.00  0.00    +0.000 OA
ATOM     28  H   UNL     1      42.601   6.428  13.552  0.00  0.00    +0.000 HD
ENDBRANCH  26  27
ENDBRANCH  25  26
ENDBRANCH  23  25
ENDBRANCH  20  23
ENDBRANCH  16  17
ENDBRANCH   3  16
TORSDOF 7
ENDMDL
MODEL 5
REMARK VINA RESULT:    -6.089      4.278      5.767
REMARK INTER + INTRA:          -8.795
REMARK INTER:                  -8.252
REMARK INTRA:                  -0.543
REMARK UNBOUND:                -0.392
REMARK  Name = 
REMARK  8 active torsions:
REMARK  status: ('A' for Active; 'I' for Inactive)
REMARK    1  A    between atoms: C_1  and  N_2
REMARK    2  A    between atoms: C_4  and  C_5
REMARK    3  A    between atoms: N_7  and  C_8
REMARK    4  A    between atoms: C_8  and  C_9
REMARK    5  A    between atoms: C_12  and  N_13
REMARK    6  A    between atoms: N_13  and  C_14
REMARK    7  A    between atoms: C_14  and  C_15
REMARK    8  A    between atoms: C_15  and  O_16
REMARK                            x       y       z     vdW  Elec       q    Type
REMARK                         _______ _______ _______ _____ _____    ______ ____
ROOT
ATOM      1  C   UNL     1      48.833   7.289  15.043  0.00  0.00    +0.000 C 
ATOM      2  O   UNL     1      48.672   8.499  15.130  0.00  0.00    +0.000 OA
ATOM      3  N   UNL     1      48.852   6.643  13.821  0.00  0.00    +0.000 N 
ATOM      4  H   UNL     1      49.065   5.657  13.769  0.00  0.00    +0.000 HD
ENDROOT
BRANCH   1   8
ATOM      5  C   UNL     1      50.645   5.472  19.323  0.00  0.00    +0.000 C 
ATOM      6  N   UNL     1      49.846   5.621  18.127  0.00  0.00    +0.000 N 
ATOM      7  C   UNL     1      49.921   6.660  17.237  0.00  0.00    +0.000 A 
ATOM      8  C   UNL     1      49.011   6.428  16.208  0.00  0.00    +0.000 A 
ATOM      9  C   UNL     1      48.358   5.177  16.516  0.00  0.00    +0.000 A 
ATOM     10  C   UNL     1      47.372   4.336  16.001  0.00  0.00    +0.000 A 
ATOM     11 CL   UNL     1      46.509   4.737  14.598  0.00  0.00    +0.000 Cl
ATOM     12  N   UNL     1      46.996   3.201  16.617  0.00  0.00    +0.000 NA
ATOM     13  C   UNL     1      47.625   2.893  17.757  0.00  0.00    +0.000 A 
ATOM     14  N   UNL     1      48.586   3.594  18.375  0.00  0.00    +0.000 NA
ATOM     15  C   UNL     1      48.906   4.721  17.714  0.00  0.00    +0.000 A 
ENDBRANCH   1   8
BRANCH   3  16
ATOM     16  C   UNL     1      48.762   7.411  12.601  0.00  0.00    +0.000 C 
BRANCH  16  17
ATOM     17  C   UNL     1      47.336   7.690  12.202  0.00  0.00    +0.000 A 
ATOM     18  C   UNL     1      46.521   6.666  11.706  0.00  0.00    +0.000 A 
ATOM     19  C   UNL     1      45.196   6.922  11.321  0.00  0.00    +0.000 A 
ATOM     20  C   UNL     1      44.642   8.203  11.431  0.00  0.00    +0.000 A 
ATOM     21  C   UNL     1      45.477   9.225  11.903  0.00  0.00    +0.000 A 
ATOM     22  C   UNL     1      46.799   8.977  12.294  0.00  0.00    +0.000 A 
BRANCH  20  23
ATOM     23  N   UNL     1      43.366   8.547  10.954  0.00  0.00    +0.000 N 
ATOM     24  H   UNL     1      43.172   8.064  10.078  0.00  0.00    +0.000 HD
BRANCH  23  25
ATOM     25  C   UNL     1      42.983   9.965  10.902  0.00  0.00    +0.000 C 
BRANCH  25  26
ATOM     26  C   UNL     1      41.469  10.077  10.668  0.00  0.00    +0.000 C 
BRANCH  26  27
ATOM     27  O   UNL     1      40.761   9.143  11.483  0.00  0.00    +0.000 OA
ATOM     28  H   UNL     1      41.446   8.606  11.926  0.00  0.00    +0.000 HD
ENDBRANCH  26  27
ENDBRANCH  25  26
ENDBRANCH  23  25
ENDBRANCH  20  23
ENDBRANCH  16  17
ENDBRANCH   3  16
TORSDOF 7
ENDMDL
MODEL 6
REMARK VINA RESULT:    -6.040      3.005      4.626
REMARK INTER + INTRA:          -8.727
REMARK INTER:                  -8.083
REMARK INTRA:                  -0.644
REMARK UNBOUND:                -0.392
REMARK  Name = 
REMARK  8 active torsions:
REMARK  status: ('A' for Active; 'I' for Inactive)
REMARK    1  A    between atoms: C_1  and  N_2
REMARK    2  A    between atoms: C_4  and  C_5
REMARK    3  A    between atoms: N_7  and  C_8
REMARK    4  A    between atoms: C_8  and  C_9
REMARK    5  A    between atoms: C_12  and  N_13
REMARK    6  A    between atoms: N_13  and  C_14
REMARK    7  A    between atoms: C_14  and  C_15
REMARK    8  A    between atoms: C_15  and  O_16
REMARK                            x       y       z     vdW  Elec       q    Type
REMARK                         _______ _______ _______ _____ _____    ______ ____
ROOT
ATOM      1  C   UNL     1      49.217   6.555  16.011  0.00  0.00    +0.000 C 
ATOM      2  O   UNL     1      50.347   6.639  15.548  0.00  0.00    +0.000 OA
ATOM      3  N   UNL     1      48.093   6.667  15.214  0.00  0.00    +0.000 N 
ATOM      4  H   UNL     1      47.174   6.516  15.605  0.00  0.00    +0.000 HD
ENDROOT
BRANCH   1   8
ATOM      5  C   UNL     1      48.849   4.281  20.438  0.00  0.00    +0.000 C 
ATOM      6  N   UNL     1      48.790   5.296  19.410  0.00  0.00    +0.000 N 
ATOM      7  C   UNL     1      49.203   5.148  18.112  0.00  0.00    +0.000 A 
ATOM      8  C   UNL     1      48.958   6.339  17.431  0.00  0.00    +0.000 A 
ATOM      9  C   UNL     1      48.369   7.244  18.391  0.00  0.00    +0.000 A 
ATOM     10  C   UNL     1      47.893   8.552  18.467  0.00  0.00    +0.000 A 
ATOM     11 CL   UNL     1      47.972   9.603  17.139  0.00  0.00    +0.000 Cl
ATOM     12  N   UNL     1      47.411   9.081  19.606  0.00  0.00    +0.000 NA
ATOM     13  C   UNL     1      47.392   8.287  20.682  0.00  0.00    +0.000 A 
ATOM     14  N   UNL     1      47.812   7.017  20.768  0.00  0.00    +0.000 NA
ATOM     15  C   UNL     1      48.290   6.553  19.599  0.00  0.00    +0.000 A 
ENDBRANCH   1   8
BRANCH   3  16
ATOM     16  C   UNL     1      48.238   6.806  13.783  0.00  0.00    +0.000 C 
BRANCH  16  17
ATOM     17  C   UNL     1      47.127   6.126  13.025  0.00  0.00    +0.000 A 
ATOM     18  C   UNL     1      46.721   6.604  11.775  0.00  0.00    +0.000 A 
ATOM     19  C   UNL     1      45.678   5.983  11.070  0.00  0.00    +0.000 A 
ATOM     20  C   UNL     1      45.019   4.861  11.586  0.00  0.00    +0.000 A 
ATOM     21  C   UNL     1      45.417   4.409  12.852  0.00  0.00    +0.000 A 
ATOM     22  C   UNL     1      46.460   5.021  13.560  0.00  0.00    +0.000 A 
BRANCH  20  23
ATOM     23  N   UNL     1      43.895   4.270  10.987  0.00  0.00    +0.000 N 
ATOM     24  H   UNL     1      43.059   4.454  11.541  0.00  0.00    +0.000 HD
BRANCH  23  25
ATOM     25  C   UNL     1      43.973   2.868  10.552  0.00  0.00    +0.000 C 
BRANCH  25  26
ATOM     26  C   UNL     1      44.788   2.782   9.253  0.00  0.00    +0.000 C 
BRANCH  26  27
ATOM     27  O   UNL     1      45.461   1.527   9.160  0.00  0.00    +0.000 OA
ATOM     28  H   UNL     1      46.360   1.732   8.837  0.00  0.00    +0.000 HD
ENDBRANCH  26  27
ENDBRANCH  25  26
ENDBRANCH  23  25
ENDBRANCH  20  23
ENDBRANCH  16  17
ENDBRANCH   3  16
TORSDOF 7
ENDMDL
MODEL 7
REMARK VINA RESULT:    -6.015      6.017      7.832
REMARK INTER + INTRA:          -8.692
REMARK INTER:                  -8.601
REMARK INTRA:                  -0.091
REMARK UNBOUND:                -0.392
REMARK  Name = 
REMARK  8 active torsions:
REMARK  status: ('A' for Active; 'I' for Inactive)
REMARK    1  A    between atoms: C_1  and  N_2
REMARK    2  A    between atoms: C_4  and  C_5
REMARK    3  A    between atoms: N_7  and  C_8
REMARK    4  A    between atoms: C_8  and  C_9
REMARK    5  A    between atoms: C_12  and  N_13
REMARK    6  A    between atoms: N_13  and  C_14
REMARK    7  A    between atoms: C_14  and  C_15
REMARK    8  A    between atoms: C_15  and  O_16
REMARK                            x       y       z     vdW  Elec       q    Type
REMARK                         _______ _______ _______ _____ _____    ______ ____
ROOT
ATOM      1  C   UNL     1      44.685   8.049  11.555  0.00  0.00    +0.000 C 
ATOM      2  O   UNL     1      45.607   8.793  11.862  0.00  0.00    +0.000 OA
ATOM      3  N   UNL     1      43.526   8.528  10.973  0.00  0.00    +0.000 N 
ATOM      4  H   UNL     1      42.812   7.888  10.657  0.00  0.00    +0.000 HD
ENDROOT
BRANCH   1   8
ATOM      5  C   UNL     1      43.363   3.237  11.494  0.00  0.00    +0.000 C 
ATOM      6  N   UNL     1      44.105   4.451  11.751  0.00  0.00    +0.000 N 
ATOM      7  C   UNL     1      43.776   5.703  11.302  0.00  0.00    +0.000 A 
ATOM      8  C   UNL     1      44.722   6.608  11.780  0.00  0.00    +0.000 A 
ATOM      9  C   UNL     1      45.669   5.837  12.553  0.00  0.00    +0.000 A 
ATOM     10  C   UNL     1      46.838   6.018  13.290  0.00  0.00    +0.000 A 
ATOM     11 CL   UNL     1      47.582   7.536  13.415  0.00  0.00    +0.000 Cl
ATOM     12  N   UNL     1      47.485   4.998  13.882  0.00  0.00    +0.000 NA
ATOM     13  C   UNL     1      46.947   3.781  13.749  0.00  0.00    +0.000 A 
ATOM     14  N   UNL     1      45.836   3.448  13.077  0.00  0.00    +0.000 NA
ATOM     15  C   UNL     1      45.245   4.510  12.501  0.00  0.00    +0.000 A 
ENDBRANCH   1   8
BRANCH   3  16
ATOM     16  C   UNL     1      43.417   9.929  10.637  0.00  0.00    +0.000 C 
BRANCH  16  17
ATOM     17  C   UNL     1      41.986  10.377  10.499  0.00  0.00    +0.000 A 
ATOM     18  C   UNL     1      41.643  11.414   9.625  0.00  0.00    +0.000 A 
ATOM     19  C   UNL     1      40.313  11.844   9.502  0.00  0.00    +0.000 A 
ATOM     20  C   UNL     1      39.285  11.245  10.238  0.00  0.00    +0.000 A 
ATOM     21  C   UNL     1      39.644  10.225  11.130  0.00  0.00    +0.000 A 
ATOM     22  C   UNL     1      40.969   9.787  11.255  0.00  0.00    +0.000 A 
BRANCH  20  23
ATOM     23  N   UNL     1      37.958  11.706  10.248  0.00  0.00    +0.000 N 
ATOM     24  H   UNL     1      37.749  12.167  11.132  0.00  0.00    +0.000 HD
BRANCH  23  25
ATOM     25  C   UNL     1      36.883  10.794   9.831  0.00  0.00    +0.000 C 
BRANCH  25  26
ATOM     26  C   UNL     1      36.762  10.812   8.300  0.00  0.00    +0.000 C 
BRANCH  26  27
ATOM     27  O   UNL     1      36.458   9.510   7.801  0.00  0.00    +0.000 OA
ATOM     28  H   UNL     1      35.938   9.653   6.987  0.00  0.00    +0.000 HD
ENDBRANCH  26  27
ENDBRANCH  25  26
ENDBRANCH  23  25
ENDBRANCH  20  23
ENDBRANCH  16  17
ENDBRANCH   3  16
TORSDOF 7
ENDMDL
MODEL 8
REMARK VINA RESULT:    -5.798      3.520      5.472
REMARK INTER + INTRA:          -8.393
REMARK INTER:                  -7.802
REMARK INTRA:                  -0.591
REMARK UNBOUND:                -0.392
REMARK  Name = 
REMARK  8 active torsions:
REMARK  status: ('A' for Active; 'I' for Inactive)
REMARK    1  A    between atoms: C_1  and  N_2
REMARK    2  A    between atoms: C_4  and  C_5
REMARK    3  A    between atoms: N_7  and  C_8
REMARK    4  A    between atoms: C_8  and  C_9
REMARK    5  A    between atoms: C_12  and  N_13
REMARK    6  A    between atoms: N_13  and  C_14
REMARK    7  A    between atoms: C_14  and  C_15
REMARK    8  A    between atoms: C_15  and  O_16
REMARK                            x       y       z     vdW  Elec       q    Type
REMARK                         _______ _______ _______ _____ _____    ______ ____
ROOT
ATOM      1  C   UNL     1      48.536   9.101  15.719  0.00  0.00    +0.000 C 
ATOM      2  O   UNL     1      49.684   9.277  15.331  0.00  0.00    +0.000 OA
ATOM      3  N   UNL     1      47.494   8.887  14.836  0.00  0.00    +0.000 N 
ATOM      4  H   UNL     1      46.571   8.666  15.181  0.00  0.00    +0.000 HD
ENDROOT
BRANCH   1   8
ATOM      5  C   UNL     1      47.198  10.763  20.230  0.00  0.00    +0.000 C 
ATOM      6  N   UNL     1      47.577   9.875  19.154  0.00  0.00    +0.000 N 
ATOM      7  C   UNL     1      47.801  10.241  17.853  0.00  0.00    +0.000 A 
ATOM      8  C   UNL     1      48.168   9.108  17.131  0.00  0.00    +0.000 A 
ATOM      9  C   UNL     1      48.154   8.006  18.067  0.00  0.00    +0.000 A 
ATOM     10  C   UNL     1      48.378   6.630  18.094  0.00  0.00    +0.000 A 
ATOM     11 CL   UNL     1      48.761   5.766  16.687  0.00  0.00    +0.000 Cl
ATOM     12  N   UNL     1      48.237   5.897  19.212  0.00  0.00    +0.000 NA
ATOM     13  C   UNL     1      47.880   6.550  20.324  0.00  0.00    +0.000 A 
ATOM     14  N   UNL     1      47.630   7.860  20.457  0.00  0.00    +0.000 NA
ATOM     15  C   UNL     1      47.778   8.532  19.301  0.00  0.00    +0.000 A 
ENDBRANCH   1   8
BRANCH   3  16
ATOM     16  C   UNL     1      47.762   8.785  13.420  0.00  0.00    +0.000 C 
BRANCH  16  17
ATOM     17  C   UNL     1      46.781   7.886  12.714  0.00  0.00    +0.000 A 
ATOM     18  C   UNL     1      47.169   6.618  12.266  0.00  0.00    +0.000 A 
ATOM     19  C   UNL     1      46.263   5.782  11.597  0.00  0.00    +0.000 A 
ATOM     20  C   UNL     1      44.942   6.180  11.364  0.00  0.00    +0.000 A 
ATOM     21  C   UNL     1      44.573   7.462  11.793  0.00  0.00    +0.000 A 
ATOM     22  C   UNL     1      45.470   8.302  12.466  0.00  0.00    +0.000 A 
BRANCH  20  23
ATOM     23  N   UNL     1      44.025   5.440  10.599  0.00  0.00    +0.000 N 
ATOM     24  H   UNL     1      43.492   6.058   9.989  0.00  0.00    +0.000 HD
BRANCH  23  25
ATOM     25  C   UNL     1      43.169   4.452  11.270  0.00  0.00    +0.000 C 
BRANCH  25  26
ATOM     26  C   UNL     1      43.764   3.048  11.080  0.00  0.00    +0.000 C 
BRANCH  26  27
ATOM     27  O   UNL     1      42.939   2.061  11.699  0.00  0.00    +0.000 OA
ATOM     28  H   UNL     1      42.305   1.778  11.012  0.00  0.00    +0.000 HD
ENDBRANCH  26  27
ENDBRANCH  25  26
ENDBRANCH  23  25
ENDBRANCH  20  23
ENDBRANCH  16  17
ENDBRANCH   3  16
TORSDOF 7
ENDMDL
MODEL 9
REMARK VINA RESULT:    -5.480      3.947      9.108
REMARK INTER + INTRA:          -7.955
REMARK INTER:                  -7.293
REMARK INTRA:                  -0.662
REMARK UNBOUND:                -0.392
REMARK  Name = 
REMARK  8 active torsions:
REMARK  status: ('A' for Active; 'I' for Inactive)
REMARK    1  A    between atoms: C_1  and  N_2
REMARK    2  A    between atoms: C_4  and  C_5
REMARK    3  A    between atoms: N_7  and  C_8
REMARK    4  A    between atoms: C_8  and  C_9
REMARK    5  A    between atoms: C_12  and  N_13
REMARK    6  A    between atoms: N_13  and  C_14
REMARK    7  A    between atoms: C_14  and  C_15
REMARK    8  A    between atoms: C_15  and  O_16
REMARK                            x       y       z     vdW  Elec       q    Type
REMARK                         _______ _______ _______ _____ _____    ______ ____
ROOT
ATOM      1  C   UNL     1      47.653   8.602  13.613  0.00  0.00    +0.000 C 
ATOM      2  O   UNL     1      48.791   8.455  13.187  0.00  0.00    +0.000 OA
ATOM      3  N   UNL     1      47.408   9.041  14.900  0.00  0.00    +0.000 N 
ATOM      4  H   UNL     1      46.463   9.230  15.203  0.00  0.00    +0.000 HD
ENDROOT
BRANCH   1   8
ATOM      5  C   UNL     1      43.644   9.324  10.730  0.00  0.00    +0.000 C 
ATOM      6  N   UNL     1      44.662   8.671  11.523  0.00  0.00    +0.000 N 
ATOM      7  C   UNL     1      45.733   9.286  12.117  0.00  0.00    +0.000 A 
ATOM      8  C   UNL     1      46.466   8.326  12.809  0.00  0.00    +0.000 A 
ATOM      9  C   UNL     1      45.786   7.067  12.605  0.00  0.00    +0.000 A 
ATOM     10  C   UNL     1      45.913   5.721  12.946  0.00  0.00    +0.000 A 
ATOM     11 CL   UNL     1      47.232   5.155  13.847  0.00  0.00    +0.000 Cl
ATOM     12  N   UNL     1      45.045   4.784  12.525  0.00  0.00    +0.000 NA
ATOM     13  C   UNL     1      44.026   5.199  11.765  0.00  0.00    +0.000 A 
ATOM     14  N   UNL     1      43.770   6.449  11.354  0.00  0.00    +0.000 NA
ATOM     15  C   UNL     1      44.680   7.334  11.800  0.00  0.00    +0.000 A 
ENDBRANCH   1   8
BRANCH   3  16
ATOM     16  C   UNL     1      48.511   9.417  15.754  0.00  0.00    +0.000 C 
BRANCH  16  17
ATOM     17  C   UNL     1      48.404   8.813  17.130  0.00  0.00    +0.000 A 
ATOM     18  C   UNL     1      47.693   9.467  18.142  0.00  0.00    +0.000 A 
ATOM     19  C   UNL     1      47.601   8.916  19.429  0.00  0.00    +0.000 A 
ATOM     20  C   UNL     1      48.204   7.692  19.741  0.00  0.00    +0.000 A 
ATOM     21  C   UNL     1      48.936   7.061  18.726  0.00  0.00    +0.000 A 
ATOM     22  C   UNL     1      49.029   7.602  17.437  0.00  0.00    +0.000 A 
BRANCH  20  23
ATOM     23  N   UNL     1      48.247   7.149  21.036  0.00  0.00    +0.000 N 
ATOM     24  H   UNL     1      49.209   7.106  21.370  0.00  0.00    +0.000 HD
BRANCH  23  25
ATOM     25  C   UNL     1      47.508   5.909  21.314  0.00  0.00    +0.000 C 
BRANCH  25  26
ATOM     26  C   UNL     1      48.501   4.785  21.646  0.00  0.00    +0.000 C 
BRANCH  26  27
ATOM     27  O   UNL     1      48.405   3.728  20.693  0.00  0.00    +0.000 OA
ATOM     28  H   UNL     1      48.937   4.014  19.925  0.00  0.00    +0.000 HD
ENDBRANCH  26  27
ENDBRANCH  25  26
ENDBRANCH  23  25
ENDBRANCH  20  23
ENDBRANCH  16  17
ENDBRANCH   3  16
TORSDOF 7
ENDMDL
