MODEL 1
REMARK VINA RESULT:    -8.890      0.000      0.000
REMARK INTER + INTRA:         -12.077
REMARK INTER:                 -12.008
REMARK INTRA:                  -0.069
REMARK UNBOUND:                -0.069
REMARK  Name = 
REMARK  7 active torsions:
REMARK  status: ('A' for Active; 'I' for Inactive)
REMARK    1  A    between atoms: C_1  and  N_2
REMARK    2  A    between atoms: N_2  and  C_3
REMARK    3  A    between atoms: C_3  and  C_4
REMARK    4  A    between atoms: C_8  and  C_9
REMARK    5  A    between atoms: C_9  and  N_10
REMARK    6  A    between atoms: C_11  and  C_13
REMARK    7  A    between atoms: C_24  and  C_26
REMARK                            x       y       z     vdW  Elec       q    Type
REMARK                         _______ _______ _______ _____ _____    ______ ____
ROOT
ATOM      1  C   UNL     1      45.883   5.347  11.459  0.00  0.00    +0.000 A 
ATOM      2  C   UNL     1      46.623   6.534  11.354  0.00  0.00    +0.000 A 
ATOM      3  C   UNL     1      47.407   6.970  12.419  0.00  0.00    +0.000 A 
ATOM      4  C   UNL     1      47.428   6.246  13.614  0.00  0.00    +0.000 A 
ATOM      5  C   UNL     1      46.662   5.081  13.753  0.00  0.00    +0.000 A 
ATOM      6  C   UNL     1      45.938   4.608  12.650  0.00  0.00    +0.000 A 
ENDROOT
BRANCH   1   7
ATOM      7  C   UNL     1      44.986   4.914  10.326  0.00  0.00    +0.000 C 
BRANCH   7   9
ATOM      8  C   UNL     1      43.212   3.478  11.459  0.00  0.00    +0.000 C 
ATOM      9  N   UNL     1      44.256   3.650  10.459  0.00  0.00    +0.000 N 
ATOM     10  C   UNL     1      44.453   2.572   9.578  0.00  0.00    +0.000 C 
ATOM     11  O   UNL     1      43.729   1.573   9.600  0.00  0.00    +0.000 OA
BRANCH  10  12
ATOM     12  C   UNL     1      45.541   2.609   8.552  0.00  0.00    +0.000 A 
ATOM     13  C   UNL     1      45.746   3.777   7.829  0.00  0.00    +0.000 A 
ATOM     14  N   UNL     1      46.713   3.888   6.879  0.00  0.00    +0.000 NA
ATOM     15  C   UNL     1      47.453   2.775   6.674  0.00  0.00    +0.000 A 
ATOM     16  C   UNL     1      47.243   1.606   7.384  0.00  0.00    +0.000 A 
ATOM     17  N   UNL     1      46.288   1.493   8.333  0.00  0.00    +0.000 NA
ENDBRANCH  10  12
ENDBRANCH   7   9
ENDBRANCH   1   7
BRANCH   5  18
ATOM     18  C   UNL     1      46.574   4.378  15.081  0.00  0.00    +0.000 C 
BRANCH  18  19
ATOM     19  N   UNL     1      47.845   4.317  15.750  0.00  0.00    +0.000 N 
ATOM     20  C   UNL     1      47.936   4.441  17.113  0.00  0.00    +0.000 C 
ATOM     21  O   UNL     1      46.944   4.558  17.828  0.00  0.00    +0.000 OA
ATOM     22  H   UNL     1      48.666   4.498  15.180  0.00  0.00    +0.000 HD
BRANCH  20  23
ATOM     23  C   UNL     1      49.286   4.354  17.679  0.00  0.00    +0.000 A 
ATOM     24  C   UNL     1      49.789   5.403  18.438  0.00  0.00    +0.000 A 
ATOM     25  S   UNL     1      51.342   5.101  19.075  0.00  0.00    +0.000 S 
ATOM     26  C   UNL     1      51.417   3.580  18.314  0.00  0.00    +0.000 A 
ATOM     27  N   UNL     1      52.515   2.787  18.440  0.00  0.00    +0.000 NA
ATOM     28  C   UNL     1      52.447   1.676  17.785  0.00  0.00    +0.000 A 
ATOM     29  N   UNL     1      51.382   1.282  17.015  0.00  0.00    +0.000 N 
ATOM     30  C   UNL     1      50.245   2.041  16.880  0.00  0.00    +0.000 A 
ATOM     31  O   UNL     1      49.297   1.644  16.208  0.00  0.00    +0.000 OA
ATOM     32  C   UNL     1      50.269   3.303  17.594  0.00  0.00    +0.000 A 
ATOM     33  H   UNL     1      51.390   0.400  16.536  0.00  0.00    +0.000 HD
ENDBRANCH  20  23
ENDBRANCH  18  19
ENDBRANCH   5  18
TORSDOF 6
ENDMDL
MODEL 2
REMARK VINA RESULT:    -8.813      4.508      7.309
REMARK INTER + INTRA:         -11.973
REMARK INTER:                 -10.380
REMARK INTRA:                  -1.593
REMARK UNBOUND:                -0.069
REMARK  Name = 
REMARK  7 active torsions:
REMARK  status: ('A' for Active; 'I' for Inactive)
REMARK    1  A    between atoms: C_1  and  N_2
REMARK    2  A    between atoms: N_2  and  C_3
REMARK    3  A    between atoms: C_3  and  C_4
REMARK    4  A    between atoms: C_8  and  C_9
REMARK    5  A    between atoms: C_9  and  N_10
REMARK    6  A    between atoms: C_11  and  C_13
REMARK    7  A    between atoms: C_24  and  C_26
REMARK                            x       y       z     vdW  Elec       q    Type
REMARK                         _______ _______ _______ _____ _____    ______ ____
ROOT
ATOM      1  C   UNL     1      46.518   4.521  13.569  0.00  0.00    +0.000 A 
ATOM      2  C   UNL     1      46.932   3.895  14.754  0.00  0.00    +0.000 A 
ATOM      3  C   UNL     1      47.730   4.578  15.668  0.00  0.00    +0.000 A 
ATOM      4  C   UNL     1      48.156   5.879  15.389  0.00  0.00    +0.000 A 
ATOM      5  C   UNL     1      47.789   6.506  14.191  0.00  0.00    +0.000 A 
ATOM      6  C   UNL     1      46.921   5.841  13.314  0.00  0.00    +0.000 A 
ENDROOT
BRANCH   1   7
ATOM      7  C   UNL     1      45.708   3.755  12.554  0.00  0.00    +0.000 C 
BRANCH   7   9
ATOM      8  C   UNL     1      43.461   4.788  13.169  0.00  0.00    +0.000 C 
ATOM      9  N   UNL     1      44.392   4.277  12.174  0.00  0.00    +0.000 N 
ATOM     10  C   UNL     1      43.993   4.403  10.830  0.00  0.00    +0.000 C 
ATOM     11  O   UNL     1      42.951   4.984  10.513  0.00  0.00    +0.000 OA
BRANCH  10  12
ATOM     12  C   UNL     1      44.838   3.856   9.725  0.00  0.00    +0.000 A 
ATOM     13  C   UNL     1      45.499   4.739   8.882  0.00  0.00    +0.000 A 
ATOM     14  N   UNL     1      46.285   4.319   7.854  0.00  0.00    +0.000 NA
ATOM     15  C   UNL     1      46.365   2.978   7.697  0.00  0.00    +0.000 A 
ATOM     16  C   UNL     1      45.697   2.095   8.528  0.00  0.00    +0.000 A 
ATOM     17  N   UNL     1      44.921   2.508   9.555  0.00  0.00    +0.000 NA
ENDBRANCH  10  12
ENDBRANCH   7   9
ENDBRANCH   1   7
BRANCH   5  18
ATOM     18  C   UNL     1      48.358   7.851  13.827  0.00  0.00    +0.000 C 
BRANCH  18  19
ATOM     19  N   UNL     1      47.346   8.767  13.375  0.00  0.00    +0.000 N 
ATOM     20  C   UNL     1      47.501   9.478  12.212  0.00  0.00    +0.000 C 
ATOM     21  O   UNL     1      48.477   9.332  11.480  0.00  0.00    +0.000 OA
ATOM     22  H   UNL     1      46.691   9.100  14.076  0.00  0.00    +0.000 HD
BRANCH  20  23
ATOM     23  C   UNL     1      46.397  10.373  11.853  0.00  0.00    +0.000 A 
ATOM     24  C   UNL     1      46.574  11.750  11.907  0.00  0.00    +0.000 A 
ATOM     25  S   UNL     1      45.211  12.634  11.388  0.00  0.00    +0.000 S 
ATOM     26  C   UNL     1      44.319  11.209  11.125  0.00  0.00    +0.000 A 
ATOM     27  N   UNL     1      43.034  11.258  10.683  0.00  0.00    +0.000 NA
ATOM     28  C   UNL     1      42.469  10.103  10.556  0.00  0.00    +0.000 A 
ATOM     29  N   UNL     1      43.071   8.901  10.831  0.00  0.00    +0.000 N 
ATOM     30  C   UNL     1      44.373   8.805  11.257  0.00  0.00    +0.000 A 
ATOM     31  O   UNL     1      44.891   7.711  11.464  0.00  0.00    +0.000 OA
ATOM     32  C   UNL     1      45.054  10.075  11.419  0.00  0.00    +0.000 A 
ATOM     33  H   UNL     1      42.577   8.036  10.705  0.00  0.00    +0.000 HD
ENDBRANCH  20  23
ENDBRANCH  18  19
ENDBRANCH   5  18
TORSDOF 6
ENDMDL
MODEL 3
REMARK VINA RESULT:    -8.723      2.079      2.919
REMARK INTER + INTRA:         -11.852
REMARK INTER:                 -10.985
REMARK INTRA:                  -0.867
REMARK UNBOUND:                -0.069
REMARK  Name = 
REMARK  7 active torsions:
REMARK  status: ('A' for Active; 'I' for Inactive)
REMARK    1  A    between atoms: C_1  and  N_2
REMARK    2  A    between atoms: N_2  and  C_3
REMARK    3  A    between atoms: C_3  and  C_4
REMARK    4  A    between atoms: C_8  and  C_9
REMARK    5  A    between atoms: C_9  and  N_10
REMARK    6  A    between atoms: C_11  and  C_13
REMARK    7  A    between atoms: C_24  and  C_26
REMARK                            x       y       z     vdW  Elec       q    Type
REMARK                         _______ _______ _______ _____ _____    ______ ____
ROOT
ATOM      1  C   UNL     1      46.004   6.580  11.817  0.00  0.00    +0.000 A 
ATOM      2  C   UNL     1      44.952   7.424  11.433  0.00  0.00    +0.000 A 
ATOM      3  C   UNL     1      44.907   8.742  11.883  0.00  0.00    +0.000 A 
ATOM      4  C   UNL     1      45.890   9.215  12.755  0.00  0.00    +0.000 A 
ATOM      5  C   UNL     1      46.925   8.374  13.185  0.00  0.00    +0.000 A 
ATOM      6  C   UNL     1      47.006   7.075  12.665  0.00  0.00    +0.000 A 
ENDROOT
BRANCH   1   7
ATOM      7  C   UNL     1      46.012   5.137  11.379  0.00  0.00    +0.000 C 
BRANCH   7   9
ATOM      8  C   UNL     1      44.050   4.474  12.865  0.00  0.00    +0.000 C 
ATOM      9  N   UNL     1      44.821   4.322  11.640  0.00  0.00    +0.000 N 
ATOM     10  C   UNL     1      44.304   3.421  10.691  0.00  0.00    +0.000 C 
ATOM     11  O   UNL     1      43.220   2.856  10.854  0.00  0.00    +0.000 OA
BRANCH  10  12
ATOM     12  C   UNL     1      45.043   3.135   9.423  0.00  0.00    +0.000 A 
ATOM     13  C   UNL     1      45.172   4.143   8.476  0.00  0.00    +0.000 A 
ATOM     14  N   UNL     1      45.829   3.959   7.299  0.00  0.00    +0.000 NA
ATOM     15  C   UNL     1      46.335   2.720   7.105  0.00  0.00    +0.000 A 
ATOM     16  C   UNL     1      46.197   1.710   8.042  0.00  0.00    +0.000 A 
ATOM     17  N   UNL     1      45.552   1.890   9.215  0.00  0.00    +0.000 NA
ENDBRANCH  10  12
ENDBRANCH   7   9
ENDBRANCH   1   7
BRANCH   5  18
ATOM     18  C   UNL     1      47.905   8.840  14.229  0.00  0.00    +0.000 C 
BRANCH  18  19
ATOM     19  N   UNL     1      48.095   7.867  15.270  0.00  0.00    +0.000 N 
ATOM     20  C   UNL     1      49.274   7.176  15.388  0.00  0.00    +0.000 C 
ATOM     21  O   UNL     1      50.234   7.387  14.651  0.00  0.00    +0.000 OA
ATOM     22  H   UNL     1      47.254   7.489  15.696  0.00  0.00    +0.000 HD
BRANCH  20  23
ATOM     23  C   UNL     1      49.350   6.217  16.495  0.00  0.00    +0.000 A 
ATOM     24  C   UNL     1      50.304   6.381  17.491  0.00  0.00    +0.000 A 
ATOM     25  S   UNL     1      50.200   5.217  18.733  0.00  0.00    +0.000 S 
ATOM     26  C   UNL     1      48.912   4.423  17.956  0.00  0.00    +0.000 A 
ATOM     27  N   UNL     1      48.348   3.308  18.494  0.00  0.00    +0.000 NA
ATOM     28  C   UNL     1      47.402   2.793  17.782  0.00  0.00    +0.000 A 
ATOM     29  N   UNL     1      46.963   3.289  16.581  0.00  0.00    +0.000 N 
ATOM     30  C   UNL     1      47.489   4.424  16.013  0.00  0.00    +0.000 A 
ATOM     31  O   UNL     1      47.052   4.859  14.951  0.00  0.00    +0.000 OA
ATOM     32  C   UNL     1      48.559   5.043  16.771  0.00  0.00    +0.000 A 
ATOM     33  H   UNL     1      46.216   2.843  16.080  0.00  0.00    +0.000 HD
ENDBRANCH  20  23
ENDBRANCH  18  19
ENDBRANCH   5  18
TORSDOF 6
ENDMDL
MODEL 4
REMARK VINA RESULT:    -8.576      3.387      8.465
REMARK INTER + INTRA:         -11.653
REMARK INTER:                 -10.895
REMARK INTRA:                  -0.758
REMARK UNBOUND:                -0.069
REMARK  Name = 
REMARK  7 active torsions:
REMARK  status: ('A' for Active; 'I' for Inactive)
REMARK    1  A    between atoms: C_1  and  N_2
REMARK    2  A    between atoms: N_2  and  C_3
REMARK    3  A    between atoms: C_3  and  C_4
REMARK    4  A    between atoms: C_8  and  C_9
REMARK    5  A    between atoms: C_9  and  N_10
REMARK    6  A    between atoms: C_11  and  C_13
REMARK    7  A    between atoms: C_24  and  C_26
REMARK                            x       y       z     vdW  Elec       q    Type
REMARK                         _______ _______ _______ _____ _____    ______ ____
ROOT
ATOM      1  C   UNL     1      48.968   5.645  18.369  0.00  0.00    +0.000 A 
ATOM      2  C   UNL     1      49.016   6.594  19.400  0.00  0.00    +0.000 A 
ATOM      3  C   UNL     1      48.953   7.954  19.108  0.00  0.00    +0.000 A 
ATOM      4  C   UNL     1      48.884   8.381  17.780  0.00  0.00    +0.000 A 
ATOM      5  C   UNL     1      48.879   7.450  16.733  0.00  0.00    +0.000 A 
ATOM      6  C   UNL     1      48.862   6.082  17.040  0.00  0.00    +0.000 A 
ENDROOT
BRANCH   1   7
ATOM      7  C   UNL     1      49.101   4.177  18.687  0.00  0.00    +0.000 C 
BRANCH   7   9
ATOM      8  C   UNL     1      47.310   3.120  17.213  0.00  0.00    +0.000 C 
ATOM      9  N   UNL     1      48.689   3.203  17.670  0.00  0.00    +0.000 N 
ATOM     10  C   UNL     1      49.611   2.365  17.016  0.00  0.00    +0.000 C 
ATOM     11  O   UNL     1      49.282   1.662  16.057  0.00  0.00    +0.000 OA
BRANCH  10  12
ATOM     12  C   UNL     1      51.042   2.317  17.444  0.00  0.00    +0.000 A 
ATOM     13  C   UNL     1      51.613   1.089  17.752  0.00  0.00    +0.000 A 
ATOM     14  N   UNL     1      52.908   0.965  18.150  0.00  0.00    +0.000 NA
ATOM     15  C   UNL     1      53.599   2.123  18.241  0.00  0.00    +0.000 A 
ATOM     16  C   UNL     1      53.030   3.350  17.946  0.00  0.00    +0.000 A 
ATOM     17  N   UNL     1      51.746   3.478  17.544  0.00  0.00    +0.000 NA
ENDBRANCH  10  12
ENDBRANCH   7   9
ENDBRANCH   1   7
BRANCH   5  18
ATOM     18  C   UNL     1      48.943   7.909  15.301  0.00  0.00    +0.000 C 
BRANCH  18  19
ATOM     19  N   UNL     1      47.771   7.538  14.556  0.00  0.00    +0.000 N 
ATOM     20  C   UNL     1      47.852   6.684  13.486  0.00  0.00    +0.000 C 
ATOM     21  O   UNL     1      48.908   6.158  13.146  0.00  0.00    +0.000 OA
ATOM     22  H   UNL     1      46.968   8.154  14.639  0.00  0.00    +0.000 HD
BRANCH  20  23
ATOM     23  C   UNL     1      46.586   6.374  12.813  0.00  0.00    +0.000 A 
ATOM     24  C   UNL     1      45.833   7.396  12.248  0.00  0.00    +0.000 A 
ATOM     25  S   UNL     1      44.432   6.847  11.446  0.00  0.00    +0.000 S 
ATOM     26  C   UNL     1      44.755   5.231  11.872  0.00  0.00    +0.000 A 
ATOM     27  N   UNL     1      43.915   4.228  11.503  0.00  0.00    +0.000 NA
ATOM     28  C   UNL     1      44.267   3.058  11.920  0.00  0.00    +0.000 A 
ATOM     29  N   UNL     1      45.384   2.795  12.672  0.00  0.00    +0.000 N 
ATOM     30  C   UNL     1      46.271   3.775  13.047  0.00  0.00    +0.000 A 
ATOM     31  O   UNL     1      47.278   3.502  13.694  0.00  0.00    +0.000 OA
ATOM     32  C   UNL     1      45.921   5.112  12.606  0.00  0.00    +0.000 A 
ATOM     33  H   UNL     1      45.605   1.859  12.959  0.00  0.00    +0.000 HD
ENDBRANCH  20  23
ENDBRANCH  18  19
ENDBRANCH   5  18
TORSDOF 6
ENDMDL
MODEL 5
REMARK VINA RESULT:    -8.506      1.677      2.107
REMARK INTER + INTRA:         -11.558
REMARK INTER:                 -10.526
REMARK INTRA:                  -1.033
REMARK UNBOUND:                -0.069
REMARK  Name = 
REMARK  7 active torsions:
REMARK  status: ('A' for Active; 'I' for Inactive)
REMARK    1  A    between atoms: C_1  and  N_2
REMARK    2  A    between atoms: N_2  and  C_3
REMARK    3  A    between atoms: C_3  and  C_4
REMARK    4  A    between atoms: C_8  and  C_9
REMARK    5  A    between atoms: C_9  and  N_10
REMARK    6  A    between atoms: C_11  and  C_13
REMARK    7  A    between atoms: C_24  and  C_26
REMARK                            x       y       z     vdW  Elec       q    Type
REMARK                         _______ _______ _______ _____ _____    ______ ____
ROOT
ATOM      1  C   UNL     1      46.841   5.609  12.696  0.00  0.00    +0.000 A 
ATOM      2  C   UNL     1      47.135   6.530  11.680  0.00  0.00    +0.000 A 
ATOM      3  C   UNL     1      48.003   7.591  11.922  0.00  0.00    +0.000 A 
ATOM      4  C   UNL     1      48.554   7.767  13.193  0.00  0.00    +0.000 A 
ATOM      5  C   UNL     1      48.240   6.882  14.233  0.00  0.00    +0.000 A 
ATOM      6  C   UNL     1      47.428   5.772  13.960  0.00  0.00    +0.000 A 
ENDROOT
BRANCH   1   7
ATOM      7  C   UNL     1      45.851   4.499  12.446  0.00  0.00    +0.000 C 
BRANCH   7   9
ATOM      8  C   UNL     1      43.597   5.519  13.057  0.00  0.00    +0.000 C 
ATOM      9  N   UNL     1      44.473   4.860  12.100  0.00  0.00    +0.000 N 
ATOM     10  C   UNL     1      43.951   4.678  10.806  0.00  0.00    +0.000 C 
ATOM     11  O   UNL     1      42.847   5.124  10.482  0.00  0.00    +0.000 OA
BRANCH  10  12
ATOM     12  C   UNL     1      44.735   3.956   9.757  0.00  0.00    +0.000 A 
ATOM     13  C   UNL     1      45.429   4.694   8.807  0.00  0.00    +0.000 A 
ATOM     14  N   UNL     1      46.162   4.109   7.822  0.00  0.00    +0.000 NA
ATOM     15  C   UNL     1      46.157   2.757   7.820  0.00  0.00    +0.000 A 
ATOM     16  C   UNL     1      45.457   2.019   8.759  0.00  0.00    +0.000 A 
ATOM     17  N   UNL     1      44.732   2.595   9.743  0.00  0.00    +0.000 NA
ENDBRANCH  10  12
ENDBRANCH   7   9
ENDBRANCH   1   7
BRANCH   5  18
ATOM     18  C   UNL     1      48.721   7.148  15.635  0.00  0.00    +0.000 C 
BRANCH  18  19
ATOM     19  N   UNL     1      49.823   6.301  16.002  0.00  0.00    +0.000 N 
ATOM     20  C   UNL     1      50.030   5.931  17.306  0.00  0.00    +0.000 C 
ATOM     21  O   UNL     1      49.264   6.259  18.209  0.00  0.00    +0.000 OA
ATOM     22  H   UNL     1      50.596   6.253  15.345  0.00  0.00    +0.000 HD
BRANCH  20  23
ATOM     23  C   UNL     1      51.182   5.058  17.553  0.00  0.00    +0.000 A 
ATOM     24  C   UNL     1      52.420   5.611  17.853  0.00  0.00    +0.000 A 
ATOM     25  S   UNL     1      53.625   4.450  18.180  0.00  0.00    +0.000 S 
ATOM     26  C   UNL     1      52.547   3.167  17.881  0.00  0.00    +0.000 A 
ATOM     27  N   UNL     1      52.955   1.873  17.973  0.00  0.00    +0.000 NA
ATOM     28  C   UNL     1      52.041   1.006  17.690  0.00  0.00    +0.000 A 
ATOM     29  N   UNL     1      50.754   1.311  17.324  0.00  0.00    +0.000 N 
ATOM     30  C   UNL     1      50.295   2.603  17.240  0.00  0.00    +0.000 A 
ATOM     31  O   UNL     1      49.129   2.840  16.940  0.00  0.00    +0.000 OA
ATOM     32  C   UNL     1      51.283   3.619  17.546  0.00  0.00    +0.000 A 
ATOM     33  H   UNL     1      50.089   0.586  17.123  0.00  0.00    +0.000 HD
ENDBRANCH  20  23
ENDBRANCH  18  19
ENDBRANCH   5  18
TORSDOF 6
ENDMDL
MODEL 6
REMARK VINA RESULT:    -8.223      3.214      8.590
REMARK INTER + INTRA:         -11.177
REMARK INTER:                  -9.916
REMARK INTRA:                  -1.261
REMARK UNBOUND:                -0.069
REMARK  Name = 
REMARK  7 active torsions:
REMARK  status: ('A' for Active; 'I' for Inactive)
REMARK    1  A    between atoms: C_1  and  N_2
REMARK    2  A    between atoms: N_2  and  C_3
REMARK    3  A    between atoms: C_3  and  C_4
REMARK    4  A    between atoms: C_8  and  C_9
REMARK    5  A    between atoms: C_9  and  N_10
REMARK    6  A    between atoms: C_11  and  C_13
REMARK    7  A    between atoms: C_24  and  C_26
REMARK                            x       y       z     vdW  Elec       q    Type
REMARK                         _______ _______ _______ _____ _____    ______ ____
ROOT
ATOM      1  C   UNL     1      49.769   7.643  14.310  0.00  0.00    +0.000 A 
ATOM      2  C   UNL     1      50.777   8.074  13.437  0.00  0.00    +0.000 A 
ATOM      3  C   UNL     1      50.450   8.619  12.198  0.00  0.00    +0.000 A 
ATOM      4  C   UNL     1      49.113   8.702  11.803  0.00  0.00    +0.000 A 
ATOM      5  C   UNL     1      48.092   8.237  12.643  0.00  0.00    +0.000 A 
ATOM      6  C   UNL     1      48.426   7.763  13.920  0.00  0.00    +0.000 A 
ENDROOT
BRANCH   1   7
ATOM      7  C   UNL     1      50.132   6.995  15.622  0.00  0.00    +0.000 C 
BRANCH   7   9
ATOM      8  C   UNL     1      49.318   8.737  17.295  0.00  0.00    +0.000 C 
ATOM      9  N   UNL     1      49.367   7.363  16.817  0.00  0.00    +0.000 N 
ATOM     10  C   UNL     1      48.566   6.437  17.511  0.00  0.00    +0.000 C 
ATOM     11  O   UNL     1      47.806   6.786  18.419  0.00  0.00    +0.000 OA
BRANCH  10  12
ATOM     12  C   UNL     1      48.584   4.986  17.151  0.00  0.00    +0.000 A 
ATOM     13  C   UNL     1      47.688   4.517  16.199  0.00  0.00    +0.000 A 
ATOM     14  N   UNL     1      47.643   3.211  15.819  0.00  0.00    +0.000 NA
ATOM     15  C   UNL     1      48.520   2.395  16.447  0.00  0.00    +0.000 A 
ATOM     16  C   UNL     1      49.406   2.858  17.405  0.00  0.00    +0.000 A 
ATOM     17  N   UNL     1      49.459   4.155  17.780  0.00  0.00    +0.000 NA
ENDBRANCH  10  12
ENDBRANCH   7   9
ENDBRANCH   1   7
BRANCH   5  18
ATOM     18  C   UNL     1      46.666   8.198  12.164  0.00  0.00    +0.000 C 
BRANCH  18  19
ATOM     19  N   UNL     1      46.207   6.856  11.926  0.00  0.00    +0.000 N 
ATOM     20  C   UNL     1      44.896   6.599  11.616  0.00  0.00    +0.000 C 
ATOM     21  O   UNL     1      44.068   7.496  11.476  0.00  0.00    +0.000 OA
ATOM     22  H   UNL     1      46.784   6.108  12.298  0.00  0.00    +0.000 HD
BRANCH  20  23
ATOM     23  C   UNL     1      44.553   5.192  11.387  0.00  0.00    +0.000 A 
ATOM     24  C   UNL     1      43.819   4.493  12.337  0.00  0.00    +0.000 A 
ATOM     25  S   UNL     1      43.451   2.894  11.875  0.00  0.00    +0.000 S 
ATOM     26  C   UNL     1      44.305   3.063  10.412  0.00  0.00    +0.000 A 
ATOM     27  N   UNL     1      44.399   2.030   9.533  0.00  0.00    +0.000 NA
ATOM     28  C   UNL     1      45.102   2.289   8.481  0.00  0.00    +0.000 A 
ATOM     29  N   UNL     1      45.720   3.487   8.224  0.00  0.00    +0.000 N 
ATOM     30  C   UNL     1      45.631   4.562   9.074  0.00  0.00    +0.000 A 
ATOM     31  O   UNL     1      46.171   5.630   8.799  0.00  0.00    +0.000 OA
ATOM     32  C   UNL     1      44.854   4.325  10.275  0.00  0.00    +0.000 A 
ATOM     33  H   UNL     1      46.247   3.625   7.381  0.00  0.00    +0.000 HD
ENDBRANCH  20  23
ENDBRANCH  18  19
ENDBRANCH   5  18
TORSDOF 6
ENDMDL
MODEL 7
REMARK VINA RESULT:    -8.150      2.464      3.031
REMARK INTER + INTRA:         -11.077
REMARK INTER:                 -11.164
REMARK INTRA:                   0.087
REMARK UNBOUND:                -0.069
REMARK  Name = 
REMARK  7 active torsions:
REMARK  status: ('A' for Active; 'I' for Inactive)
REMARK    1  A    between atoms: C_1  and  N_2
REMARK    2  A    between atoms: N_2  and  C_3
REMARK    3  A    between atoms: C_3  and  C_4
REMARK    4  A    between atoms: C_8  and  C_9
REMARK    5  A    between atoms: C_9  and  N_10
REMARK    6  A    between atoms: C_11  and  C_13
REMARK    7  A    between atoms: C_24  and  C_26
REMARK                            x       y       z     vdW  Elec       q    Type
REMARK                         _______ _______ _______ _____ _____    ______ ____
ROOT
ATOM      1  C   UNL     1      45.652   6.702  11.600  0.00  0.00    +0.000 A 
ATOM      2  C   UNL     1      45.073   7.954  11.851  0.00  0.00    +0.000 A 
ATOM      3  C   UNL     1      45.643   8.820  12.781  0.00  0.00    +0.000 A 
ATOM      4  C   UNL     1      46.775   8.427  13.499  0.00  0.00    +0.000 A 
ATOM      5  C   UNL     1      47.344   7.162  13.294  0.00  0.00    +0.000 A 
ATOM      6  C   UNL     1      46.810   6.330  12.300  0.00  0.00    +0.000 A 
ENDROOT
BRANCH   1   7
ATOM      7  C   UNL     1      44.993   5.743  10.641  0.00  0.00    +0.000 C 
BRANCH   7   9
ATOM      8  C   UNL     1      43.420   4.766  12.391  0.00  0.00    +0.000 C 
ATOM      9  N   UNL     1      44.232   4.619  11.192  0.00  0.00    +0.000 N 
ATOM     10  C   UNL     1      44.165   3.369  10.549  0.00  0.00    +0.000 C 
ATOM     11  O   UNL     1      43.402   2.479  10.934  0.00  0.00    +0.000 OA
BRANCH  10  12
ATOM     12  C   UNL     1      45.005   3.080   9.345  0.00  0.00    +0.000 A 
ATOM     13  C   UNL     1      45.212   4.087   8.411  0.00  0.00    +0.000 A 
ATOM     14  N   UNL     1      45.962   3.901   7.291  0.00  0.00    +0.000 NA
ATOM     15  C   UNL     1      46.479   2.661   7.140  0.00  0.00    +0.000 A 
ATOM     16  C   UNL     1      46.264   1.652   8.064  0.00  0.00    +0.000 A 
ATOM     17  N   UNL     1      45.526   1.834   9.181  0.00  0.00    +0.000 NA
ENDBRANCH  10  12
ENDBRANCH   7   9
ENDBRANCH   1   7
BRANCH   5  18
ATOM     18  C   UNL     1      48.477   6.684  14.162  0.00  0.00    +0.000 C 
BRANCH  18  19
ATOM     19  N   UNL     1      48.237   6.932  15.557  0.00  0.00    +0.000 N 
ATOM     20  C   UNL     1      49.113   6.493  16.517  0.00  0.00    +0.000 C 
ATOM     21  O   UNL     1      50.161   5.919  16.234  0.00  0.00    +0.000 OA
ATOM     22  H   UNL     1      47.280   7.146  15.821  0.00  0.00    +0.000 HD
BRANCH  20  23
ATOM     23  C   UNL     1      48.763   6.815  17.904  0.00  0.00    +0.000 A 
ATOM     24  C   UNL     1      48.492   8.129  18.265  0.00  0.00    +0.000 A 
ATOM     25  S   UNL     1      48.033   8.307  19.897  0.00  0.00    +0.000 S 
ATOM     26  C   UNL     1      48.232   6.643  20.192  0.00  0.00    +0.000 A 
ATOM     27  N   UNL     1      48.011   6.119  21.427  0.00  0.00    +0.000 NA
ATOM     28  C   UNL     1      48.230   4.849  21.514  0.00  0.00    +0.000 A 
ATOM     29  N   UNL     1      48.648   4.052  20.478  0.00  0.00    +0.000 N 
ATOM     30  C   UNL     1      48.862   4.536  19.210  0.00  0.00    +0.000 A 
ATOM     31  O   UNL     1      49.207   3.789  18.299  0.00  0.00    +0.000 OA
ATOM     32  C   UNL     1      48.632   5.960  19.058  0.00  0.00    +0.000 A 
ATOM     33  H   UNL     1      48.794   3.067  20.611  0.00  0.00    +0.000 HD
ENDBRANCH  20  23
ENDBRANCH  18  19
ENDBRANCH   5  18
TORSDOF 6
ENDMDL
MODEL 8
REMARK VINA RESULT:    -8.030      3.836      8.777
REMARK INTER + INTRA:         -10.915
REMARK INTER:                  -9.549
REMARK INTRA:                  -1.366
REMARK UNBOUND:                -0.069
REMARK  Name = 
REMARK  7 active torsions:
REMARK  status: ('A' for Active; 'I' for Inactive)
REMARK    1  A    between atoms: C_1  and  N_2
REMARK    2  A    between atoms: N_2  and  C_3
REMARK    3  A    between atoms: C_3  and  C_4
REMARK    4  A    between atoms: C_8  and  C_9
REMARK    5  A    between atoms: C_9  and  N_10
REMARK    6  A    between atoms: C_11  and  C_13
REMARK    7  A    between atoms: C_24  and  C_26
REMARK                            x       y       z     vdW  Elec       q    Type
REMARK                         _______ _______ _______ _____ _____    ______ ____
ROOT
ATOM      1  C   UNL     1      50.573   4.871  17.718  0.00  0.00    +0.000 A 
ATOM      2  C   UNL     1      51.357   3.709  17.751  0.00  0.00    +0.000 A 
ATOM      3  C   UNL     1      50.813   2.482  17.376  0.00  0.00    +0.000 A 
ATOM      4  C   UNL     1      49.470   2.398  17.004  0.00  0.00    +0.000 A 
ATOM      5  C   UNL     1      48.658   3.540  17.006  0.00  0.00    +0.000 A 
ATOM      6  C   UNL     1      49.233   4.783  17.308  0.00  0.00    +0.000 A 
ENDROOT
BRANCH   1   7
ATOM      7  C   UNL     1      51.148   6.184  18.186  0.00  0.00    +0.000 C 
BRANCH   7   9
ATOM      8  C   UNL     1      49.593   7.308  19.864  0.00  0.00    +0.000 C 
ATOM      9  N   UNL     1      50.222   7.260  18.552  0.00  0.00    +0.000 N 
ATOM     10  C   UNL     1      49.961   8.349  17.700  0.00  0.00    +0.000 C 
ATOM     11  O   UNL     1      49.305   9.324  18.074  0.00  0.00    +0.000 OA
BRANCH  10  12
ATOM     12  C   UNL     1      50.500   8.377  16.305  0.00  0.00    +0.000 A 
ATOM     13  C   UNL     1      51.710   9.015  16.063  0.00  0.00    +0.000 A 
ATOM     14  N   UNL     1      52.264   9.084  14.823  0.00  0.00    +0.000 NA
ATOM     15  C   UNL     1      51.547   8.503  13.835  0.00  0.00    +0.000 A 
ATOM     16  C   UNL     1      50.335   7.877  14.071  0.00  0.00    +0.000 A 
ATOM     17  N   UNL     1      49.784   7.800  15.303  0.00  0.00    +0.000 NA
ENDBRANCH  10  12
ENDBRANCH   7   9
ENDBRANCH   1   7
BRANCH   5  18
ATOM     18  C   UNL     1      47.181   3.429  16.739  0.00  0.00    +0.000 C 
BRANCH  18  19
ATOM     19  N   UNL     1      46.724   4.402  15.785  0.00  0.00    +0.000 N 
ATOM     20  C   UNL     1      46.800   4.164  14.437  0.00  0.00    +0.000 C 
ATOM     21  O   UNL     1      47.208   3.098  13.981  0.00  0.00    +0.000 OA
ATOM     22  H   UNL     1      46.650   5.360  16.116  0.00  0.00    +0.000 HD
BRANCH  20  23
ATOM     23  C   UNL     1      46.295   5.230  13.565  0.00  0.00    +0.000 A 
ATOM     24  C   UNL     1      47.083   6.343  13.302  0.00  0.00    +0.000 A 
ATOM     25  S   UNL     1      46.368   7.444  12.214  0.00  0.00    +0.000 S 
ATOM     26  C   UNL     1      44.958   6.498  12.099  0.00  0.00    +0.000 A 
ATOM     27  N   UNL     1      43.912   6.890  11.323  0.00  0.00    +0.000 NA
ATOM     28  C   UNL     1      42.897   6.092  11.354  0.00  0.00    +0.000 A 
ATOM     29  N   UNL     1      42.829   4.935  12.089  0.00  0.00    +0.000 N 
ATOM     30  C   UNL     1      43.870   4.491  12.868  0.00  0.00    +0.000 A 
ATOM     31  O   UNL     1      43.788   3.435  13.489  0.00  0.00    +0.000 OA
ATOM     32  C   UNL     1      45.037   5.353  12.871  0.00  0.00    +0.000 A 
ATOM     33  H   UNL     1      42.011   4.355  12.063  0.00  0.00    +0.000 HD
ENDBRANCH  20  23
ENDBRANCH  18  19
ENDBRANCH   5  18
TORSDOF 6
ENDMDL
MODEL 9
REMARK VINA RESULT:    -7.922      3.837      9.310
REMARK INTER + INTRA:         -10.770
REMARK INTER:                  -9.437
REMARK INTRA:                  -1.333
REMARK UNBOUND:                -0.069
REMARK  Name = 
REMARK  7 active torsions:
REMARK  status: ('A' for Active; 'I' for Inactive)
REMARK    1  A    between atoms: C_1  and  N_2
REMARK    2  A    between atoms: N_2  and  C_3
REMARK    3  A    between atoms: C_3  and  C_4
REMARK    4  A    between atoms: C_8  and  C_9
REMARK    5  A    between atoms: C_9  and  N_10
REMARK    6  A    between atoms: C_11  and  C_13
REMARK    7  A    between atoms: C_24  and  C_26
REMARK                            x       y       z     vdW  Elec       q    Type
REMARK                         _______ _______ _______ _____ _____    ______ ____
ROOT
ATOM      1  C   UNL     1      50.531   4.755  18.064  0.00  0.00    +0.000 A 
ATOM      2  C   UNL     1      51.344   3.619  17.933  0.00  0.00    +0.000 A 
ATOM      3  C   UNL     1      50.839   2.455  17.360  0.00  0.00    +0.000 A 
ATOM      4  C   UNL     1      49.505   2.400  16.949  0.00  0.00    +0.000 A 
ATOM      5  C   UNL     1      48.665   3.510  17.110  0.00  0.00    +0.000 A 
ATOM      6  C   UNL     1      49.203   4.702  17.615  0.00  0.00    +0.000 A 
ENDROOT
BRANCH   1   7
ATOM      7  C   UNL     1      51.065   5.990  18.744  0.00  0.00    +0.000 C 
BRANCH   7   9
ATOM      8  C   UNL     1      50.160   5.998  21.127  0.00  0.00    +0.000 C 
ATOM      9  N   UNL     1      50.261   6.603  19.807  0.00  0.00    +0.000 N 
ATOM     10  C   UNL     1      49.624   7.847  19.644  0.00  0.00    +0.000 C 
ATOM     11  O   UNL     1      49.081   8.427  20.589  0.00  0.00    +0.000 OA
BRANCH  10  12
ATOM     12  C   UNL     1      49.606   8.532  18.316  0.00  0.00    +0.000 A 
ATOM     13  C   UNL     1      48.546   8.294  17.449  0.00  0.00    +0.000 A 
ATOM     14  N   UNL     1      48.460   8.879  16.224  0.00  0.00    +0.000 NA
ATOM     15  C   UNL     1      49.486   9.696  15.899  0.00  0.00    +0.000 A 
ATOM     16  C   UNL     1      50.550   9.925  16.755  0.00  0.00    +0.000 A 
ATOM     17  N   UNL     1      50.636   9.352  17.976  0.00  0.00    +0.000 NA
ENDBRANCH  10  12
ENDBRANCH   7   9
ENDBRANCH   1   7
BRANCH   5  18
ATOM     18  C   UNL     1      47.196   3.409  16.796  0.00  0.00    +0.000 C 
BRANCH  18  19
ATOM     19  N   UNL     1      46.771   4.408  15.854  0.00  0.00    +0.000 N 
ATOM     20  C   UNL     1      46.858   4.190  14.502  0.00  0.00    +0.000 C 
ATOM     21  O   UNL     1      47.250   3.124  14.034  0.00  0.00    +0.000 OA
ATOM     22  H   UNL     1      46.711   5.361  16.199  0.00  0.00    +0.000 HD
BRANCH  20  23
ATOM     23  C   UNL     1      46.385   5.280  13.643  0.00  0.00    +0.000 A 
ATOM     24  C   UNL     1      47.203   6.375  13.396  0.00  0.00    +0.000 A 
ATOM     25  S   UNL     1      46.521   7.508  12.321  0.00  0.00    +0.000 S 
ATOM     26  C   UNL     1      45.087   6.603  12.189  0.00  0.00    +0.000 A 
ATOM     27  N   UNL     1      44.055   7.032  11.415  0.00  0.00    +0.000 NA
ATOM     28  C   UNL     1      43.019   6.262  11.432  0.00  0.00    +0.000 A 
ATOM     29  N   UNL     1      42.917   5.098  12.152  0.00  0.00    +0.000 N 
ATOM     30  C   UNL     1      43.943   4.616  12.929  0.00  0.00    +0.000 A 
ATOM     31  O   UNL     1      43.831   3.555  13.536  0.00  0.00    +0.000 OA
ATOM     32  C   UNL     1      45.132   5.446  12.947  0.00  0.00    +0.000 A 
ATOM     33  H   UNL     1      42.084   4.540  12.117  0.00  0.00    +0.000 HD
ENDBRANCH  20  23
ENDBRANCH  18  19
ENDBRANCH   5  18
TORSDOF 6
ENDMDL
