MODEL 1
REMARK VINA RESULT:    -8.132      0.000      0.000
REMARK INTER + INTRA:         -13.004
REMARK INTER:                 -11.935
REMARK INTRA:                  -1.069
REMARK UNBOUND:                -1.069
REMARK  Name = 
REMARK  10 active torsions:
REMARK  status: ('A' for Active; 'I' for Inactive)
REMARK    1  A    between atoms: C_1  and  C_2
REMARK    2  A    between atoms: C_2  and  O_3
REMARK    3  A    between atoms: O_3  and  C_4
REMARK    4  A    between atoms: C_6  and  C_7
REMARK    5  A    between atoms: C_7  and  C_8
REMARK    6  A    between atoms: C_8  and  N_9
REMARK    7  A    between atoms: C_13  and  C_14
REMARK    8  A    between atoms: C_20  and  C_21
REMARK    9  A    between atoms: C_25  and  O_26
REMARK   10  A    between atoms: O_26  and  C_27
REMARK                            x       y       z     vdW  Elec       q    Type
REMARK                         _______ _______ _______ _____ _____    ______ ____
ROOT
ATOM      1  C   UNL     1      46.885   4.702  14.026  0.00  0.00    +0.000 A 
ATOM      2  C   UNL     1      45.555   4.623  13.626  0.00  0.00    +0.000 A 
ATOM      3  C   UNL     1      45.075   5.553  12.700  0.00  0.00    +0.000 A 
ATOM      4  C   UNL     1      45.975   6.531  12.261  0.00  0.00    +0.000 A 
ATOM      5  C   UNL     1      47.289   6.565  12.729  0.00  0.00    +0.000 A 
ATOM      6  N   UNL     1      47.747   5.657  13.616  0.00  0.00    +0.000 NA
ENDROOT
BRANCH   5   7
ATOM      7  C   UNL     1      48.245   7.590  12.283  0.00  0.00    +0.000 A 
ATOM      8  C   UNL     1      47.864   8.921  12.135  0.00  0.00    +0.000 A 
ATOM      9  N   UNL     1      48.679   9.915  11.706  0.00  0.00    +0.000 NA
ATOM     10  C   UNL     1      49.951   9.564  11.410  0.00  0.00    +0.000 A 
ATOM     11  C   UNL     1      50.456   8.275  11.520  0.00  0.00    +0.000 A 
ATOM     12  C   UNL     1      49.584   7.286  11.968  0.00  0.00    +0.000 A 
BRANCH  11  13
ATOM     13  O   UNL     1      51.765   8.098  11.176  0.00  0.00    +0.000 OA
ATOM     14  C   UNL     1      52.742   8.572  12.096  0.00  0.00    +0.000 C 
ENDBRANCH  11  13
ENDBRANCH   5   7
BRANCH   1  15
ATOM     15  O   UNL     1      47.330   3.729  14.899  0.00  0.00    +0.000 OA
BRANCH  15  17
ATOM     16  C   UNL     1      47.338   3.138  17.209  0.00  0.00    +0.000 C 
ATOM     17  C   UNL     1      47.592   4.250  16.208  0.00  0.00    +0.000 C 
ENDBRANCH  15  17
ENDBRANCH   1  15
BRANCH   3  18
ATOM     18  C   UNL     1      43.642   5.484  12.194  0.00  0.00    +0.000 C 
BRANCH  18  19
ATOM     19  C   UNL     1      43.514   5.005  10.735  0.00  0.00    +0.000 C 
BRANCH  19  20
ATOM     20  N   UNL     1      43.743   3.568  10.567  0.00  0.00    +0.000 N 
ATOM     21  C   UNL     1      44.690   3.310   9.542  0.00  0.00    +0.000 A 
ATOM     22  C   UNL     1      45.034   1.989   9.216  0.00  0.00    +0.000 A 
ATOM     23  N   UNL     1      45.916   1.645   8.236  0.00  0.00    +0.000 NA
ATOM     24  C   UNL     1      46.472   2.702   7.582  0.00  0.00    +0.000 A 
ATOM     25  C   UNL     1      46.162   4.012   7.904  0.00  0.00    +0.000 A 
ATOM     26  N   UNL     1      45.280   4.335   8.884  0.00  0.00    +0.000 NA
ATOM     27  H   UNL     1      42.885   3.069  10.342  0.00  0.00    +0.000 HD
BRANCH  24  28
ATOM     28  C   UNL     1      47.435   2.429   6.479  0.00  0.00    +0.000 C 
ATOM     29  N   UNL     1      47.258   3.140   5.327  0.00  0.00    +0.000 N 
ATOM     30  O   UNL     1      48.345   1.617   6.599  0.00  0.00    +0.000 OA
ATOM     31  H   UNL     1      46.502   3.809   5.245  0.00  0.00    +0.000 HD
ATOM     32  H   UNL     1      47.895   2.994   4.554  0.00  0.00    +0.000 HD
ENDBRANCH  24  28
ENDBRANCH  19  20
ENDBRANCH  18  19
ENDBRANCH   3  18
TORSDOF 8
ENDMDL
MODEL 2
REMARK VINA RESULT:    -7.671      1.662      4.384
REMARK INTER + INTRA:         -12.327
REMARK INTER:                 -11.178
REMARK INTRA:                  -1.149
REMARK UNBOUND:                -1.069
REMARK  Name = 
REMARK  10 active torsions:
REMARK  status: ('A' for Active; 'I' for Inactive)
REMARK    1  A    between atoms: C_1  and  C_2
REMARK    2  A    between atoms: C_2  and  O_3
REMARK    3  A    between atoms: O_3  and  C_4
REMARK    4  A    between atoms: C_6  and  C_7
REMARK    5  A    between atoms: C_7  and  C_8
REMARK    6  A    between atoms: C_8  and  N_9
REMARK    7  A    between atoms: C_13  and  C_14
REMARK    8  A    between atoms: C_20  and  C_21
REMARK    9  A    between atoms: C_25  and  O_26
REMARK   10  A    between atoms: O_26  and  C_27
REMARK                            x       y       z     vdW  Elec       q    Type
REMARK                         _______ _______ _______ _____ _____    ______ ____
ROOT
ATOM      1  C   UNL     1      47.439   6.647  12.075  0.00  0.00    +0.000 A 
ATOM      2  C   UNL     1      46.130   6.506  11.626  0.00  0.00    +0.000 A 
ATOM      3  C   UNL     1      45.224   5.789  12.411  0.00  0.00    +0.000 A 
ATOM      4  C   UNL     1      45.717   5.227  13.595  0.00  0.00    +0.000 A 
ATOM      5  C   UNL     1      47.053   5.386  13.966  0.00  0.00    +0.000 A 
ATOM      6  N   UNL     1      47.919   6.090  13.207  0.00  0.00    +0.000 NA
ENDROOT
BRANCH   5   7
ATOM      7  C   UNL     1      47.590   4.798  15.203  0.00  0.00    +0.000 A 
ATOM      8  C   UNL     1      47.260   3.500  15.590  0.00  0.00    +0.000 A 
ATOM      9  N   UNL     1      47.694   2.900  16.725  0.00  0.00    +0.000 NA
ATOM     10  C   UNL     1      48.506   3.632  17.520  0.00  0.00    +0.000 A 
ATOM     11  C   UNL     1      48.912   4.931  17.246  0.00  0.00    +0.000 A 
ATOM     12  C   UNL     1      48.446   5.508  16.067  0.00  0.00    +0.000 A 
BRANCH  11  13
ATOM     13  O   UNL     1      49.733   5.524  18.161  0.00  0.00    +0.000 OA
ATOM     14  C   UNL     1      50.718   4.698  18.773  0.00  0.00    +0.000 C 
ENDBRANCH  11  13
ENDBRANCH   5   7
BRANCH   1  15
ATOM     15  O   UNL     1      48.285   7.411  11.295  0.00  0.00    +0.000 OA
BRANCH  15  17
ATOM     16  C   UNL     1      48.049   9.680  11.987  0.00  0.00    +0.000 C 
ATOM     17  C   UNL     1      48.931   8.446  12.045  0.00  0.00    +0.000 C 
ENDBRANCH  15  17
ENDBRANCH   1  15
BRANCH   3  18
ATOM     18  C   UNL     1      43.769   5.644  11.990  0.00  0.00    +0.000 C 
BRANCH  18  19
ATOM     19  C   UNL     1      43.578   5.043  10.585  0.00  0.00    +0.000 C 
BRANCH  19  20
ATOM     20  N   UNL     1      43.879   3.610  10.514  0.00  0.00    +0.000 N 
ATOM     21  C   UNL     1      44.794   3.324   9.468  0.00  0.00    +0.000 A 
ATOM     22  C   UNL     1      45.197   2.001   9.227  0.00  0.00    +0.000 A 
ATOM     23  N   UNL     1      46.053   1.628   8.236  0.00  0.00    +0.000 NA
ATOM     24  C   UNL     1      46.523   2.659   7.479  0.00  0.00    +0.000 A 
ATOM     25  C   UNL     1      46.155   3.972   7.716  0.00  0.00    +0.000 A 
ATOM     26  N   UNL     1      45.298   4.324   8.709  0.00  0.00    +0.000 NA
ATOM     27  H   UNL     1      43.041   3.053  10.367  0.00  0.00    +0.000 HD
BRANCH  24  28
ATOM     28  C   UNL     1      47.451   2.352   6.356  0.00  0.00    +0.000 C 
ATOM     29  N   UNL     1      47.341   3.135   5.243  0.00  0.00    +0.000 N 
ATOM     30  O   UNL     1      48.279   1.451   6.427  0.00  0.00    +0.000 OA
ATOM     31  H   UNL     1      46.653   3.877   5.201  0.00  0.00    +0.000 HD
ATOM     32  H   UNL     1      47.958   2.969   4.459  0.00  0.00    +0.000 HD
ENDBRANCH  24  28
ENDBRANCH  19  20
ENDBRANCH  18  19
ENDBRANCH   3  18
TORSDOF 8
ENDMDL
MODEL 3
REMARK VINA RESULT:    -7.015      3.292      8.223
REMARK INTER + INTRA:         -11.365
REMARK INTER:                 -10.316
REMARK INTRA:                  -1.049
REMARK UNBOUND:                -1.069
REMARK  Name = 
REMARK  10 active torsions:
REMARK  status: ('A' for Active; 'I' for Inactive)
REMARK    1  A    between atoms: C_1  and  C_2
REMARK    2  A    between atoms: C_2  and  O_3
REMARK    3  A    between atoms: O_3  and  C_4
REMARK    4  A    between atoms: C_6  and  C_7
REMARK    5  A    between atoms: C_7  and  C_8
REMARK    6  A    between atoms: C_8  and  N_9
REMARK    7  A    between atoms: C_13  and  C_14
REMARK    8  A    between atoms: C_20  and  C_21
REMARK    9  A    between atoms: C_25  and  O_26
REMARK   10  A    between atoms: O_26  and  C_27
REMARK                            x       y       z     vdW  Elec       q    Type
REMARK                         _______ _______ _______ _____ _____    ______ ____
ROOT
ATOM      1  C   UNL     1      44.740   9.235  11.485  0.00  0.00    +0.000 A 
ATOM      2  C   UNL     1      45.965   9.602  12.034  0.00  0.00    +0.000 A 
ATOM      3  C   UNL     1      46.806   8.602  12.528  0.00  0.00    +0.000 A 
ATOM      4  C   UNL     1      46.334   7.286  12.462  0.00  0.00    +0.000 A 
ATOM      5  C   UNL     1      45.080   6.996  11.922  0.00  0.00    +0.000 A 
ATOM      6  N   UNL     1      44.276   7.968  11.438  0.00  0.00    +0.000 NA
ENDROOT
BRANCH   5   7
ATOM      7  C   UNL     1      44.564   5.621  11.852  0.00  0.00    +0.000 A 
ATOM      8  C   UNL     1      44.075   4.971  12.983  0.00  0.00    +0.000 A 
ATOM      9  N   UNL     1      43.609   3.699  13.003  0.00  0.00    +0.000 NA
ATOM     10  C   UNL     1      43.626   3.034  11.825  0.00  0.00    +0.000 A 
ATOM     11  C   UNL     1      44.082   3.569  10.628  0.00  0.00    +0.000 A 
ATOM     12  C   UNL     1      44.549   4.881  10.653  0.00  0.00    +0.000 A 
BRANCH  11  13
ATOM     13  O   UNL     1      44.030   2.756   9.533  0.00  0.00    +0.000 OA
ATOM     14  C   UNL     1      44.752   3.179   8.381  0.00  0.00    +0.000 C 
ENDBRANCH  11  13
ENDBRANCH   5   7
BRANCH   1  15
ATOM     15  O   UNL     1      43.966  10.250  10.958  0.00  0.00    +0.000 OA
BRANCH  15  17
ATOM     16  C   UNL     1      41.986  10.924   9.814  0.00  0.00    +0.000 C 
ATOM     17  C   UNL     1      42.664   9.796  10.569  0.00  0.00    +0.000 C 
ENDBRANCH  15  17
ENDBRANCH   1  15
BRANCH   3  18
ATOM     18  C   UNL     1      48.175   8.944  13.096  0.00  0.00    +0.000 C 
BRANCH  18  19
ATOM     19  C   UNL     1      49.066   7.717  13.370  0.00  0.00    +0.000 C 
BRANCH  19  20
ATOM     20  N   UNL     1      49.627   7.689  14.723  0.00  0.00    +0.000 N 
ATOM     21  C   UNL     1      49.106   6.607  15.478  0.00  0.00    +0.000 A 
ATOM     22  C   UNL     1      49.510   6.417  16.809  0.00  0.00    +0.000 A 
ATOM     23  N   UNL     1      49.050   5.420  17.616  0.00  0.00    +0.000 NA
ATOM     24  C   UNL     1      48.155   4.582  17.022  0.00  0.00    +0.000 A 
ATOM     25  C   UNL     1      47.762   4.739  15.705  0.00  0.00    +0.000 A 
ATOM     26  N   UNL     1      48.231   5.740  14.916  0.00  0.00    +0.000 NA
ATOM     27  H   UNL     1      49.441   8.551  15.230  0.00  0.00    +0.000 HD
BRANCH  24  28
ATOM     28  C   UNL     1      47.579   3.471  17.829  0.00  0.00    +0.000 C 
ATOM     29  N   UNL     1      48.182   3.212  19.026  0.00  0.00    +0.000 N 
ATOM     30  O   UNL     1      46.608   2.828  17.447  0.00  0.00    +0.000 OA
ATOM     31  H   UNL     1      48.982   3.754  19.329  0.00  0.00    +0.000 HD
ATOM     32  H   UNL     1      47.818   2.472  19.613  0.00  0.00    +0.000 HD
ENDBRANCH  24  28
ENDBRANCH  19  20
ENDBRANCH  18  19
ENDBRANCH   3  18
TORSDOF 8
ENDMDL
MODEL 4
REMARK VINA RESULT:    -6.896      2.344      3.649
REMARK INTER + INTRA:         -11.191
REMARK INTER:                 -10.805
REMARK INTRA:                  -0.386
REMARK UNBOUND:                -1.069
REMARK  Name = 
REMARK  10 active torsions:
REMARK  status: ('A' for Active; 'I' for Inactive)
REMARK    1  A    between atoms: C_1  and  C_2
REMARK    2  A    between atoms: C_2  and  O_3
REMARK    3  A    between atoms: O_3  and  C_4
REMARK    4  A    between atoms: C_6  and  C_7
REMARK    5  A    between atoms: C_7  and  C_8
REMARK    6  A    between atoms: C_8  and  N_9
REMARK    7  A    between atoms: C_13  and  C_14
REMARK    8  A    between atoms: C_20  and  C_21
REMARK    9  A    between atoms: C_25  and  O_26
REMARK   10  A    between atoms: O_26  and  C_27
REMARK                            x       y       z     vdW  Elec       q    Type
REMARK                         _______ _______ _______ _____ _____    ______ ____
ROOT
ATOM      1  C   UNL     1      44.804   7.941  11.717  0.00  0.00    +0.000 A 
ATOM      2  C   UNL     1      44.002   6.806  11.755  0.00  0.00    +0.000 A 
ATOM      3  C   UNL     1      44.457   5.686  12.456  0.00  0.00    +0.000 A 
ATOM      4  C   UNL     1      45.721   5.780  13.050  0.00  0.00    +0.000 A 
ATOM      5  C   UNL     1      46.482   6.945  12.944  0.00  0.00    +0.000 A 
ATOM      6  N   UNL     1      46.031   8.026  12.273  0.00  0.00    +0.000 NA
ENDROOT
BRANCH   5   7
ATOM      7  C   UNL     1      47.815   7.059  13.555  0.00  0.00    +0.000 A 
ATOM      8  C   UNL     1      48.123   6.409  14.749  0.00  0.00    +0.000 A 
ATOM      9  N   UNL     1      49.318   6.487  15.385  0.00  0.00    +0.000 NA
ATOM     10  C   UNL     1      50.263   7.255  14.796  0.00  0.00    +0.000 A 
ATOM     11  C   UNL     1      50.084   7.948  13.608  0.00  0.00    +0.000 A 
ATOM     12  C   UNL     1      48.842   7.836  12.986  0.00  0.00    +0.000 A 
BRANCH  11  13
ATOM     13  O   UNL     1      51.146   8.678  13.156  0.00  0.00    +0.000 OA
ATOM     14  C   UNL     1      52.205   8.910  14.078  0.00  0.00    +0.000 C 
ENDBRANCH  11  13
ENDBRANCH   5   7
BRANCH   1  15
ATOM     15  O   UNL     1      44.291   9.043  11.060  0.00  0.00    +0.000 OA
BRANCH  15  17
ATOM     16  C   UNL     1      44.122  11.414  10.881  0.00  0.00    +0.000 C 
ATOM     17  C   UNL     1      44.504  10.259  11.788  0.00  0.00    +0.000 C 
ENDBRANCH  15  17
ENDBRANCH   1  15
BRANCH   3  18
ATOM     18  C   UNL     1      43.599   4.434  12.570  0.00  0.00    +0.000 C 
BRANCH  18  19
ATOM     19  C   UNL     1      43.274   3.771  11.218  0.00  0.00    +0.000 C 
BRANCH  19  20
ATOM     20  N   UNL     1      43.733   4.543  10.060  0.00  0.00    +0.000 N 
ATOM     21  C   UNL     1      44.630   3.792   9.258  0.00  0.00    +0.000 A 
ATOM     22  C   UNL     1      45.194   4.364   8.107  0.00  0.00    +0.000 A 
ATOM     23  N   UNL     1      46.078   3.729   7.288  0.00  0.00    +0.000 NA
ATOM     24  C   UNL     1      46.377   2.453   7.663  0.00  0.00    +0.000 A 
ATOM     25  C   UNL     1      45.813   1.865   8.781  0.00  0.00    +0.000 A 
ATOM     26  N   UNL     1      44.934   2.515   9.586  0.00  0.00    +0.000 NA
ATOM     27  H   UNL     1      44.196   5.405  10.337  0.00  0.00    +0.000 HD
BRANCH  24  28
ATOM     28  C   UNL     1      47.350   1.681   6.843  0.00  0.00    +0.000 C 
ATOM     29  N   UNL     1      48.452   2.360   6.407  0.00  0.00    +0.000 N 
ATOM     30  O   UNL     1      47.180   0.496   6.579  0.00  0.00    +0.000 OA
ATOM     31  H   UNL     1      48.579   3.338   6.635  0.00  0.00    +0.000 HD
ATOM     32  H   UNL     1      49.146   1.872   5.854  0.00  0.00    +0.000 HD
ENDBRANCH  24  28
ENDBRANCH  19  20
ENDBRANCH  18  19
ENDBRANCH   3  18
TORSDOF 8
ENDMDL
MODEL 5
REMARK VINA RESULT:    -6.556      3.478      8.730
REMARK INTER + INTRA:         -10.691
REMARK INTER:                  -9.749
REMARK INTRA:                  -0.941
REMARK UNBOUND:                -1.069
REMARK  Name = 
REMARK  10 active torsions:
REMARK  status: ('A' for Active; 'I' for Inactive)
REMARK    1  A    between atoms: C_1  and  C_2
REMARK    2  A    between atoms: C_2  and  O_3
REMARK    3  A    between atoms: O_3  and  C_4
REMARK    4  A    between atoms: C_6  and  C_7
REMARK    5  A    between atoms: C_7  and  C_8
REMARK    6  A    between atoms: C_8  and  N_9
REMARK    7  A    between atoms: C_13  and  C_14
REMARK    8  A    between atoms: C_20  and  C_21
REMARK    9  A    between atoms: C_25  and  O_26
REMARK   10  A    between atoms: O_26  and  C_27
REMARK                            x       y       z     vdW  Elec       q    Type
REMARK                         _______ _______ _______ _____ _____    ______ ____
ROOT
ATOM      1  C   UNL     1      45.611   8.902  12.139  0.00  0.00    +0.000 A 
ATOM      2  C   UNL     1      46.972   9.012  12.403  0.00  0.00    +0.000 A 
ATOM      3  C   UNL     1      47.726   7.844  12.543  0.00  0.00    +0.000 A 
ATOM      4  C   UNL     1      47.038   6.629  12.437  0.00  0.00    +0.000 A 
ATOM      5  C   UNL     1      45.664   6.597  12.199  0.00  0.00    +0.000 A 
ATOM      6  N   UNL     1      44.944   7.731  12.055  0.00  0.00    +0.000 NA
ENDROOT
BRANCH   5   7
ATOM      7  C   UNL     1      44.924   5.331  12.092  0.00  0.00    +0.000 A 
ATOM      8  C   UNL     1      44.268   4.780  13.191  0.00  0.00    +0.000 A 
ATOM      9  N   UNL     1      43.589   3.607  13.177  0.00  0.00    +0.000 NA
ATOM     10  C   UNL     1      43.558   2.944  11.998  0.00  0.00    +0.000 A 
ATOM     11  C   UNL     1      44.166   3.388  10.832  0.00  0.00    +0.000 A 
ATOM     12  C   UNL     1      44.849   4.600  10.891  0.00  0.00    +0.000 A 
BRANCH  11  13
ATOM     13  O   UNL     1      44.036   2.591   9.731  0.00  0.00    +0.000 OA
ATOM     14  C   UNL     1      45.227   2.280   9.017  0.00  0.00    +0.000 C 
ENDBRANCH  11  13
ENDBRANCH   5   7
BRANCH   1  15
ATOM     15  O   UNL     1      44.917  10.081  11.952  0.00  0.00    +0.000 OA
BRANCH  15  17
ATOM     16  C   UNL     1      42.987  11.172  11.075  0.00  0.00    +0.000 C 
ATOM     17  C   UNL     1      43.890   9.958  10.961  0.00  0.00    +0.000 C 
ENDBRANCH  15  17
ENDBRANCH   1  15
BRANCH   3  18
ATOM     18  C   UNL     1      49.227   7.907  12.787  0.00  0.00    +0.000 C 
BRANCH  18  19
ATOM     19  C   UNL     1      49.680   7.226  14.092  0.00  0.00    +0.000 C 
BRANCH  19  20
ATOM     20  N   UNL     1      49.188   7.890  15.303  0.00  0.00    +0.000 N 
ATOM     21  C   UNL     1      49.093   6.983  16.389  0.00  0.00    +0.000 A 
ATOM     22  C   UNL     1      48.625   7.424  17.637  0.00  0.00    +0.000 A 
ATOM     23  N   UNL     1      48.482   6.623  18.730  0.00  0.00    +0.000 NA
ATOM     24  C   UNL     1      48.850   5.327  18.531  0.00  0.00    +0.000 A 
ATOM     25  C   UNL     1      49.335   4.878  17.315  0.00  0.00    +0.000 A 
ATOM     26  N   UNL     1      49.470   5.692  16.237  0.00  0.00    +0.000 NA
ATOM     27  H   UNL     1      48.274   8.313  15.159  0.00  0.00    +0.000 HD
BRANCH  24  28
ATOM     28  C   UNL     1      48.711   4.368  19.661  0.00  0.00    +0.000 C 
ATOM     29  N   UNL     1      48.326   3.098  19.338  0.00  0.00    +0.000 N 
ATOM     30  O   UNL     1      48.941   4.693  20.821  0.00  0.00    +0.000 OA
ATOM     31  H   UNL     1      48.142   2.844  18.375  0.00  0.00    +0.000 HD
ATOM     32  H   UNL     1      48.228   2.409  20.073  0.00  0.00    +0.000 HD
ENDBRANCH  24  28
ENDBRANCH  19  20
ENDBRANCH  18  19
ENDBRANCH   3  18
TORSDOF 8
ENDMDL
MODEL 6
REMARK VINA RESULT:    -6.532      3.542      7.179
REMARK INTER + INTRA:         -10.656
REMARK INTER:                  -9.552
REMARK INTRA:                  -1.104
REMARK UNBOUND:                -1.069
REMARK  Name = 
REMARK  10 active torsions:
REMARK  status: ('A' for Active; 'I' for Inactive)
REMARK    1  A    between atoms: C_1  and  C_2
REMARK    2  A    between atoms: C_2  and  O_3
REMARK    3  A    between atoms: O_3  and  C_4
REMARK    4  A    between atoms: C_6  and  C_7
REMARK    5  A    between atoms: C_7  and  C_8
REMARK    6  A    between atoms: C_8  and  N_9
REMARK    7  A    between atoms: C_13  and  C_14
REMARK    8  A    between atoms: C_20  and  C_21
REMARK    9  A    between atoms: C_25  and  O_26
REMARK   10  A    between atoms: O_26  and  C_27
REMARK                            x       y       z     vdW  Elec       q    Type
REMARK                         _______ _______ _______ _____ _____    ______ ____
ROOT
ATOM      1  C   UNL     1      48.001   5.646  14.941  0.00  0.00    +0.000 A 
ATOM      2  C   UNL     1      48.571   6.872  14.615  0.00  0.00    +0.000 A 
ATOM      3  C   UNL     1      48.034   7.600  13.551  0.00  0.00    +0.000 A 
ATOM      4  C   UNL     1      46.966   7.017  12.859  0.00  0.00    +0.000 A 
ATOM      5  C   UNL     1      46.465   5.768  13.226  0.00  0.00    +0.000 A 
ATOM      6  N   UNL     1      46.983   5.075  14.263  0.00  0.00    +0.000 NA
ENDROOT
BRANCH   5   7
ATOM      7  C   UNL     1      45.348   5.137  12.507  0.00  0.00    +0.000 A 
ATOM      8  C   UNL     1      44.292   4.538  13.190  0.00  0.00    +0.000 A 
ATOM      9  N   UNL     1      43.243   3.915  12.599  0.00  0.00    +0.000 NA
ATOM     10  C   UNL     1      43.243   3.891  11.246  0.00  0.00    +0.000 A 
ATOM     11  C   UNL     1      44.231   4.454  10.451  0.00  0.00    +0.000 A 
ATOM     12  C   UNL     1      45.288   5.087  11.101  0.00  0.00    +0.000 A 
BRANCH  11  13
ATOM     13  O   UNL     1      44.073   4.335   9.100  0.00  0.00    +0.000 OA
ATOM     14  C   UNL     1      45.192   3.857   8.361  0.00  0.00    +0.000 C 
ENDBRANCH  11  13
ENDBRANCH   5   7
BRANCH   1  15
ATOM     15  O   UNL     1      48.528   4.987  16.035  0.00  0.00    +0.000 OA
BRANCH  15  17
ATOM     16  C   UNL     1      48.378   2.782  16.929  0.00  0.00    +0.000 C 
ATOM     17  C   UNL     1      47.606   4.047  16.600  0.00  0.00    +0.000 C 
ENDBRANCH  15  17
ENDBRANCH   1  15
BRANCH   3  18
ATOM     18  C   UNL     1      48.589   8.968  13.181  0.00  0.00    +0.000 C 
BRANCH  18  19
ATOM     19  C   UNL     1      48.033   9.535  11.861  0.00  0.00    +0.000 C 
BRANCH  19  20
ATOM     20  N   UNL     1      47.412  10.855  12.005  0.00  0.00    +0.000 N 
ATOM     21  C   UNL     1      46.017  10.802  11.754  0.00  0.00    +0.000 A 
ATOM     22  C   UNL     1      45.243  11.971  11.826  0.00  0.00    +0.000 A 
ATOM     23  N   UNL     1      43.903  12.020  11.582  0.00  0.00    +0.000 NA
ATOM     24  C   UNL     1      43.342  10.819  11.270  0.00  0.00    +0.000 A 
ATOM     25  C   UNL     1      44.085   9.652  11.216  0.00  0.00    +0.000 A 
ATOM     26  N   UNL     1      45.420   9.623  11.461  0.00  0.00    +0.000 NA
ATOM     27  H   UNL     1      47.824  11.540  11.375  0.00  0.00    +0.000 HD
BRANCH  24  28
ATOM     28  C   UNL     1      41.885  10.772  10.967  0.00  0.00    +0.000 C 
ATOM     29  N   UNL     1      41.270   9.562  11.118  0.00  0.00    +0.000 N 
ATOM     30  O   UNL     1      41.264  11.767  10.611  0.00  0.00    +0.000 OA
ATOM     31  H   UNL     1      41.797   8.750  11.415  0.00  0.00    +0.000 HD
ATOM     32  H   UNL     1      40.279   9.485  10.933  0.00  0.00    +0.000 HD
ENDBRANCH  24  28
ENDBRANCH  19  20
ENDBRANCH  18  19
ENDBRANCH   3  18
TORSDOF 8
ENDMDL
MODEL 7
REMARK VINA RESULT:    -6.071      3.010      7.903
REMARK INTER + INTRA:          -9.980
REMARK INTER:                  -8.903
REMARK INTRA:                  -1.077
REMARK UNBOUND:                -1.069
REMARK  Name = 
REMARK  10 active torsions:
REMARK  status: ('A' for Active; 'I' for Inactive)
REMARK    1  A    between atoms: C_1  and  C_2
REMARK    2  A    between atoms: C_2  and  O_3
REMARK    3  A    between atoms: O_3  and  C_4
REMARK    4  A    between atoms: C_6  and  C_7
REMARK    5  A    between atoms: C_7  and  C_8
REMARK    6  A    between atoms: C_8  and  N_9
REMARK    7  A    between atoms: C_13  and  C_14
REMARK    8  A    between atoms: C_20  and  C_21
REMARK    9  A    between atoms: C_25  and  O_26
REMARK   10  A    between atoms: O_26  and  C_27
REMARK                            x       y       z     vdW  Elec       q    Type
REMARK                         _______ _______ _______ _____ _____    ______ ____
ROOT
ATOM      1  C   UNL     1      49.646   8.177  12.735  0.00  0.00    +0.000 A 
ATOM      2  C   UNL     1      49.541   8.898  13.920  0.00  0.00    +0.000 A 
ATOM      3  C   UNL     1      48.499   8.597  14.800  0.00  0.00    +0.000 A 
ATOM      4  C   UNL     1      47.603   7.598  14.402  0.00  0.00    +0.000 A 
ATOM      5  C   UNL     1      47.755   6.936  13.183  0.00  0.00    +0.000 A 
ATOM      6  N   UNL     1      48.771   7.227  12.343  0.00  0.00    +0.000 NA
ENDROOT
BRANCH   5   7
ATOM      7  C   UNL     1      46.819   5.889  12.746  0.00  0.00    +0.000 A 
ATOM      8  C   UNL     1      46.681   4.699  13.457  0.00  0.00    +0.000 A 
ATOM      9  N   UNL     1      45.861   3.679  13.104  0.00  0.00    +0.000 NA
ATOM     10  C   UNL     1      45.133   3.856  11.978  0.00  0.00    +0.000 A 
ATOM     11  C   UNL     1      45.176   4.994  11.185  0.00  0.00    +0.000 A 
ATOM     12  C   UNL     1      46.029   6.019  11.588  0.00  0.00    +0.000 A 
BRANCH  11  13
ATOM     13  O   UNL     1      44.374   5.004  10.080  0.00  0.00    +0.000 OA
ATOM     14  C   UNL     1      44.578   3.965   9.128  0.00  0.00    +0.000 C 
ENDBRANCH  11  13
ENDBRANCH   5   7
BRANCH   1  15
ATOM     15  O   UNL     1      50.724   8.470  11.922  0.00  0.00    +0.000 OA
BRANCH  15  17
ATOM     16  C   UNL     1      52.282   7.739  10.273  0.00  0.00    +0.000 C 
ATOM     17  C   UNL     1      50.933   7.473  10.915  0.00  0.00    +0.000 C 
ENDBRANCH  15  17
ENDBRANCH   1  15
BRANCH   3  18
ATOM     18  C   UNL     1      48.366   9.323  16.131  0.00  0.00    +0.000 C 
BRANCH  18  19
ATOM     19  C   UNL     1      48.852   8.506  17.343  0.00  0.00    +0.000 C 
BRANCH  19  20
ATOM     20  N   UNL     1      47.916   7.456  17.756  0.00  0.00    +0.000 N 
ATOM     21  C   UNL     1      48.481   6.165  17.591  0.00  0.00    +0.000 A 
ATOM     22  C   UNL     1      47.733   5.022  17.918  0.00  0.00    +0.000 A 
ATOM     23  N   UNL     1      48.183   3.744  17.775  0.00  0.00    +0.000 NA
ATOM     24  C   UNL     1      49.454   3.644  17.294  0.00  0.00    +0.000 A 
ATOM     25  C   UNL     1      50.214   4.759  16.987  0.00  0.00    +0.000 A 
ATOM     26  N   UNL     1      49.747   6.026  17.136  0.00  0.00    +0.000 NA
ATOM     27  H   UNL     1      47.046   7.493  17.231  0.00  0.00    +0.000 HD
BRANCH  24  28
ATOM     28  C   UNL     1      50.029   2.287  17.083  0.00  0.00    +0.000 C 
ATOM     29  N   UNL     1      50.973   1.880  17.983  0.00  0.00    +0.000 N 
ATOM     30  O   UNL     1      49.670   1.566  16.159  0.00  0.00    +0.000 OA
ATOM     31  H   UNL     1      51.257   2.487  18.742  0.00  0.00    +0.000 HD
ATOM     32  H   UNL     1      51.384   0.961  17.884  0.00  0.00    +0.000 HD
ENDBRANCH  24  28
ENDBRANCH  19  20
ENDBRANCH  18  19
ENDBRANCH   3  18
TORSDOF 8
ENDMDL
MODEL 8
REMARK VINA RESULT:    -5.855      2.920      6.009
REMARK INTER + INTRA:          -9.662
REMARK INTER:                  -8.627
REMARK INTRA:                  -1.035
REMARK UNBOUND:                -1.069
REMARK  Name = 
REMARK  10 active torsions:
REMARK  status: ('A' for Active; 'I' for Inactive)
REMARK    1  A    between atoms: C_1  and  C_2
REMARK    2  A    between atoms: C_2  and  O_3
REMARK    3  A    between atoms: O_3  and  C_4
REMARK    4  A    between atoms: C_6  and  C_7
REMARK    5  A    between atoms: C_7  and  C_8
REMARK    6  A    between atoms: C_8  and  N_9
REMARK    7  A    between atoms: C_13  and  C_14
REMARK    8  A    between atoms: C_20  and  C_21
REMARK    9  A    between atoms: C_25  and  O_26
REMARK   10  A    between atoms: O_26  and  C_27
REMARK                            x       y       z     vdW  Elec       q    Type
REMARK                         _______ _______ _______ _____ _____    ______ ____
ROOT
ATOM      1  C   UNL     1      50.723   8.671  12.593  0.00  0.00    +0.000 A 
ATOM      2  C   UNL     1      49.508   9.064  12.043  0.00  0.00    +0.000 A 
ATOM      3  C   UNL     1      48.327   8.711  12.700  0.00  0.00    +0.000 A 
ATOM      4  C   UNL     1      48.455   7.946  13.866  0.00  0.00    +0.000 A 
ATOM      5  C   UNL     1      49.709   7.564  14.343  0.00  0.00    +0.000 A 
ATOM      6  N   UNL     1      50.847   7.918  13.707  0.00  0.00    +0.000 NA
ENDROOT
BRANCH   5   7
ATOM      7  C   UNL     1      49.863   6.755  15.561  0.00  0.00    +0.000 A 
ATOM      8  C   UNL     1      51.086   6.668  16.224  0.00  0.00    +0.000 A 
ATOM      9  N   UNL     1      51.311   5.924  17.335  0.00  0.00    +0.000 NA
ATOM     10  C   UNL     1      50.256   5.229  17.817  0.00  0.00    +0.000 A 
ATOM     11  C   UNL     1      48.988   5.234  17.253  0.00  0.00    +0.000 A 
ATOM     12  C   UNL     1      48.800   6.015  16.115  0.00  0.00    +0.000 A 
BRANCH  11  13
ATOM     13  O   UNL     1      48.039   4.471  17.870  0.00  0.00    +0.000 OA
ATOM     14  C   UNL     1      47.911   3.124  17.431  0.00  0.00    +0.000 C 
ENDBRANCH  11  13
ENDBRANCH   5   7
BRANCH   1  15
ATOM     15  O   UNL     1      51.866   9.091  11.940  0.00  0.00    +0.000 OA
BRANCH  15  17
ATOM     16  C   UNL     1      52.257   7.406  10.300  0.00  0.00    +0.000 C 
ATOM     17  C   UNL     1      51.812   8.838  10.531  0.00  0.00    +0.000 C 
ENDBRANCH  15  17
ENDBRANCH   1  15
BRANCH   3  18
ATOM     18  C   UNL     1      46.973   9.154  12.167  0.00  0.00    +0.000 C 
BRANCH  18  19
ATOM     19  C   UNL     1      45.773   8.575  12.940  0.00  0.00    +0.000 C 
BRANCH  19  20
ATOM     20  N   UNL     1      44.597   8.329  12.101  0.00  0.00    +0.000 N 
ATOM     21  C   UNL     1      44.407   6.942  11.868  0.00  0.00    +0.000 A 
ATOM     22  C   UNL     1      43.339   6.501  11.071  0.00  0.00    +0.000 A 
ATOM     23  N   UNL     1      43.089   5.195  10.777  0.00  0.00    +0.000 NA
ATOM     24  C   UNL     1      43.963   4.313  11.339  0.00  0.00    +0.000 A 
ATOM     25  C   UNL     1      45.008   4.727  12.145  0.00  0.00    +0.000 A 
ATOM     26  N   UNL     1      45.241   6.035  12.427  0.00  0.00    +0.000 NA
ATOM     27  H   UNL     1      44.668   8.797  11.201  0.00  0.00    +0.000 HD
BRANCH  24  28
ATOM     28  C   UNL     1      43.785   2.862  11.060  0.00  0.00    +0.000 C 
ATOM     29  N   UNL     1      44.662   2.300  10.176  0.00  0.00    +0.000 N 
ATOM     30  O   UNL     1      42.907   2.200  11.601  0.00  0.00    +0.000 OA
ATOM     31  H   UNL     1      45.384   2.860   9.739  0.00  0.00    +0.000 HD
ATOM     32  H   UNL     1      44.586   1.314   9.964  0.00  0.00    +0.000 HD
ENDBRANCH  24  28
ENDBRANCH  19  20
ENDBRANCH  18  19
ENDBRANCH   3  18
TORSDOF 8
ENDMDL
MODEL 9
REMARK VINA RESULT:    -5.849      4.226      6.884
REMARK INTER + INTRA:          -9.654
REMARK INTER:                  -8.893
REMARK INTRA:                  -0.761
REMARK UNBOUND:                -1.069
REMARK  Name = 
REMARK  10 active torsions:
REMARK  status: ('A' for Active; 'I' for Inactive)
REMARK    1  A    between atoms: C_1  and  C_2
REMARK    2  A    between atoms: C_2  and  O_3
REMARK    3  A    between atoms: O_3  and  C_4
REMARK    4  A    between atoms: C_6  and  C_7
REMARK    5  A    between atoms: C_7  and  C_8
REMARK    6  A    between atoms: C_8  and  N_9
REMARK    7  A    between atoms: C_13  and  C_14
REMARK    8  A    between atoms: C_20  and  C_21
REMARK    9  A    between atoms: C_25  and  O_26
REMARK   10  A    between atoms: O_26  and  C_27
REMARK                            x       y       z     vdW  Elec       q    Type
REMARK                         _______ _______ _______ _____ _____    ______ ____
ROOT
ATOM      1  C   UNL     1      49.056   6.881  18.979  0.00  0.00    +0.000 A 
ATOM      2  C   UNL     1      48.764   7.694  17.888  0.00  0.00    +0.000 A 
ATOM      3  C   UNL     1      49.035   7.217  16.603  0.00  0.00    +0.000 A 
ATOM      4  C   UNL     1      49.620   5.949  16.508  0.00  0.00    +0.000 A 
ATOM      5  C   UNL     1      49.912   5.202  17.650  0.00  0.00    +0.000 A 
ATOM      6  N   UNL     1      49.638   5.666  18.888  0.00  0.00    +0.000 NA
ENDROOT
BRANCH   5   7
ATOM      7  C   UNL     1      50.534   3.872  17.570  0.00  0.00    +0.000 A 
ATOM      8  C   UNL     1      49.824   2.768  17.100  0.00  0.00    +0.000 A 
ATOM      9  N   UNL     1      50.319   1.508  17.021  0.00  0.00    +0.000 NA
ATOM     10  C   UNL     1      51.597   1.338  17.431  0.00  0.00    +0.000 A 
ATOM     11  C   UNL     1      52.409   2.354  17.914  0.00  0.00    +0.000 A 
ATOM     12  C   UNL     1      51.861   3.633  17.974  0.00  0.00    +0.000 A 
BRANCH  11  13
ATOM     13  O   UNL     1      53.675   2.003  18.286  0.00  0.00    +0.000 OA
ATOM     14  C   UNL     1      54.015   0.625  18.192  0.00  0.00    +0.000 C 
ENDBRANCH  11  13
ENDBRANCH   5   7
BRANCH   1  15
ATOM     15  O   UNL     1      48.720   7.370  20.226  0.00  0.00    +0.000 OA
BRANCH  15  17
ATOM     16  C   UNL     1      47.184   8.946  21.143  0.00  0.00    +0.000 C 
ATOM     17  C   UNL     1      48.346   8.752  20.186  0.00  0.00    +0.000 C 
ENDBRANCH  15  17
ENDBRANCH   1  15
BRANCH   3  18
ATOM     18  C   UNL     1      48.691   8.045  15.374  0.00  0.00    +0.000 C 
BRANCH  18  19
ATOM     19  C   UNL     1      48.053   7.235  14.230  0.00  0.00    +0.000 C 
BRANCH  19  20
ATOM     20  N   UNL     1      46.870   7.875  13.647  0.00  0.00    +0.000 N 
ATOM     21  C   UNL     1      46.103   6.953  12.888  0.00  0.00    +0.000 A 
ATOM     22  C   UNL     1      44.935   7.378  12.235  0.00  0.00    +0.000 A 
ATOM     23  N   UNL     1      44.148   6.572  11.470  0.00  0.00    +0.000 NA
ATOM     24  C   UNL     1      44.572   5.280  11.390  0.00  0.00    +0.000 A 
ATOM     25  C   UNL     1      45.708   4.837  12.045  0.00  0.00    +0.000 A 
ATOM     26  N   UNL     1      46.481   5.657  12.803  0.00  0.00    +0.000 NA
ATOM     27  H   UNL     1      47.117   8.656  13.045  0.00  0.00    +0.000 HD
BRANCH  24  28
ATOM     28  C   UNL     1      43.789   4.324  10.560  0.00  0.00    +0.000 C 
ATOM     29  N   UNL     1      43.896   4.465   9.205  0.00  0.00    +0.000 N 
ATOM     30  O   UNL     1      43.092   3.449  11.061  0.00  0.00    +0.000 OA
ATOM     31  H   UNL     1      44.477   5.192   8.807  0.00  0.00    +0.000 HD
ATOM     32  H   UNL     1      43.388   3.831   8.601  0.00  0.00    +0.000 HD
ENDBRANCH  24  28
ENDBRANCH  19  20
ENDBRANCH  18  19
ENDBRANCH   3  18
TORSDOF 8
ENDMDL
