MODEL 1
REMARK VINA RESULT:    -8.414      0.000      0.000
REMARK INTER + INTRA:         -12.434
REMARK INTER:                 -11.365
REMARK INTRA:                  -1.069
REMARK UNBOUND:                -1.069
REMARK  Name = 
REMARK  8 active torsions:
REMARK  status: ('A' for Active; 'I' for Inactive)
REMARK    1  A    between atoms: C_1  and  C_2
REMARK    2  A    between atoms: C_4  and  C_5
REMARK    3  A    between atoms: N_7  and  C_8
REMARK    4  A    between atoms: C_12  and  C_13
REMARK    5  A    between atoms: C_13  and  C_14
REMARK    6  A    between atoms: C_14  and  O_15
REMARK    7  A    between atoms: O_15  and  C_16
REMARK    8  A    between atoms: C_19  and  C_20
REMARK                            x       y       z     vdW  Elec       q    Type
REMARK                         _______ _______ _______ _____ _____    ______ ____
ROOT
ATOM      1  C   UNL     1      46.817   6.302  13.181  0.00  0.00    +0.000 A 
ATOM      2  C   UNL     1      47.416   5.150  13.683  0.00  0.00    +0.000 A 
ATOM      3  C   UNL     1      46.670   3.987  13.803  0.00  0.00    +0.000 A 
ATOM      4  N   UNL     1      45.378   3.872  13.428  0.00  0.00    +0.000 NA
ATOM      5  C   UNL     1      44.790   4.971  12.909  0.00  0.00    +0.000 A 
ATOM      6  C   UNL     1      45.476   6.185  12.788  0.00  0.00    +0.000 A 
ENDROOT
BRANCH   1  13
ATOM      7  C   UNL     1      50.839   8.535  11.604  0.00  0.00    +0.000 C 
ATOM      8  C   UNL     1      49.327   8.345  11.708  0.00  0.00    +0.000 C 
ATOM      9  C   UNL     1      48.609   9.707  11.640  0.00  0.00    +0.000 C 
ATOM     10  C   UNL     1      47.091   9.570  11.853  0.00  0.00    +0.000 C 
ATOM     11  C   UNL     1      46.427  10.943  11.922  0.00  0.00    +0.000 C 
ATOM     12  C   UNL     1      46.808   8.784  13.136  0.00  0.00    +0.000 C 
ATOM     13  N   UNL     1      47.497   7.497  13.069  0.00  0.00    +0.000 N 
ATOM     14  C   UNL     1      48.955   7.588  12.996  0.00  0.00    +0.000 C 
ENDBRANCH   1  13
BRANCH   5  15
ATOM     15  C   UNL     1      43.359   4.823  12.439  0.00  0.00    +0.000 C 
BRANCH  15  16
ATOM     16  C   UNL     1      43.230   3.934  11.204  0.00  0.00    +0.000 C 
BRANCH  16  17
ATOM     17  O   UNL     1      43.618   4.646   9.997  0.00  0.00    +0.000 OA
BRANCH  17  18
ATOM     18  C   UNL     1      44.560   3.922   9.287  0.00  0.00    +0.000 A 
ATOM     19  C   UNL     1      44.719   2.545   9.459  0.00  0.00    +0.000 A 
ATOM     20  N   UNL     1      45.610   1.798   8.738  0.00  0.00    +0.000 NA
ATOM     21  C   UNL     1      46.339   2.484   7.822  0.00  0.00    +0.000 A 
ATOM     22  C   UNL     1      46.183   3.858   7.657  0.00  0.00    +0.000 A 
ATOM     23  N   UNL     1      45.307   4.591   8.385  0.00  0.00    +0.000 NA
BRANCH  21  24
ATOM     24  C   UNL     1      47.308   1.711   6.988  0.00  0.00    +0.000 C 
ATOM     25  N   UNL     1      48.394   2.360   6.468  0.00  0.00    +0.000 N 
ATOM     26  O   UNL     1      47.158   0.497   6.756  0.00  0.00    +0.000 OA
ATOM     27  H   UNL     1      48.588   3.346   6.610  0.00  0.00    +0.000 HD
ATOM     28  H   UNL     1      49.039   1.824   5.902  0.00  0.00    +0.000 HD
ENDBRANCH  21  24
ENDBRANCH  17  18
ENDBRANCH  16  17
ENDBRANCH  15  16
ENDBRANCH   5  15
TORSDOF 6
ENDMDL
MODEL 2
REMARK VINA RESULT:    -8.102      1.197      2.277
REMARK INTER + INTRA:         -12.013
REMARK INTER:                 -11.055
REMARK INTRA:                  -0.959
REMARK UNBOUND:                -1.069
REMARK  Name = 
REMARK  8 active torsions:
REMARK  status: ('A' for Active; 'I' for Inactive)
REMARK    1  A    between atoms: C_1  and  C_2
REMARK    2  A    between atoms: C_4  and  C_5
REMARK    3  A    between atoms: N_7  and  C_8
REMARK    4  A    between atoms: C_12  and  C_13
REMARK    5  A    between atoms: C_13  and  C_14
REMARK    6  A    between atoms: C_14  and  O_15
REMARK    7  A    between atoms: O_15  and  C_16
REMARK    8  A    between atoms: C_19  and  C_20
REMARK                            x       y       z     vdW  Elec       q    Type
REMARK                         _______ _______ _______ _____ _____    ______ ____
ROOT
ATOM      1  C   UNL     1      46.306   6.134  12.488  0.00  0.00    +0.000 A 
ATOM      2  C   UNL     1      47.283   5.462  13.217  0.00  0.00    +0.000 A 
ATOM      3  C   UNL     1      47.004   4.210  13.744  0.00  0.00    +0.000 A 
ATOM      4  N   UNL     1      45.836   3.555  13.569  0.00  0.00    +0.000 NA
ATOM      5  C   UNL     1      44.888   4.178  12.836  0.00  0.00    +0.000 A 
ATOM      6  C   UNL     1      45.092   5.456  12.302  0.00  0.00    +0.000 A 
ENDROOT
BRANCH   1  13
ATOM      7  C   UNL     1      44.441  10.566  11.769  0.00  0.00    +0.000 C 
ATOM      8  C   UNL     1      45.508   9.592  12.261  0.00  0.00    +0.000 C 
ATOM      9  C   UNL     1      46.910  10.220  12.132  0.00  0.00    +0.000 C 
ATOM     10  C   UNL     1      48.024   9.227  12.514  0.00  0.00    +0.000 C 
ATOM     11  C   UNL     1      49.400   9.828  12.241  0.00  0.00    +0.000 C 
ATOM     12  C   UNL     1      47.855   7.921  11.734  0.00  0.00    +0.000 C 
ATOM     13  N   UNL     1      46.512   7.395  11.968  0.00  0.00    +0.000 N 
ATOM     14  C   UNL     1      45.428   8.257  11.499  0.00  0.00    +0.000 C 
ENDBRANCH   1  13
BRANCH   5  15
ATOM     15  C   UNL     1      43.601   3.420  12.597  0.00  0.00    +0.000 C 
BRANCH  15  16
ATOM     16  C   UNL     1      43.598   2.661  11.272  0.00  0.00    +0.000 C 
BRANCH  16  17
ATOM     17  O   UNL     1      43.538   3.574  10.141  0.00  0.00    +0.000 OA
BRANCH  17  18
ATOM     18  C   UNL     1      44.518   3.263   9.214  0.00  0.00    +0.000 A 
ATOM     19  C   UNL     1      45.044   4.220   8.342  0.00  0.00    +0.000 A 
ATOM     20  N   UNL     1      46.043   3.951   7.448  0.00  0.00    +0.000 NA
ATOM     21  C   UNL     1      46.512   2.677   7.464  0.00  0.00    +0.000 A 
ATOM     22  C   UNL     1      45.982   1.724   8.330  0.00  0.00    +0.000 A 
ATOM     23  N   UNL     1      44.983   1.997   9.202  0.00  0.00    +0.000 NA
BRANCH  21  24
ATOM     24  C   UNL     1      47.624   2.337   6.526  0.00  0.00    +0.000 C 
ATOM     25  N   UNL     1      47.765   3.068   5.378  0.00  0.00    +0.000 N 
ATOM     26  O   UNL     1      48.424   1.412   6.758  0.00  0.00    +0.000 OA
ATOM     27  H   UNL     1      47.156   3.836   5.116  0.00  0.00    +0.000 HD
ATOM     28  H   UNL     1      48.520   2.822   4.751  0.00  0.00    +0.000 HD
ENDBRANCH  21  24
ENDBRANCH  17  18
ENDBRANCH  16  17
ENDBRANCH  15  16
ENDBRANCH   5  15
TORSDOF 6
ENDMDL
MODEL 3
REMARK VINA RESULT:    -7.694      1.109      1.808
REMARK INTER + INTRA:         -11.463
REMARK INTER:                 -10.470
REMARK INTRA:                  -0.992
REMARK UNBOUND:                -1.069
REMARK  Name = 
REMARK  8 active torsions:
REMARK  status: ('A' for Active; 'I' for Inactive)
REMARK    1  A    between atoms: C_1  and  C_2
REMARK    2  A    between atoms: C_4  and  C_5
REMARK    3  A    between atoms: N_7  and  C_8
REMARK    4  A    between atoms: C_12  and  C_13
REMARK    5  A    between atoms: C_13  and  C_14
REMARK    6  A    between atoms: C_14  and  O_15
REMARK    7  A    between atoms: O_15  and  C_16
REMARK    8  A    between atoms: C_19  and  C_20
REMARK                            x       y       z     vdW  Elec       q    Type
REMARK                         _______ _______ _______ _____ _____    ______ ____
ROOT
ATOM      1  C   UNL     1      46.961   6.209  13.250  0.00  0.00    +0.000 A 
ATOM      2  C   UNL     1      47.418   4.985  13.727  0.00  0.00    +0.000 A 
ATOM      3  C   UNL     1      46.547   3.908  13.793  0.00  0.00    +0.000 A 
ATOM      4  N   UNL     1      45.260   3.946  13.385  0.00  0.00    +0.000 NA
ATOM      5  C   UNL     1      44.809   5.118  12.890  0.00  0.00    +0.000 A 
ATOM      6  C   UNL     1      45.626   6.252  12.823  0.00  0.00    +0.000 A 
ENDROOT
BRANCH   1  13
ATOM      7  C   UNL     1      49.572   9.450  15.765  0.00  0.00    +0.000 C 
ATOM      8  C   UNL     1      49.372   8.404  14.672  0.00  0.00    +0.000 C 
ATOM      9  C   UNL     1      50.243   8.736  13.444  0.00  0.00    +0.000 C 
ATOM     10  C   UNL     1      49.986   7.766  12.276  0.00  0.00    +0.000 C 
ATOM     11  C   UNL     1      50.753   8.204  11.031  0.00  0.00    +0.000 C 
ATOM     12  C   UNL     1      48.488   7.693  11.972  0.00  0.00    +0.000 C 
ATOM     13  N   UNL     1      47.770   7.325  13.192  0.00  0.00    +0.000 N 
ATOM     14  C   UNL     1      47.887   8.292  14.283  0.00  0.00    +0.000 C 
ENDBRANCH   1  13
BRANCH   5  15
ATOM     15  C   UNL     1      43.383   5.142  12.384  0.00  0.00    +0.000 C 
BRANCH  15  16
ATOM     16  C   UNL     1      43.181   4.278  11.142  0.00  0.00    +0.000 C 
BRANCH  16  17
ATOM     17  O   UNL     1      43.768   4.898   9.964  0.00  0.00    +0.000 OA
BRANCH  17  18
ATOM     18  C   UNL     1      44.617   4.014   9.323  0.00  0.00    +0.000 A 
ATOM     19  C   UNL     1      44.644   2.652   9.634  0.00  0.00    +0.000 A 
ATOM     20  N   UNL     1      45.440   1.750   8.985  0.00  0.00    +0.000 NA
ATOM     21  C   UNL     1      46.213   2.262   7.993  0.00  0.00    +0.000 A 
ATOM     22  C   UNL     1      46.189   3.621   7.689  0.00  0.00    +0.000 A 
ATOM     23  N   UNL     1      45.407   4.509   8.347  0.00  0.00    +0.000 NA
BRANCH  21  24
ATOM     24  C   UNL     1      47.082   1.315   7.233  0.00  0.00    +0.000 C 
ATOM     25  N   UNL     1      48.111   1.819   6.485  0.00  0.00    +0.000 N 
ATOM     26  O   UNL     1      46.900   0.084   7.261  0.00  0.00    +0.000 OA
ATOM     27  H   UNL     1      48.325   2.808   6.409  0.00  0.00    +0.000 HD
ATOM     28  H   UNL     1      48.687   1.165   5.972  0.00  0.00    +0.000 HD
ENDBRANCH  21  24
ENDBRANCH  17  18
ENDBRANCH  16  17
ENDBRANCH  15  16
ENDBRANCH   5  15
TORSDOF 6
ENDMDL
MODEL 4
REMARK VINA RESULT:    -7.660      2.010      3.672
REMARK INTER + INTRA:         -11.416
REMARK INTER:                 -10.480
REMARK INTRA:                  -0.936
REMARK UNBOUND:                -1.069
REMARK  Name = 
REMARK  8 active torsions:
REMARK  status: ('A' for Active; 'I' for Inactive)
REMARK    1  A    between atoms: C_1  and  C_2
REMARK    2  A    between atoms: C_4  and  C_5
REMARK    3  A    between atoms: N_7  and  C_8
REMARK    4  A    between atoms: C_12  and  C_13
REMARK    5  A    between atoms: C_13  and  C_14
REMARK    6  A    between atoms: C_14  and  O_15
REMARK    7  A    between atoms: O_15  and  C_16
REMARK    8  A    between atoms: C_19  and  C_20
REMARK                            x       y       z     vdW  Elec       q    Type
REMARK                         _______ _______ _______ _____ _____    ______ ____
ROOT
ATOM      1  C   UNL     1      46.645   6.258  13.605  0.00  0.00    +0.000 A 
ATOM      2  C   UNL     1      46.803   7.493  12.985  0.00  0.00    +0.000 A 
ATOM      3  C   UNL     1      45.845   7.936  12.085  0.00  0.00    +0.000 A 
ATOM      4  N   UNL     1      44.719   7.257  11.781  0.00  0.00    +0.000 NA
ATOM      5  C   UNL     1      44.532   6.071  12.398  0.00  0.00    +0.000 A 
ATOM      6  C   UNL     1      45.474   5.551  13.293  0.00  0.00    +0.000 A 
ENDROOT
BRANCH   1  13
ATOM      7  C   UNL     1      50.198   7.271  16.766  0.00  0.00    +0.000 C 
ATOM      8  C   UNL     1      48.884   6.618  16.344  0.00  0.00    +0.000 C 
ATOM      9  C   UNL     1      48.696   5.272  17.070  0.00  0.00    +0.000 C 
ATOM     10  C   UNL     1      47.436   4.528  16.589  0.00  0.00    +0.000 C 
ATOM     11  C   UNL     1      47.353   3.140  17.218  0.00  0.00    +0.000 C 
ATOM     12  C   UNL     1      47.444   4.414  15.062  0.00  0.00    +0.000 C 
ATOM     13  N   UNL     1      47.579   5.749  14.484  0.00  0.00    +0.000 N 
ATOM     14  C   UNL     1      48.827   6.435  14.817  0.00  0.00    +0.000 C 
ENDBRANCH   1  13
BRANCH   5  15
ATOM     15  C   UNL     1      43.243   5.337  12.095  0.00  0.00    +0.000 C 
BRANCH  15  16
ATOM     16  C   UNL     1      43.184   4.811  10.663  0.00  0.00    +0.000 C 
BRANCH  16  17
ATOM     17  O   UNL     1      43.592   3.416  10.596  0.00  0.00    +0.000 OA
BRANCH  17  18
ATOM     18  C   UNL     1      44.509   3.228   9.576  0.00  0.00    +0.000 A 
ATOM     19  C   UNL     1      45.093   4.300   8.897  0.00  0.00    +0.000 A 
ATOM     20  N   UNL     1      46.035   4.143   7.918  0.00  0.00    +0.000 NA
ATOM     21  C   UNL     1      46.385   2.860   7.645  0.00  0.00    +0.000 A 
ATOM     22  C   UNL     1      45.796   1.793   8.320  0.00  0.00    +0.000 A 
ATOM     23  N   UNL     1      44.855   1.958   9.278  0.00  0.00    +0.000 NA
BRANCH  21  24
ATOM     24  C   UNL     1      47.430   2.634   6.602  0.00  0.00    +0.000 C 
ATOM     25  N   UNL     1      47.249   3.175   5.359  0.00  0.00    +0.000 N 
ATOM     26  O   UNL     1      48.458   1.971   6.831  0.00  0.00    +0.000 OA
ATOM     27  H   UNL     1      46.439   3.726   5.092  0.00  0.00    +0.000 HD
ATOM     28  H   UNL     1      47.963   3.008   4.662  0.00  0.00    +0.000 HD
ENDBRANCH  21  24
ENDBRANCH  17  18
ENDBRANCH  16  17
ENDBRANCH  15  16
ENDBRANCH   5  15
TORSDOF 6
ENDMDL
MODEL 5
REMARK VINA RESULT:    -7.539      1.539      2.464
REMARK INTER + INTRA:         -11.253
REMARK INTER:                 -10.265
REMARK INTRA:                  -0.988
REMARK UNBOUND:                -1.069
REMARK  Name = 
REMARK  8 active torsions:
REMARK  status: ('A' for Active; 'I' for Inactive)
REMARK    1  A    between atoms: C_1  and  C_2
REMARK    2  A    between atoms: C_4  and  C_5
REMARK    3  A    between atoms: N_7  and  C_8
REMARK    4  A    between atoms: C_12  and  C_13
REMARK    5  A    between atoms: C_13  and  C_14
REMARK    6  A    between atoms: C_14  and  O_15
REMARK    7  A    between atoms: O_15  and  C_16
REMARK    8  A    between atoms: C_19  and  C_20
REMARK                            x       y       z     vdW  Elec       q    Type
REMARK                         _______ _______ _______ _____ _____    ______ ____
ROOT
ATOM      1  C   UNL     1      46.429   6.852  12.404  0.00  0.00    +0.000 A 
ATOM      2  C   UNL     1      45.650   7.810  11.763  0.00  0.00    +0.000 A 
ATOM      3  C   UNL     1      44.333   7.520  11.444  0.00  0.00    +0.000 A 
ATOM      4  N   UNL     1      43.716   6.357  11.747  0.00  0.00    +0.000 NA
ATOM      5  C   UNL     1      44.448   5.428  12.398  0.00  0.00    +0.000 A 
ATOM      6  C   UNL     1      45.792   5.643  12.723  0.00  0.00    +0.000 A 
ENDROOT
BRANCH   1  13
ATOM      7  C   UNL     1      50.421   9.478  11.504  0.00  0.00    +0.000 C 
ATOM      8  C   UNL     1      49.350   8.881  12.413  0.00  0.00    +0.000 C 
ATOM      9  C   UNL     1      49.940   8.559  13.800  0.00  0.00    +0.000 C 
ATOM     10  C   UNL     1      48.919   7.852  14.711  0.00  0.00    +0.000 C 
ATOM     11  C   UNL     1      49.572   7.419  16.021  0.00  0.00    +0.000 C 
ATOM     12  C   UNL     1      48.325   6.638  13.992  0.00  0.00    +0.000 C 
ATOM     13  N   UNL     1      47.755   7.069  12.717  0.00  0.00    +0.000 N 
ATOM     14  C   UNL     1      48.723   7.629  11.774  0.00  0.00    +0.000 C 
ENDBRANCH   1  13
BRANCH   5  15
ATOM     15  C   UNL     1      43.739   4.147  12.785  0.00  0.00    +0.000 C 
BRANCH  15  16
ATOM     16  C   UNL     1      43.976   3.016  11.787  0.00  0.00    +0.000 C 
BRANCH  16  17
ATOM     17  O   UNL     1      43.442   3.347  10.476  0.00  0.00    +0.000 OA
BRANCH  17  18
ATOM     18  C   UNL     1      44.392   3.123   9.494  0.00  0.00    +0.000 A 
ATOM     19  C   UNL     1      44.954   4.167   8.755  0.00  0.00    +0.000 A 
ATOM     20  N   UNL     1      45.926   3.979   7.812  0.00  0.00    +0.000 NA
ATOM     21  C   UNL     1      46.330   2.695   7.638  0.00  0.00    +0.000 A 
ATOM     22  C   UNL     1      45.763   1.655   8.373  0.00  0.00    +0.000 A 
ATOM     23  N   UNL     1      44.792   1.850   9.295  0.00  0.00    +0.000 NA
BRANCH  21  24
ATOM     24  C   UNL     1      47.410   2.437   6.639  0.00  0.00    +0.000 C 
ATOM     25  N   UNL     1      47.430   3.171   5.485  0.00  0.00    +0.000 N 
ATOM     26  O   UNL     1      48.290   1.577   6.826  0.00  0.00    +0.000 OA
ATOM     27  H   UNL     1      46.749   3.890   5.258  0.00  0.00    +0.000 HD
ATOM     28  H   UNL     1      48.165   2.981   4.817  0.00  0.00    +0.000 HD
ENDBRANCH  21  24
ENDBRANCH  17  18
ENDBRANCH  16  17
ENDBRANCH  15  16
ENDBRANCH   5  15
TORSDOF 6
ENDMDL
MODEL 6
REMARK VINA RESULT:    -7.493      2.537      4.133
REMARK INTER + INTRA:         -11.191
REMARK INTER:                 -10.310
REMARK INTRA:                  -0.880
REMARK UNBOUND:                -1.069
REMARK  Name = 
REMARK  8 active torsions:
REMARK  status: ('A' for Active; 'I' for Inactive)
REMARK    1  A    between atoms: C_1  and  C_2
REMARK    2  A    between atoms: C_4  and  C_5
REMARK    3  A    between atoms: N_7  and  C_8
REMARK    4  A    between atoms: C_12  and  C_13
REMARK    5  A    between atoms: C_13  and  C_14
REMARK    6  A    between atoms: C_14  and  O_15
REMARK    7  A    between atoms: O_15  and  C_16
REMARK    8  A    between atoms: C_19  and  C_20
REMARK                            x       y       z     vdW  Elec       q    Type
REMARK                         _______ _______ _______ _____ _____    ______ ____
ROOT
ATOM      1  C   UNL     1      47.967   6.046  14.524  0.00  0.00    +0.000 A 
ATOM      2  C   UNL     1      48.529   6.929  13.608  0.00  0.00    +0.000 A 
ATOM      3  C   UNL     1      48.004   7.016  12.328  0.00  0.00    +0.000 A 
ATOM      4  N   UNL     1      46.934   6.314  11.898  0.00  0.00    +0.000 NA
ATOM      5  C   UNL     1      46.355   5.475  12.783  0.00  0.00    +0.000 A 
ATOM      6  C   UNL     1      46.853   5.317  14.081  0.00  0.00    +0.000 A 
ENDROOT
BRANCH   1  13
ATOM      7  C   UNL     1      48.534   3.046  18.308  0.00  0.00    +0.000 C 
ATOM      8  C   UNL     1      49.035   4.013  17.239  0.00  0.00    +0.000 C 
ATOM      9  C   UNL     1      50.242   4.815  17.764  0.00  0.00    +0.000 C 
ATOM     10  C   UNL     1      50.709   5.881  16.755  0.00  0.00    +0.000 C 
ATOM     11  C   UNL     1      51.808   6.752  17.357  0.00  0.00    +0.000 C 
ATOM     12  C   UNL     1      49.525   6.751  16.323  0.00  0.00    +0.000 C 
ATOM     13  N   UNL     1      48.465   5.890  15.801  0.00  0.00    +0.000 N 
ATOM     14  C   UNL     1      47.908   4.950  16.773  0.00  0.00    +0.000 C 
ENDBRANCH   1  13
BRANCH   5  15
ATOM     15  C   UNL     1      45.123   4.731  12.314  0.00  0.00    +0.000 C 
BRANCH  15  16
ATOM     16  C   UNL     1      44.457   5.388  11.109  0.00  0.00    +0.000 C 
BRANCH  16  17
ATOM     17  O   UNL     1      43.743   4.412  10.301  0.00  0.00    +0.000 OA
BRANCH  17  18
ATOM     18  C   UNL     1      44.608   3.781   9.425  0.00  0.00    +0.000 A 
ATOM     19  C   UNL     1      45.447   4.496   8.567  0.00  0.00    +0.000 A 
ATOM     20  N   UNL     1      46.343   3.899   7.724  0.00  0.00    +0.000 NA
ATOM     21  C   UNL     1      46.378   2.542   7.777  0.00  0.00    +0.000 A 
ATOM     22  C   UNL     1      45.536   1.832   8.629  0.00  0.00    +0.000 A 
ATOM     23  N   UNL     1      44.643   2.432   9.450  0.00  0.00    +0.000 NA
BRANCH  21  24
ATOM     24  C   UNL     1      47.359   1.840   6.896  0.00  0.00    +0.000 C 
ATOM     25  N   UNL     1      48.417   2.546   6.393  0.00  0.00    +0.000 N 
ATOM     26  O   UNL     1      47.242   0.635   6.608  0.00  0.00    +0.000 OA
ATOM     27  H   UNL     1      48.583   3.530   6.579  0.00  0.00    +0.000 HD
ATOM     28  H   UNL     1      49.070   2.058   5.794  0.00  0.00    +0.000 HD
ENDBRANCH  21  24
ENDBRANCH  17  18
ENDBRANCH  16  17
ENDBRANCH  15  16
ENDBRANCH   5  15
TORSDOF 6
ENDMDL
MODEL 7
REMARK VINA RESULT:    -7.182      2.366      3.540
REMARK INTER + INTRA:         -10.771
REMARK INTER:                  -9.871
REMARK INTRA:                  -0.900
REMARK UNBOUND:                -1.069
REMARK  Name = 
REMARK  8 active torsions:
REMARK  status: ('A' for Active; 'I' for Inactive)
REMARK    1  A    between atoms: C_1  and  C_2
REMARK    2  A    between atoms: C_4  and  C_5
REMARK    3  A    between atoms: N_7  and  C_8
REMARK    4  A    between atoms: C_12  and  C_13
REMARK    5  A    between atoms: C_13  and  C_14
REMARK    6  A    between atoms: C_14  and  O_15
REMARK    7  A    between atoms: O_15  and  C_16
REMARK    8  A    between atoms: C_19  and  C_20
REMARK                            x       y       z     vdW  Elec       q    Type
REMARK                         _______ _______ _______ _____ _____    ______ ____
ROOT
ATOM      1  C   UNL     1      48.252   6.541  14.014  0.00  0.00    +0.000 A 
ATOM      2  C   UNL     1      48.718   7.374  13.002  0.00  0.00    +0.000 A 
ATOM      3  C   UNL     1      48.052   7.414  11.787  0.00  0.00    +0.000 A 
ATOM      4  N   UNL     1      46.931   6.712  11.512  0.00  0.00    +0.000 NA
ATOM      5  C   UNL     1      46.447   5.922  12.494  0.00  0.00    +0.000 A 
ATOM      6  C   UNL     1      47.087   5.812  13.733  0.00  0.00    +0.000 A 
ENDROOT
BRANCH   1  13
ATOM      7  C   UNL     1      51.171   8.689  17.256  0.00  0.00    +0.000 C 
ATOM      8  C   UNL     1      49.892   7.976  16.824  0.00  0.00    +0.000 C 
ATOM      9  C   UNL     1      49.351   7.101  17.972  0.00  0.00    +0.000 C 
ATOM     10  C   UNL     1      48.123   6.279  17.541  0.00  0.00    +0.000 C 
ATOM     11  C   UNL     1      47.697   5.320  18.649  0.00  0.00    +0.000 C 
ATOM     12  C   UNL     1      48.434   5.500  16.261  0.00  0.00    +0.000 C 
ATOM     13  N   UNL     1      48.891   6.433  15.232  0.00  0.00    +0.000 N 
ATOM     14  C   UNL     1      50.131   7.138  15.556  0.00  0.00    +0.000 C 
ENDBRANCH   1  13
BRANCH   5  15
ATOM     15  C   UNL     1      45.161   5.179  12.201  0.00  0.00    +0.000 C 
BRANCH  15  16
ATOM     16  C   UNL     1      44.501   5.628  10.900  0.00  0.00    +0.000 C 
BRANCH  16  17
ATOM     17  O   UNL     1      43.859   4.513  10.221  0.00  0.00    +0.000 OA
BRANCH  17  18
ATOM     18  C   UNL     1      44.768   3.846   9.418  0.00  0.00    +0.000 A 
ATOM     19  C   UNL     1      44.963   2.465   9.509  0.00  0.00    +0.000 A 
ATOM     20  N   UNL     1      45.821   1.774   8.698  0.00  0.00    +0.000 NA
ATOM     21  C   UNL     1      46.478   2.521   7.774  0.00  0.00    +0.000 A 
ATOM     22  C   UNL     1      46.286   3.898   7.690  0.00  0.00    +0.000 A 
ATOM     23  N   UNL     1      45.444   4.575   8.506  0.00  0.00    +0.000 NA
BRANCH  21  24
ATOM     24  C   UNL     1      47.406   1.811   6.844  0.00  0.00    +0.000 C 
ATOM     25  N   UNL     1      48.525   2.465   6.404  0.00  0.00    +0.000 N 
ATOM     26  O   UNL     1      47.194   0.647   6.459  0.00  0.00    +0.000 OA
ATOM     27  H   UNL     1      48.770   3.413   6.670  0.00  0.00    +0.000 HD
ATOM     28  H   UNL     1      49.142   1.972   5.771  0.00  0.00    +0.000 HD
ENDBRANCH  21  24
ENDBRANCH  17  18
ENDBRANCH  16  17
ENDBRANCH  15  16
ENDBRANCH   5  15
TORSDOF 6
ENDMDL
MODEL 8
REMARK VINA RESULT:    -7.164      1.348      2.478
REMARK INTER + INTRA:         -10.746
REMARK INTER:                 -10.217
REMARK INTRA:                  -0.529
REMARK UNBOUND:                -1.069
REMARK  Name = 
REMARK  8 active torsions:
REMARK  status: ('A' for Active; 'I' for Inactive)
REMARK    1  A    between atoms: C_1  and  C_2
REMARK    2  A    between atoms: C_4  and  C_5
REMARK    3  A    between atoms: N_7  and  C_8
REMARK    4  A    between atoms: C_12  and  C_13
REMARK    5  A    between atoms: C_13  and  C_14
REMARK    6  A    between atoms: C_14  and  O_15
REMARK    7  A    between atoms: O_15  and  C_16
REMARK    8  A    between atoms: C_19  and  C_20
REMARK                            x       y       z     vdW  Elec       q    Type
REMARK                         _______ _______ _______ _____ _____    ______ ____
ROOT
ATOM      1  C   UNL     1      46.978   8.087  12.386  0.00  0.00    +0.000 A 
ATOM      2  C   UNL     1      45.921   8.952  12.120  0.00  0.00    +0.000 A 
ATOM      3  C   UNL     1      44.713   8.441  11.670  0.00  0.00    +0.000 A 
ATOM      4  N   UNL     1      44.463   7.125  11.498  0.00  0.00    +0.000 NA
ATOM      5  C   UNL     1      45.467   6.268  11.783  0.00  0.00    +0.000 A 
ATOM      6  C   UNL     1      46.721   6.719  12.211  0.00  0.00    +0.000 A 
ENDROOT
BRANCH   1  13
ATOM      7  C   UNL     1      50.681   7.460  15.474  0.00  0.00    +0.000 C 
ATOM      8  C   UNL     1      50.066   7.623  14.086  0.00  0.00    +0.000 C 
ATOM      9  C   UNL     1      51.044   8.359  13.149  0.00  0.00    +0.000 C 
ATOM     10  C   UNL     1      50.418   8.642  11.770  0.00  0.00    +0.000 C 
ATOM     11  C   UNL     1      51.352   9.494  10.916  0.00  0.00    +0.000 C 
ATOM     12  C   UNL     1      49.070   9.347  11.939  0.00  0.00    +0.000 C 
ATOM     13  N   UNL     1      48.212   8.539  12.804  0.00  0.00    +0.000 N 
ATOM     14  C   UNL     1      48.716   8.357  14.165  0.00  0.00    +0.000 C 
ENDBRANCH   1  13
BRANCH   5  15
ATOM     15  C   UNL     1      45.166   4.792  11.641  0.00  0.00    +0.000 C 
BRANCH  15  16
ATOM     16  C   UNL     1      43.738   4.521  11.174  0.00  0.00    +0.000 C 
BRANCH  16  17
ATOM     17  O   UNL     1      43.613   4.686   9.734  0.00  0.00    +0.000 OA
BRANCH  17  18
ATOM     18  C   UNL     1      44.593   3.964   9.076  0.00  0.00    +0.000 A 
ATOM     19  C   UNL     1      44.690   2.574   9.184  0.00  0.00    +0.000 A 
ATOM     20  N   UNL     1      45.619   1.833   8.509  0.00  0.00    +0.000 NA
ATOM     21  C   UNL     1      46.455   2.537   7.703  0.00  0.00    +0.000 A 
ATOM     22  C   UNL     1      46.360   3.923   7.603  0.00  0.00    +0.000 A 
ATOM     23  N   UNL     1      45.445   4.650   8.285  0.00  0.00    +0.000 NA
BRANCH  21  24
ATOM     24  C   UNL     1      47.472   1.773   6.922  0.00  0.00    +0.000 C 
ATOM     25  N   UNL     1      48.563   2.437   6.431  0.00  0.00    +0.000 N 
ATOM     26  O   UNL     1      47.358   0.552   6.706  0.00  0.00    +0.000 OA
ATOM     27  H   UNL     1      48.729   3.430   6.563  0.00  0.00    +0.000 HD
ATOM     28  H   UNL     1      49.240   1.906   5.900  0.00  0.00    +0.000 HD
ENDBRANCH  21  24
ENDBRANCH  17  18
ENDBRANCH  16  17
ENDBRANCH  15  16
ENDBRANCH   5  15
TORSDOF 6
ENDMDL
MODEL 9
REMARK VINA RESULT:    -7.062      1.952      3.278
REMARK INTER + INTRA:         -10.608
REMARK INTER:                  -9.990
REMARK INTRA:                  -0.619
REMARK UNBOUND:                -1.069
REMARK  Name = 
REMARK  8 active torsions:
REMARK  status: ('A' for Active; 'I' for Inactive)
REMARK    1  A    between atoms: C_1  and  C_2
REMARK    2  A    between atoms: C_4  and  C_5
REMARK    3  A    between atoms: N_7  and  C_8
REMARK    4  A    between atoms: C_12  and  C_13
REMARK    5  A    between atoms: C_13  and  C_14
REMARK    6  A    between atoms: C_14  and  O_15
REMARK    7  A    between atoms: O_15  and  C_16
REMARK    8  A    between atoms: C_19  and  C_20
REMARK                            x       y       z     vdW  Elec       q    Type
REMARK                         _______ _______ _______ _____ _____    ______ ____
ROOT
ATOM      1  C   UNL     1      45.078   7.620  11.963  0.00  0.00    +0.000 A 
ATOM      2  C   UNL     1      46.303   7.409  12.589  0.00  0.00    +0.000 A 
ATOM      3  C   UNL     1      46.544   6.206  13.235  0.00  0.00    +0.000 A 
ATOM      4  N   UNL     1      45.670   5.178  13.276  0.00  0.00    +0.000 NA
ATOM      5  C   UNL     1      44.488   5.352  12.645  0.00  0.00    +0.000 A 
ATOM      6  C   UNL     1      44.169   6.553  12.001  0.00  0.00    +0.000 A 
ENDROOT
BRANCH   1  13
ATOM      7  C   UNL     1      41.539  10.603  10.474  0.00  0.00    +0.000 C 
ATOM      8  C   UNL     1      42.828  10.272  11.222  0.00  0.00    +0.000 C 
ATOM      9  C   UNL     1      43.778  11.485  11.219  0.00  0.00    +0.000 C 
ATOM     10  C   UNL     1      45.136  11.157  11.867  0.00  0.00    +0.000 C 
ATOM     11  C   UNL     1      46.103  12.328  11.721  0.00  0.00    +0.000 C 
ATOM     12  C   UNL     1      45.733   9.899  11.229  0.00  0.00    +0.000 C 
ATOM     13  N   UNL     1      44.767   8.807  11.332  0.00  0.00    +0.000 N 
ATOM     14  C   UNL     1      43.512   9.033  10.617  0.00  0.00    +0.000 C 
ENDBRANCH   1  13
BRANCH   5  15
ATOM     15  C   UNL     1      43.533   4.179  12.647  0.00  0.00    +0.000 C 
BRANCH  15  16
ATOM     16  C   UNL     1      43.539   3.409  11.328  0.00  0.00    +0.000 C 
BRANCH  16  17
ATOM     17  O   UNL     1      43.720   4.303  10.195  0.00  0.00    +0.000 OA
BRANCH  17  18
ATOM     18  C   UNL     1      44.644   3.780   9.307  0.00  0.00    +0.000 A 
ATOM     19  C   UNL     1      45.397   4.593   8.456  0.00  0.00    +0.000 A 
ATOM     20  N   UNL     1      46.348   4.107   7.602  0.00  0.00    +0.000 NA
ATOM     21  C   UNL     1      46.529   2.762   7.635  0.00  0.00    +0.000 A 
ATOM     22  C   UNL     1      45.772   1.953   8.480  0.00  0.00    +0.000 A 
ATOM     23  N   UNL     1      44.823   2.443   9.313  0.00  0.00    +0.000 NA
BRANCH  21  24
ATOM     24  C   UNL     1      47.575   2.181   6.741  0.00  0.00    +0.000 C 
ATOM     25  N   UNL     1      47.997   2.908   5.662  0.00  0.00    +0.000 N 
ATOM     26  O   UNL     1      48.072   1.059   6.949  0.00  0.00    +0.000 OA
ATOM     27  H   UNL     1      47.642   3.828   5.423  0.00  0.00    +0.000 HD
ATOM     28  H   UNL     1      48.703   2.499   5.064  0.00  0.00    +0.000 HD
ENDBRANCH  21  24
ENDBRANCH  17  18
ENDBRANCH  16  17
ENDBRANCH  15  16
ENDBRANCH   5  15
TORSDOF 6
ENDMDL
