MODEL 1
REMARK VINA RESULT:    -7.764      0.000      0.000
REMARK INTER + INTRA:         -11.101
REMARK INTER:                 -10.033
REMARK INTRA:                  -1.068
REMARK UNBOUND:                -1.068
REMARK  Name = 
REMARK  5 active torsions:
REMARK  status: ('A' for Active; 'I' for Inactive)
REMARK    1  A    between atoms: C_4  and  C_5
REMARK    2  A    between atoms: C_5  and  C_6
REMARK    3  A    between atoms: C_6  and  C_7
REMARK    4  A    between atoms: C_11  and  C_12
REMARK    5  A    between atoms: C_20  and  C_21
REMARK                            x       y       z     vdW  Elec       q    Type
REMARK                         _______ _______ _______ _____ _____    ______ ____
ROOT
ATOM      1  C   UNL     1      45.689   7.348  11.300  0.00  0.00    +0.000 C 
ENDROOT
BRANCH   1   2
ATOM      2  C   UNL     1      46.884   7.101  12.196  0.00  0.00    +0.000 A 
ATOM      3  C   UNL     1      48.154   7.523  11.806  0.00  0.00    +0.000 A 
ATOM      4  C   UNL     1      49.230   7.262  12.642  0.00  0.00    +0.000 A 
ATOM      5  N   UNL     1      49.133   6.599  13.815  0.00  0.00    +0.000 NA
ATOM      6  C   UNL     1      47.909   6.147  14.181  0.00  0.00    +0.000 A 
ATOM      7  C   UNL     1      46.779   6.391  13.398  0.00  0.00    +0.000 A 
BRANCH   6   8
ATOM      8  C   UNL     1      47.840   5.385  15.440  0.00  0.00    +0.000 A 
ATOM      9  C   UNL     1      48.620   5.716  16.556  0.00  0.00    +0.000 A 
ATOM     10  C   UNL     1      48.517   4.981  17.737  0.00  0.00    +0.000 A 
ATOM     11  C   UNL     1      47.629   3.919  17.776  0.00  0.00    +0.000 A 
ATOM     12  N   UNL     1      46.860   3.554  16.734  0.00  0.00    +0.000 NA
ATOM     13  C   UNL     1      46.992   4.286  15.600  0.00  0.00    +0.000 A 
ENDBRANCH   6   8
ENDBRANCH   1   2
BRANCH   1  14
ATOM     14  C   UNL     1      44.445   6.526  11.664  0.00  0.00    +0.000 C 
BRANCH  14  18
ATOM     15  F   UNL     1      42.956   1.879  11.571  0.00  0.00    +0.000 F 
ATOM     16  C   UNL     1      43.674   2.863  11.017  0.00  0.00    +0.000 A 
ATOM     17  C   UNL     1      43.707   4.112  11.624  0.00  0.00    +0.000 A 
ATOM     18  C   UNL     1      44.440   5.153  11.042  0.00  0.00    +0.000 A 
ATOM     19  C   UNL     1      45.152   4.909   9.859  0.00  0.00    +0.000 A 
ATOM     20  C   UNL     1      45.121   3.645   9.243  0.00  0.00    +0.000 A 
ATOM     21  C   UNL     1      44.368   2.621   9.836  0.00  0.00    +0.000 A 
BRANCH  20  22
ATOM     22  C   UNL     1      45.871   3.384   7.962  0.00  0.00    +0.000 C 
ATOM     23  F   UNL     1      46.603   2.236   7.986  0.00  0.00    +0.000 F 
ATOM     24  F   UNL     1      45.041   3.276   6.889  0.00  0.00    +0.000 F 
ATOM     25  F   UNL     1      46.749   4.380   7.661  0.00  0.00    +0.000 F 
ENDBRANCH  20  22
ENDBRANCH  14  18
ENDBRANCH   1  14
TORSDOF 5
ENDMDL
MODEL 2
REMARK VINA RESULT:    -7.683      3.603      6.989
REMARK INTER + INTRA:         -10.996
REMARK INTER:                  -9.830
REMARK INTRA:                  -1.166
REMARK UNBOUND:                -1.068
REMARK  Name = 
REMARK  5 active torsions:
REMARK  status: ('A' for Active; 'I' for Inactive)
REMARK    1  A    between atoms: C_4  and  C_5
REMARK    2  A    between atoms: C_5  and  C_6
REMARK    3  A    between atoms: C_6  and  C_7
REMARK    4  A    between atoms: C_11  and  C_12
REMARK    5  A    between atoms: C_20  and  C_21
REMARK                            x       y       z     vdW  Elec       q    Type
REMARK                         _______ _______ _______ _____ _____    ______ ____
ROOT
ATOM      1  C   UNL     1      43.451   6.114  11.043  0.00  0.00    +0.000 C 
ENDROOT
BRANCH   1   2
ATOM      2  C   UNL     1      43.748   4.682  10.648  0.00  0.00    +0.000 A 
ATOM      3  C   UNL     1      43.237   3.626  11.399  0.00  0.00    +0.000 A 
ATOM      4  C   UNL     1      43.547   2.328  11.021  0.00  0.00    +0.000 A 
ATOM      5  N   UNL     1      44.337   2.013   9.971  0.00  0.00    +0.000 NA
ATOM      6  C   UNL     1      44.873   3.036   9.261  0.00  0.00    +0.000 A 
ATOM      7  C   UNL     1      44.588   4.367   9.574  0.00  0.00    +0.000 A 
BRANCH   6   8
ATOM      8  C   UNL     1      45.769   2.666   8.153  0.00  0.00    +0.000 A 
ATOM      9  C   UNL     1      46.092   3.562   7.124  0.00  0.00    +0.000 A 
ATOM     10  C   UNL     1      46.957   3.183   6.098  0.00  0.00    +0.000 A 
ATOM     11  C   UNL     1      47.483   1.902   6.120  0.00  0.00    +0.000 A 
ATOM     12  N   UNL     1      47.202   0.999   7.078  0.00  0.00    +0.000 NA
ATOM     13  C   UNL     1      46.352   1.400   8.055  0.00  0.00    +0.000 A 
ENDBRANCH   6   8
ENDBRANCH   1   2
BRANCH   1  14
ATOM     14  C   UNL     1      43.797   6.452  12.500  0.00  0.00    +0.000 C 
BRANCH  14  18
ATOM     15  F   UNL     1      47.350   3.821  14.566  0.00  0.00    +0.000 F 
ATOM     16  C   UNL     1      46.986   4.893  13.853  0.00  0.00    +0.000 A 
ATOM     17  C   UNL     1      45.639   5.116  13.593  0.00  0.00    +0.000 A 
ATOM     18  C   UNL     1      45.249   6.224  12.831  0.00  0.00    +0.000 A 
ATOM     19  C   UNL     1      46.230   7.110  12.361  0.00  0.00    +0.000 A 
ATOM     20  C   UNL     1      47.593   6.886  12.624  0.00  0.00    +0.000 A 
ATOM     21  C   UNL     1      47.962   5.761  13.376  0.00  0.00    +0.000 A 
BRANCH  20  22
ATOM     22  C   UNL     1      48.651   7.826  12.105  0.00  0.00    +0.000 C 
ATOM     23  F   UNL     1      48.254   9.128  12.078  0.00  0.00    +0.000 F 
ATOM     24  F   UNL     1      49.785   7.796  12.857  0.00  0.00    +0.000 F 
ATOM     25  F   UNL     1      49.034   7.526  10.834  0.00  0.00    +0.000 F 
ENDBRANCH  20  22
ENDBRANCH  14  18
ENDBRANCH   1  14
TORSDOF 5
ENDMDL
MODEL 3
REMARK VINA RESULT:    -7.467      3.908      7.588
REMARK INTER + INTRA:         -10.717
REMARK INTER:                  -9.738
REMARK INTRA:                  -0.979
REMARK UNBOUND:                -1.068
REMARK  Name = 
REMARK  5 active torsions:
REMARK  status: ('A' for Active; 'I' for Inactive)
REMARK    1  A    between atoms: C_4  and  C_5
REMARK    2  A    between atoms: C_5  and  C_6
REMARK    3  A    between atoms: C_6  and  C_7
REMARK    4  A    between atoms: C_11  and  C_12
REMARK    5  A    between atoms: C_20  and  C_21
REMARK                            x       y       z     vdW  Elec       q    Type
REMARK                         _______ _______ _______ _____ _____    ______ ____
ROOT
ATOM      1  C   UNL     1      44.673   6.212  12.360  0.00  0.00    +0.000 C 
ENDROOT
BRANCH   1   2
ATOM      2  C   UNL     1      44.396   4.915  11.630  0.00  0.00    +0.000 A 
ATOM      3  C   UNL     1      43.466   4.009  12.136  0.00  0.00    +0.000 A 
ATOM      4  C   UNL     1      43.251   2.821  11.453  0.00  0.00    +0.000 A 
ATOM      5  N   UNL     1      43.907   2.467  10.326  0.00  0.00    +0.000 NA
ATOM      6  C   UNL     1      44.845   3.323   9.851  0.00  0.00    +0.000 A 
ATOM      7  C   UNL     1      45.098   4.545  10.477  0.00  0.00    +0.000 A 
BRANCH   6   8
ATOM      8  C   UNL     1      45.579   2.892   8.650  0.00  0.00    +0.000 A 
ATOM      9  C   UNL     1      45.910   3.781   7.618  0.00  0.00    +0.000 A 
ATOM     10  C   UNL     1      46.619   3.340   6.501  0.00  0.00    +0.000 A 
ATOM     11  C   UNL     1      46.983   2.005   6.437  0.00  0.00    +0.000 A 
ATOM     12  N   UNL     1      46.687   1.107   7.394  0.00  0.00    +0.000 NA
ATOM     13  C   UNL     1      45.990   1.569   8.462  0.00  0.00    +0.000 A 
ENDBRANCH   6   8
ENDBRANCH   1   2
BRANCH   1  14
ATOM     14  C   UNL     1      46.078   6.783  12.124  0.00  0.00    +0.000 C 
BRANCH  14  18
ATOM     15  F   UNL     1      49.564   8.432  15.116  0.00  0.00    +0.000 F 
ATOM     16  C   UNL     1      48.712   7.456  14.777  0.00  0.00    +0.000 A 
ATOM     17  C   UNL     1      47.904   7.613  13.658  0.00  0.00    +0.000 A 
ATOM     18  C   UNL     1      46.996   6.606  13.306  0.00  0.00    +0.000 A 
ATOM     19  C   UNL     1      46.935   5.439  14.082  0.00  0.00    +0.000 A 
ATOM     20  C   UNL     1      47.753   5.279  15.214  0.00  0.00    +0.000 A 
ATOM     21  C   UNL     1      48.644   6.307  15.556  0.00  0.00    +0.000 A 
BRANCH  20  22
ATOM     22  C   UNL     1      47.677   4.033  16.060  0.00  0.00    +0.000 C 
ATOM     23  F   UNL     1      46.563   3.975  16.841  0.00  0.00    +0.000 F 
ATOM     24  F   UNL     1      47.668   2.897  15.310  0.00  0.00    +0.000 F 
ATOM     25  F   UNL     1      48.734   3.916  16.909  0.00  0.00    +0.000 F 
ENDBRANCH  20  22
ENDBRANCH  14  18
ENDBRANCH   1  14
TORSDOF 5
ENDMDL
MODEL 4
REMARK VINA RESULT:    -7.411      4.352      7.470
REMARK INTER + INTRA:         -10.644
REMARK INTER:                  -9.786
REMARK INTRA:                  -0.859
REMARK UNBOUND:                -1.068
REMARK  Name = 
REMARK  5 active torsions:
REMARK  status: ('A' for Active; 'I' for Inactive)
REMARK    1  A    between atoms: C_4  and  C_5
REMARK    2  A    between atoms: C_5  and  C_6
REMARK    3  A    between atoms: C_6  and  C_7
REMARK    4  A    between atoms: C_11  and  C_12
REMARK    5  A    between atoms: C_20  and  C_21
REMARK                            x       y       z     vdW  Elec       q    Type
REMARK                         _______ _______ _______ _____ _____    ______ ____
ROOT
ATOM      1  C   UNL     1      44.352   6.493  11.791  0.00  0.00    +0.000 C 
ENDROOT
BRANCH   1   2
ATOM      2  C   UNL     1      44.225   5.091  11.232  0.00  0.00    +0.000 A 
ATOM      3  C   UNL     1      43.402   4.158  11.860  0.00  0.00    +0.000 A 
ATOM      4  C   UNL     1      43.325   2.876  11.333  0.00  0.00    +0.000 A 
ATOM      5  N   UNL     1      44.018   2.460  10.251  0.00  0.00    +0.000 NA
ATOM      6  C   UNL     1      44.853   3.349   9.661  0.00  0.00    +0.000 A 
ATOM      7  C   UNL     1      44.966   4.661  10.126  0.00  0.00    +0.000 A 
BRANCH   6   8
ATOM      8  C   UNL     1      45.633   2.856   8.513  0.00  0.00    +0.000 A 
ATOM      9  C   UNL     1      46.010   3.691   7.453  0.00  0.00    +0.000 A 
ATOM     10  C   UNL     1      46.761   3.193   6.389  0.00  0.00    +0.000 A 
ATOM     11  C   UNL     1      47.121   1.855   6.406  0.00  0.00    +0.000 A 
ATOM     12  N   UNL     1      46.781   1.007   7.394  0.00  0.00    +0.000 NA
ATOM     13  C   UNL     1      46.044   1.524   8.408  0.00  0.00    +0.000 A 
ENDBRANCH   6   8
ENDBRANCH   1   2
BRANCH   1  14
ATOM     14  C   UNL     1      45.516   6.678  12.775  0.00  0.00    +0.000 C 
BRANCH  14  18
ATOM     15  F   UNL     1      46.348  11.414  11.940  0.00  0.00    +0.000 F 
ATOM     16  C   UNL     1      46.818  10.162  12.004  0.00  0.00    +0.000 A 
ATOM     17  C   UNL     1      45.950   9.121  12.309  0.00  0.00    +0.000 A 
ATOM     18  C   UNL     1      46.435   7.811  12.398  0.00  0.00    +0.000 A 
ATOM     19  C   UNL     1      47.795   7.568  12.153  0.00  0.00    +0.000 A 
ATOM     20  C   UNL     1      48.674   8.620  11.844  0.00  0.00    +0.000 A 
ATOM     21  C   UNL     1      48.169   9.927  11.776  0.00  0.00    +0.000 A 
BRANCH  20  22
ATOM     22  C   UNL     1      50.140   8.365  11.598  0.00  0.00    +0.000 C 
ATOM     23  F   UNL     1      50.796   9.435  11.070  0.00  0.00    +0.000 F 
ATOM     24  F   UNL     1      50.808   8.043  12.740  0.00  0.00    +0.000 F 
ATOM     25  F   UNL     1      50.350   7.334  10.734  0.00  0.00    +0.000 F 
ENDBRANCH  20  22
ENDBRANCH  14  18
ENDBRANCH   1  14
TORSDOF 5
ENDMDL
MODEL 5
REMARK VINA RESULT:    -7.378      3.950      7.202
REMARK INTER + INTRA:         -10.602
REMARK INTER:                  -9.581
REMARK INTRA:                  -1.021
REMARK UNBOUND:                -1.068
REMARK  Name = 
REMARK  5 active torsions:
REMARK  status: ('A' for Active; 'I' for Inactive)
REMARK    1  A    between atoms: C_4  and  C_5
REMARK    2  A    between atoms: C_5  and  C_6
REMARK    3  A    between atoms: C_6  and  C_7
REMARK    4  A    between atoms: C_11  and  C_12
REMARK    5  A    between atoms: C_20  and  C_21
REMARK                            x       y       z     vdW  Elec       q    Type
REMARK                         _______ _______ _______ _____ _____    ______ ____
ROOT
ATOM      1  C   UNL     1      44.716   6.509  12.278  0.00  0.00    +0.000 C 
ENDROOT
BRANCH   1   2
ATOM      2  C   UNL     1      44.409   5.187  11.607  0.00  0.00    +0.000 A 
ATOM      3  C   UNL     1      43.450   4.332  12.146  0.00  0.00    +0.000 A 
ATOM      4  C   UNL     1      43.208   3.119  11.517  0.00  0.00    +0.000 A 
ATOM      5  N   UNL     1      43.863   2.695  10.413  0.00  0.00    +0.000 NA
ATOM      6  C   UNL     1      44.827   3.502   9.908  0.00  0.00    +0.000 A 
ATOM      7  C   UNL     1      45.110   4.745  10.478  0.00  0.00    +0.000 A 
BRANCH   6   8
ATOM      8  C   UNL     1      45.558   2.995   8.734  0.00  0.00    +0.000 A 
ATOM      9  C   UNL     1      45.953   3.833   7.682  0.00  0.00    +0.000 A 
ATOM     10  C   UNL     1      46.657   3.320   6.593  0.00  0.00    +0.000 A 
ATOM     11  C   UNL     1      46.952   1.967   6.577  0.00  0.00    +0.000 A 
ATOM     12  N   UNL     1      46.592   1.116   7.556  0.00  0.00    +0.000 NA
ATOM     13  C   UNL     1      45.902   1.647   8.595  0.00  0.00    +0.000 A 
ENDBRANCH   6   8
ENDBRANCH   1   2
BRANCH   1  14
ATOM     14  C   UNL     1      45.777   7.353  11.557  0.00  0.00    +0.000 C 
BRANCH  14  18
ATOM     15  F   UNL     1      48.558   6.455  15.466  0.00  0.00    +0.000 F 
ATOM     16  C   UNL     1      48.464   6.878  14.199  0.00  0.00    +0.000 A 
ATOM     17  C   UNL     1      47.219   6.923  13.584  0.00  0.00    +0.000 A 
ATOM     18  C   UNL     1      47.113   7.346  12.253  0.00  0.00    +0.000 A 
ATOM     19  C   UNL     1      48.271   7.741  11.567  0.00  0.00    +0.000 A 
ATOM     20  C   UNL     1      49.531   7.697  12.190  0.00  0.00    +0.000 A 
ATOM     21  C   UNL     1      49.615   7.256  13.518  0.00  0.00    +0.000 A 
BRANCH  20  22
ATOM     22  C   UNL     1      50.780   8.105  11.450  0.00  0.00    +0.000 C 
ATOM     23  F   UNL     1      51.112   7.256  10.438  0.00  0.00    +0.000 F 
ATOM     24  F   UNL     1      50.667   9.337  10.882  0.00  0.00    +0.000 F 
ATOM     25  F   UNL     1      51.871   8.162  12.262  0.00  0.00    +0.000 F 
ENDBRANCH  20  22
ENDBRANCH  14  18
ENDBRANCH   1  14
TORSDOF 5
ENDMDL
MODEL 6
REMARK VINA RESULT:    -7.308      4.046      7.656
REMARK INTER + INTRA:         -10.512
REMARK INTER:                  -9.503
REMARK INTRA:                  -1.009
REMARK UNBOUND:                -1.068
REMARK  Name = 
REMARK  5 active torsions:
REMARK  status: ('A' for Active; 'I' for Inactive)
REMARK    1  A    between atoms: C_4  and  C_5
REMARK    2  A    between atoms: C_5  and  C_6
REMARK    3  A    between atoms: C_6  and  C_7
REMARK    4  A    between atoms: C_11  and  C_12
REMARK    5  A    between atoms: C_20  and  C_21
REMARK                            x       y       z     vdW  Elec       q    Type
REMARK                         _______ _______ _______ _____ _____    ______ ____
ROOT
ATOM      1  C   UNL     1      44.633   6.191  12.498  0.00  0.00    +0.000 C 
ENDROOT
BRANCH   1   2
ATOM      2  C   UNL     1      44.380   4.910  11.731  0.00  0.00    +0.000 A 
ATOM      3  C   UNL     1      43.477   3.968  12.218  0.00  0.00    +0.000 A 
ATOM      4  C   UNL     1      43.284   2.796  11.501  0.00  0.00    +0.000 A 
ATOM      5  N   UNL     1      43.937   2.493  10.357  0.00  0.00    +0.000 NA
ATOM      6  C   UNL     1      44.849   3.385   9.900  0.00  0.00    +0.000 A 
ATOM      7  C   UNL     1      45.079   4.593  10.561  0.00  0.00    +0.000 A 
BRANCH   6   8
ATOM      8  C   UNL     1      45.580   3.008   8.679  0.00  0.00    +0.000 A 
ATOM      9  C   UNL     1      46.025   1.699   8.449  0.00  0.00    +0.000 A 
ATOM     10  C   UNL     1      46.703   1.376   7.274  0.00  0.00    +0.000 A 
ATOM     11  C   UNL     1      46.926   2.379   6.345  0.00  0.00    +0.000 A 
ATOM     12  N   UNL     1      46.527   3.653   6.516  0.00  0.00    +0.000 NA
ATOM     13  C   UNL     1      45.878   3.932   7.674  0.00  0.00    +0.000 A 
ENDBRANCH   6   8
ENDBRANCH   1   2
BRANCH   1  14
ATOM     14  C   UNL     1      45.524   7.203  11.763  0.00  0.00    +0.000 C 
BRANCH  14  18
ATOM     15  F   UNL     1      50.300   7.942  11.080  0.00  0.00    +0.000 F 
ATOM     16  C   UNL     1      49.298   7.606  11.903  0.00  0.00    +0.000 A 
ATOM     17  C   UNL     1      48.000   7.551  11.412  0.00  0.00    +0.000 A 
ATOM     18  C   UNL     1      46.943   7.219  12.269  0.00  0.00    +0.000 A 
ATOM     19  C   UNL     1      47.220   6.924  13.613  0.00  0.00    +0.000 A 
ATOM     20  C   UNL     1      48.534   6.979  14.110  0.00  0.00    +0.000 A 
ATOM     21  C   UNL     1      49.574   7.329  13.236  0.00  0.00    +0.000 A 
BRANCH  20  22
ATOM     22  C   UNL     1      48.832   6.680  15.557  0.00  0.00    +0.000 C 
ATOM     23  F   UNL     1      48.137   5.615  16.045  0.00  0.00    +0.000 F 
ATOM     24  F   UNL     1      50.147   6.396  15.767  0.00  0.00    +0.000 F 
ATOM     25  F   UNL     1      48.537   7.726  16.376  0.00  0.00    +0.000 F 
ENDBRANCH  20  22
ENDBRANCH  14  18
ENDBRANCH   1  14
TORSDOF 5
ENDMDL
MODEL 7
REMARK VINA RESULT:    -7.303      0.846      1.268
REMARK INTER + INTRA:         -10.506
REMARK INTER:                  -9.546
REMARK INTRA:                  -0.960
REMARK UNBOUND:                -1.068
REMARK  Name = 
REMARK  5 active torsions:
REMARK  status: ('A' for Active; 'I' for Inactive)
REMARK    1  A    between atoms: C_4  and  C_5
REMARK    2  A    between atoms: C_5  and  C_6
REMARK    3  A    between atoms: C_6  and  C_7
REMARK    4  A    between atoms: C_11  and  C_12
REMARK    5  A    between atoms: C_20  and  C_21
REMARK                            x       y       z     vdW  Elec       q    Type
REMARK                         _______ _______ _______ _____ _____    ______ ____
ROOT
ATOM      1  C   UNL     1      47.166   7.036  11.629  0.00  0.00    +0.000 C 
ENDROOT
BRANCH   1   2
ATOM      2  C   UNL     1      47.995   6.948  12.893  0.00  0.00    +0.000 A 
ATOM      3  C   UNL     1      49.141   7.729  13.037  0.00  0.00    +0.000 A 
ATOM      4  C   UNL     1      49.889   7.608  14.198  0.00  0.00    +0.000 A 
ATOM      5  N   UNL     1      49.590   6.758  15.206  0.00  0.00    +0.000 NA
ATOM      6  C   UNL     1      48.502   5.965  15.056  0.00  0.00    +0.000 A 
ATOM      7  C   UNL     1      47.692   6.047  13.921  0.00  0.00    +0.000 A 
BRANCH   6   8
ATOM      8  C   UNL     1      48.226   5.015  16.146  0.00  0.00    +0.000 A 
ATOM      9  C   UNL     1      49.034   4.935  17.289  0.00  0.00    +0.000 A 
ATOM     10  C   UNL     1      48.734   4.032  18.309  0.00  0.00    +0.000 A 
ATOM     11  C   UNL     1      47.623   3.219  18.163  0.00  0.00    +0.000 A 
ATOM     12  N   UNL     1      46.816   3.249  17.086  0.00  0.00    +0.000 NA
ATOM     13  C   UNL     1      47.142   4.133  16.111  0.00  0.00    +0.000 A 
ENDBRANCH   6   8
ENDBRANCH   1   2
BRANCH   1  14
ATOM     14  C   UNL     1      45.668   6.772  11.837  0.00  0.00    +0.000 C 
BRANCH  14  18
ATOM     15  F   UNL     1      43.192   2.589  12.275  0.00  0.00    +0.000 F 
ATOM     16  C   UNL     1      43.975   3.385  11.536  0.00  0.00    +0.000 A 
ATOM     17  C   UNL     1      44.417   4.591  12.065  0.00  0.00    +0.000 A 
ATOM     18  C   UNL     1      45.221   5.439  11.294  0.00  0.00    +0.000 A 
ATOM     19  C   UNL     1      45.586   5.043   9.998  0.00  0.00    +0.000 A 
ATOM     20  C   UNL     1      45.140   3.823   9.462  0.00  0.00    +0.000 A 
ATOM     21  C   UNL     1      44.323   2.996  10.247  0.00  0.00    +0.000 A 
BRANCH  20  22
ATOM     22  C   UNL     1      45.516   3.403   8.064  0.00  0.00    +0.000 C 
ATOM     23  F   UNL     1      44.476   3.450   7.185  0.00  0.00    +0.000 F 
ATOM     24  F   UNL     1      46.490   4.189   7.531  0.00  0.00    +0.000 F 
ATOM     25  F   UNL     1      45.990   2.128   8.013  0.00  0.00    +0.000 F 
ENDBRANCH  20  22
ENDBRANCH  14  18
ENDBRANCH   1  14
TORSDOF 5
ENDMDL
MODEL 8
REMARK VINA RESULT:    -7.181      4.153      7.542
REMARK INTER + INTRA:         -10.348
REMARK INTER:                  -9.378
REMARK INTRA:                  -0.969
REMARK UNBOUND:                -1.068
REMARK  Name = 
REMARK  5 active torsions:
REMARK  status: ('A' for Active; 'I' for Inactive)
REMARK    1  A    between atoms: C_4  and  C_5
REMARK    2  A    between atoms: C_5  and  C_6
REMARK    3  A    between atoms: C_6  and  C_7
REMARK    4  A    between atoms: C_11  and  C_12
REMARK    5  A    between atoms: C_20  and  C_21
REMARK                            x       y       z     vdW  Elec       q    Type
REMARK                         _______ _______ _______ _____ _____    ______ ____
ROOT
ATOM      1  C   UNL     1      43.758   6.468  11.349  0.00  0.00    +0.000 C 
ENDROOT
BRANCH   1   2
ATOM      2  C   UNL     1      43.864   5.020  10.916  0.00  0.00    +0.000 A 
ATOM      3  C   UNL     1      43.206   4.023  11.633  0.00  0.00    +0.000 A 
ATOM      4  C   UNL     1      43.341   2.705  11.221  0.00  0.00    +0.000 A 
ATOM      5  N   UNL     1      44.096   2.315  10.170  0.00  0.00    +0.000 NA
ATOM      6  C   UNL     1      44.774   3.274   9.494  0.00  0.00    +0.000 A 
ATOM      7  C   UNL     1      44.668   4.622   9.842  0.00  0.00    +0.000 A 
BRANCH   6   8
ATOM      8  C   UNL     1      45.626   2.816   8.384  0.00  0.00    +0.000 A 
ATOM      9  C   UNL     1      46.160   1.521   8.338  0.00  0.00    +0.000 A 
ATOM     10  C   UNL     1      46.952   1.118   7.262  0.00  0.00    +0.000 A 
ATOM     11  C   UNL     1      47.196   2.028   6.247  0.00  0.00    +0.000 A 
ATOM     12  N   UNL     1      46.715   3.284   6.242  0.00  0.00    +0.000 NA
ATOM     13  C   UNL     1      45.956   3.644   7.307  0.00  0.00    +0.000 A 
ENDBRANCH   6   8
ENDBRANCH   1   2
BRANCH   1  14
ATOM     14  C   UNL     1      44.426   6.775  12.696  0.00  0.00    +0.000 C 
BRANCH  14  18
ATOM     15  F   UNL     1      49.292   6.471  12.465  0.00  0.00    +0.000 F 
ATOM     16  C   UNL     1      48.188   7.228  12.428  0.00  0.00    +0.000 A 
ATOM     17  C   UNL     1      46.945   6.633  12.608  0.00  0.00    +0.000 A 
ATOM     18  C   UNL     1      45.784   7.413  12.552  0.00  0.00    +0.000 A 
ATOM     19  C   UNL     1      45.898   8.795  12.336  0.00  0.00    +0.000 A 
ATOM     20  C   UNL     1      47.155   9.397  12.155  0.00  0.00    +0.000 A 
ATOM     21  C   UNL     1      48.304   8.594  12.200  0.00  0.00    +0.000 A 
BRANCH  20  22
ATOM     22  C   UNL     1      47.280  10.879  11.906  0.00  0.00    +0.000 C 
ATOM     23  F   UNL     1      48.187  11.491  12.717  0.00  0.00    +0.000 F 
ATOM     24  F   UNL     1      47.669  11.159  10.632  0.00  0.00    +0.000 F 
ATOM     25  F   UNL     1      46.105  11.539  12.094  0.00  0.00    +0.000 F 
ENDBRANCH  20  22
ENDBRANCH  14  18
ENDBRANCH   1  14
TORSDOF 5
ENDMDL
MODEL 9
REMARK VINA RESULT:    -6.798      3.808      7.095
REMARK INTER + INTRA:          -9.853
REMARK INTER:                  -8.701
REMARK INTRA:                  -1.153
REMARK UNBOUND:                -1.068
REMARK  Name = 
REMARK  5 active torsions:
REMARK  status: ('A' for Active; 'I' for Inactive)
REMARK    1  A    between atoms: C_4  and  C_5
REMARK    2  A    between atoms: C_5  and  C_6
REMARK    3  A    between atoms: C_6  and  C_7
REMARK    4  A    between atoms: C_11  and  C_12
REMARK    5  A    between atoms: C_20  and  C_21
REMARK                            x       y       z     vdW  Elec       q    Type
REMARK                         _______ _______ _______ _____ _____    ______ ____
ROOT
ATOM      1  C   UNL     1      49.251   7.226  14.159  0.00  0.00    +0.000 C 
ENDROOT
BRANCH   1   2
ATOM      2  C   UNL     1      47.862   7.334  13.566  0.00  0.00    +0.000 A 
ATOM      3  C   UNL     1      47.225   8.571  13.490  0.00  0.00    +0.000 A 
ATOM      4  C   UNL     1      45.945   8.631  12.960  0.00  0.00    +0.000 A 
ATOM      5  N   UNL     1      45.255   7.553  12.525  0.00  0.00    +0.000 NA
ATOM      6  C   UNL     1      45.850   6.341  12.636  0.00  0.00    +0.000 A 
ATOM      7  C   UNL     1      47.145   6.210  13.141  0.00  0.00    +0.000 A 
BRANCH   6   8
ATOM      8  C   UNL     1      45.058   5.179  12.199  0.00  0.00    +0.000 A 
ATOM      9  C   UNL     1      44.894   4.853  10.846  0.00  0.00    +0.000 A 
ATOM     10  C   UNL     1      44.149   3.736  10.470  0.00  0.00    +0.000 A 
ATOM     11  C   UNL     1      43.576   2.961  11.466  0.00  0.00    +0.000 A 
ATOM     12  N   UNL     1      43.695   3.230  12.779  0.00  0.00    +0.000 NA
ATOM     13  C   UNL     1      44.420   4.328  13.107  0.00  0.00    +0.000 A 
ENDBRANCH   6   8
ENDBRANCH   1   2
BRANCH   1  14
ATOM     14  C   UNL     1      49.369   7.757  15.595  0.00  0.00    +0.000 C 
BRANCH  14  18
ATOM     15  F   UNL     1      47.343   6.885  19.949  0.00  0.00    +0.000 F 
ATOM     16  C   UNL     1      47.793   6.414  18.779  0.00  0.00    +0.000 A 
ATOM     17  C   UNL     1      48.350   7.291  17.858  0.00  0.00    +0.000 A 
ATOM     18  C   UNL     1      48.807   6.811  16.624  0.00  0.00    +0.000 A 
ATOM     19  C   UNL     1      48.713   5.438  16.348  0.00  0.00    +0.000 A 
ATOM     20  C   UNL     1      48.150   4.549  17.280  0.00  0.00    +0.000 A 
ATOM     21  C   UNL     1      47.685   5.055  18.503  0.00  0.00    +0.000 A 
BRANCH  20  22
ATOM     22  C   UNL     1      48.031   3.077  16.979  0.00  0.00    +0.000 C 
ATOM     23  F   UNL     1      47.018   2.465  17.654  0.00  0.00    +0.000 F 
ATOM     24  F   UNL     1      47.801   2.835  15.660  0.00  0.00    +0.000 F 
ATOM     25  F   UNL     1      49.161   2.388  17.298  0.00  0.00    +0.000 F 
ENDBRANCH  20  22
ENDBRANCH  14  18
ENDBRANCH   1  14
TORSDOF 5
ENDMDL
