MODEL 1
REMARK VINA RESULT:    -8.652      0.000      0.000
REMARK INTER + INTRA:         -12.451
REMARK INTER:                 -11.687
REMARK INTRA:                  -0.765
REMARK UNBOUND:                -0.765
REMARK  Name = 
REMARK  6 active torsions:
REMARK  status: ('A' for Active; 'I' for Inactive)
REMARK    1  A    between atoms: C_2  and  C_4
REMARK    2  A    between atoms: N_8  and  C_9
REMARK    3  A    between atoms: C_9  and  C_10
REMARK    4  A    between atoms: C_10  and  C_11
REMARK    5  A    between atoms: C_15  and  O_16
REMARK    6  A    between atoms: O_16  and  C_17
REMARK                            x       y       z     vdW  Elec       q    Type
REMARK                         _______ _______ _______ _____ _____    ______ ____
ROOT
ATOM      1  C   UNL     1      46.611   2.660   7.595  0.00  0.00    +0.000 A 
ATOM      2  C   UNL     1      45.763   1.953   8.440  0.00  0.00    +0.000 A 
ATOM      3  C   UNL     1      44.814   2.649   9.191  0.00  0.00    +0.000 A 
ATOM      4  C   UNL     1      44.742   4.035   9.099  0.00  0.00    +0.000 A 
ATOM      5  N   UNL     1      43.772   4.790   9.744  0.00  0.00    +0.000 N 
ATOM      6  N   UNL     1      45.581   4.735   8.312  0.00  0.00    +0.000 NA
ATOM      7  C   UNL     1      46.497   4.043   7.583  0.00  0.00    +0.000 A 
ATOM      8  H   UNL     1      44.036   5.765   9.616  0.00  0.00    +0.000 HD
ENDROOT
BRANCH   1  10
ATOM      9  N   UNL     1      48.081   2.740   5.666  0.00  0.00    +0.000 N 
ATOM     10  C   UNL     1      47.605   2.007   6.720  0.00  0.00    +0.000 C 
ATOM     11  O   UNL     1      48.017   0.880   6.947  0.00  0.00    +0.000 OA
ATOM     12  H   UNL     1      48.843   2.328   5.141  0.00  0.00    +0.000 HD
ATOM     13  H   UNL     1      47.962   3.741   5.601  0.00  0.00    +0.000 HD
ENDBRANCH   1  10
BRANCH   5  14
ATOM     14  C   UNL     1      43.358   4.407  11.086  0.00  0.00    +0.000 C 
BRANCH  14  15
ATOM     15  C   UNL     1      43.554   5.577  12.057  0.00  0.00    +0.000 C 
BRANCH  15  16
ATOM     16  C   UNL     1      44.925   5.556  12.681  0.00  0.00    +0.000 A 
ATOM     17  C   UNL     1      45.742   6.683  12.619  0.00  0.00    +0.000 A 
ATOM     18  N   UNL     1      46.974   6.754  13.167  0.00  0.00    +0.000 NA
ATOM     19  C   UNL     1      47.411   5.646  13.808  0.00  0.00    +0.000 A 
ATOM     20  C   UNL     1      46.674   4.477  13.948  0.00  0.00    +0.000 A 
ATOM     21  C   UNL     1      45.409   4.430  13.367  0.00  0.00    +0.000 A 
BRANCH  20  22
ATOM     22  O   UNL     1      47.283   3.457  14.627  0.00  0.00    +0.000 OA
BRANCH  22  23
ATOM     23  C   UNL     1      47.932   3.734  15.884  0.00  0.00    +0.000 C 
ATOM     24  C   UNL     1      48.514   2.529  16.671  0.00  0.00    +0.000 C 
ATOM     25  C   UNL     1      47.997   3.202  17.958  0.00  0.00    +0.000 C 
ATOM     26  C   UNL     1      46.954   3.913  17.079  0.00  0.00    +0.000 C 
ENDBRANCH  22  23
ENDBRANCH  20  22
ENDBRANCH  15  16
ENDBRANCH  14  15
ENDBRANCH   5  14
TORSDOF 6
ENDMDL
MODEL 2
REMARK VINA RESULT:    -8.295      1.839      3.137
REMARK INTER + INTRA:         -11.970
REMARK INTER:                 -11.092
REMARK INTRA:                  -0.877
REMARK UNBOUND:                -0.765
REMARK  Name = 
REMARK  6 active torsions:
REMARK  status: ('A' for Active; 'I' for Inactive)
REMARK    1  A    between atoms: C_2  and  C_4
REMARK    2  A    between atoms: N_8  and  C_9
REMARK    3  A    between atoms: C_9  and  C_10
REMARK    4  A    between atoms: C_10  and  C_11
REMARK    5  A    between atoms: C_15  and  O_16
REMARK    6  A    between atoms: O_16  and  C_17
REMARK                            x       y       z     vdW  Elec       q    Type
REMARK                         _______ _______ _______ _____ _____    ______ ____
ROOT
ATOM      1  C   UNL     1      46.633   2.567   7.705  0.00  0.00    +0.000 A 
ATOM      2  C   UNL     1      45.711   1.914   8.515  0.00  0.00    +0.000 A 
ATOM      3  C   UNL     1      44.733   2.661   9.174  0.00  0.00    +0.000 A 
ATOM      4  C   UNL     1      44.704   4.044   9.026  0.00  0.00    +0.000 A 
ATOM      5  N   UNL     1      43.713   4.846   9.574  0.00  0.00    +0.000 N 
ATOM      6  N   UNL     1      45.612   4.692   8.273  0.00  0.00    +0.000 NA
ATOM      7  C   UNL     1      46.557   3.951   7.634  0.00  0.00    +0.000 A 
ATOM      8  H   UNL     1      44.011   5.809   9.429  0.00  0.00    +0.000 HD
ENDROOT
BRANCH   1  10
ATOM      9  N   UNL     1      48.564   2.628   6.236  0.00  0.00    +0.000 N 
ATOM     10  C   UNL     1      47.666   1.857   6.925  0.00  0.00    +0.000 C 
ATOM     11  O   UNL     1      47.745   0.638   6.925  0.00  0.00    +0.000 OA
ATOM     12  H   UNL     1      49.334   2.137   5.799  0.00  0.00    +0.000 HD
ATOM     13  H   UNL     1      48.686   3.615   6.418  0.00  0.00    +0.000 HD
ENDBRANCH   1  10
BRANCH   5  14
ATOM     14  C   UNL     1      43.199   4.526  10.898  0.00  0.00    +0.000 C 
BRANCH  14  15
ATOM     15  C   UNL     1      43.570   5.631  11.894  0.00  0.00    +0.000 C 
BRANCH  15  16
ATOM     16  C   UNL     1      44.883   5.344  12.576  0.00  0.00    +0.000 A 
ATOM     17  C   UNL     1      45.241   4.033  12.887  0.00  0.00    +0.000 A 
ATOM     18  N   UNL     1      46.404   3.687  13.479  0.00  0.00    +0.000 NA
ATOM     19  C   UNL     1      47.250   4.700  13.777  0.00  0.00    +0.000 A 
ATOM     20  C   UNL     1      47.005   6.038  13.494  0.00  0.00    +0.000 A 
ATOM     21  C   UNL     1      45.794   6.365  12.888  0.00  0.00    +0.000 A 
BRANCH  20  22
ATOM     22  O   UNL     1      47.978   6.923  13.873  0.00  0.00    +0.000 OA
BRANCH  22  23
ATOM     23  C   UNL     1      49.140   7.095  13.037  0.00  0.00    +0.000 C 
ATOM     24  C   UNL     1      49.992   8.375  13.250  0.00  0.00    +0.000 C 
ATOM     25  C   UNL     1      50.142   8.452  11.718  0.00  0.00    +0.000 C 
ATOM     26  C   UNL     1      48.827   7.659  11.623  0.00  0.00    +0.000 C 
ENDBRANCH  22  23
ENDBRANCH  20  22
ENDBRANCH  15  16
ENDBRANCH  14  15
ENDBRANCH   5  14
TORSDOF 6
ENDMDL
MODEL 3
REMARK VINA RESULT:    -7.306      2.355      8.174
REMARK INTER + INTRA:         -10.633
REMARK INTER:                 -10.103
REMARK INTRA:                  -0.531
REMARK UNBOUND:                -0.765
REMARK  Name = 
REMARK  6 active torsions:
REMARK  status: ('A' for Active; 'I' for Inactive)
REMARK    1  A    between atoms: C_2  and  C_4
REMARK    2  A    between atoms: N_8  and  C_9
REMARK    3  A    between atoms: C_9  and  C_10
REMARK    4  A    between atoms: C_10  and  C_11
REMARK    5  A    between atoms: C_15  and  O_16
REMARK    6  A    between atoms: O_16  and  C_17
REMARK                            x       y       z     vdW  Elec       q    Type
REMARK                         _______ _______ _______ _____ _____    ______ ____
ROOT
ATOM      1  C   UNL     1      48.550   4.234  17.019  0.00  0.00    +0.000 A 
ATOM      2  C   UNL     1      47.564   3.560  16.308  0.00  0.00    +0.000 A 
ATOM      3  C   UNL     1      47.026   4.151  15.163  0.00  0.00    +0.000 A 
ATOM      4  C   UNL     1      47.468   5.408  14.761  0.00  0.00    +0.000 A 
ATOM      5  N   UNL     1      47.049   6.022  13.590  0.00  0.00    +0.000 N 
ATOM      6  N   UNL     1      48.396   6.086  15.462  0.00  0.00    +0.000 NA
ATOM      7  C   UNL     1      48.914   5.497  16.573  0.00  0.00    +0.000 A 
ATOM      8  H   UNL     1      47.416   6.971  13.616  0.00  0.00    +0.000 HD
ENDROOT
BRANCH   1  10
ATOM      9  N   UNL     1      48.416   3.308  19.259  0.00  0.00    +0.000 N 
ATOM     10  C   UNL     1      49.218   3.665  18.208  0.00  0.00    +0.000 C 
ATOM     11  O   UNL     1      50.425   3.483  18.239  0.00  0.00    +0.000 OA
ATOM     12  H   UNL     1      48.869   2.815  20.019  0.00  0.00    +0.000 HD
ATOM     13  H   UNL     1      47.415   3.204  19.169  0.00  0.00    +0.000 HD
ENDBRANCH   1  10
BRANCH   5  14
ATOM     14  C   UNL     1      45.659   5.884  13.180  0.00  0.00    +0.000 C 
BRANCH  14  15
ATOM     15  C   UNL     1      45.499   6.270  11.705  0.00  0.00    +0.000 C 
BRANCH  15  16
ATOM     16  C   UNL     1      45.128   5.081  10.857  0.00  0.00    +0.000 A 
ATOM     17  C   UNL     1      44.415   4.019  11.411  0.00  0.00    +0.000 A 
ATOM     18  N   UNL     1      44.027   2.926  10.719  0.00  0.00    +0.000 NA
ATOM     19  C   UNL     1      44.370   2.892   9.411  0.00  0.00    +0.000 A 
ATOM     20  C   UNL     1      45.060   3.901   8.753  0.00  0.00    +0.000 A 
ATOM     21  C   UNL     1      45.452   5.013   9.493  0.00  0.00    +0.000 A 
BRANCH  20  22
ATOM     22  O   UNL     1      45.320   3.687   7.426  0.00  0.00    +0.000 OA
BRANCH  22  23
ATOM     23  C   UNL     1      46.670   3.397   7.008  0.00  0.00    +0.000 C 
ATOM     24  C   UNL     1      46.903   3.088   5.505  0.00  0.00    +0.000 C 
ATOM     25  C   UNL     1      47.894   1.994   5.950  0.00  0.00    +0.000 C 
ATOM     26  C   UNL     1      47.117   1.933   7.277  0.00  0.00    +0.000 C 
ENDBRANCH  22  23
ENDBRANCH  20  22
ENDBRANCH  15  16
ENDBRANCH  14  15
ENDBRANCH   5  14
TORSDOF 6
ENDMDL
MODEL 4
REMARK VINA RESULT:    -7.061      2.554      8.161
REMARK INTER + INTRA:         -10.302
REMARK INTER:                  -9.850
REMARK INTRA:                  -0.452
REMARK UNBOUND:                -0.765
REMARK  Name = 
REMARK  6 active torsions:
REMARK  status: ('A' for Active; 'I' for Inactive)
REMARK    1  A    between atoms: C_2  and  C_4
REMARK    2  A    between atoms: N_8  and  C_9
REMARK    3  A    between atoms: C_9  and  C_10
REMARK    4  A    between atoms: C_10  and  C_11
REMARK    5  A    between atoms: C_15  and  O_16
REMARK    6  A    between atoms: O_16  and  C_17
REMARK                            x       y       z     vdW  Elec       q    Type
REMARK                         _______ _______ _______ _____ _____    ______ ____
ROOT
ATOM      1  C   UNL     1      48.963   4.191  17.057  0.00  0.00    +0.000 A 
ATOM      2  C   UNL     1      48.948   5.502  16.594  0.00  0.00    +0.000 A 
ATOM      3  C   UNL     1      48.053   5.856  15.583  0.00  0.00    +0.000 A 
ATOM      4  C   UNL     1      47.206   4.895  15.041  0.00  0.00    +0.000 A 
ATOM      5  N   UNL     1      46.230   5.186  14.098  0.00  0.00    +0.000 N 
ATOM      6  N   UNL     1      47.236   3.614  15.456  0.00  0.00    +0.000 NA
ATOM      7  C   UNL     1      48.110   3.284  16.444  0.00  0.00    +0.000 A 
ATOM      8  H   UNL     1      45.860   4.291  13.783  0.00  0.00    +0.000 HD
ENDROOT
BRANCH   1  10
ATOM      9  N   UNL     1      50.645   2.663  17.910  0.00  0.00    +0.000 N 
ATOM     10  C   UNL     1      49.832   3.736  18.161  0.00  0.00    +0.000 C 
ATOM     11  O   UNL     1      49.858   4.314  19.237  0.00  0.00    +0.000 OA
ATOM     12  H   UNL     1      51.317   2.431  18.631  0.00  0.00    +0.000 HD
ATOM     13  H   UNL     1      50.836   2.332  16.975  0.00  0.00    +0.000 HD
ENDBRANCH   1  10
BRANCH   5  14
ATOM     14  C   UNL     1      46.524   6.161  13.058  0.00  0.00    +0.000 C 
BRANCH  14  15
ATOM     15  C   UNL     1      45.245   6.526  12.296  0.00  0.00    +0.000 C 
BRANCH  15  16
ATOM     16  C   UNL     1      44.970   5.555  11.177  0.00  0.00    +0.000 A 
ATOM     17  C   UNL     1      43.907   4.659  11.272  0.00  0.00    +0.000 A 
ATOM     18  N   UNL     1      43.580   3.770  10.309  0.00  0.00    +0.000 NA
ATOM     19  C   UNL     1      44.353   3.776   9.199  0.00  0.00    +0.000 A 
ATOM     20  C   UNL     1      45.422   4.638   8.991  0.00  0.00    +0.000 A 
ATOM     21  C   UNL     1      45.739   5.540  10.003  0.00  0.00    +0.000 A 
BRANCH  20  22
ATOM     22  O   UNL     1      46.090   4.494   7.805  0.00  0.00    +0.000 OA
BRANCH  22  23
ATOM     23  C   UNL     1      46.034   3.232   7.110  0.00  0.00    +0.000 C 
ATOM     24  C   UNL     1      46.948   2.089   7.628  0.00  0.00    +0.000 C 
ATOM     25  C   UNL     1      47.217   1.724   6.155  0.00  0.00    +0.000 C 
ATOM     26  C   UNL     1      46.882   3.185   5.808  0.00  0.00    +0.000 C 
ENDBRANCH  22  23
ENDBRANCH  20  22
ENDBRANCH  15  16
ENDBRANCH  14  15
ENDBRANCH   5  14
TORSDOF 6
ENDMDL
MODEL 5
REMARK VINA RESULT:    -6.588      3.510      7.132
REMARK INTER + INTRA:          -9.664
REMARK INTER:                  -9.123
REMARK INTRA:                  -0.541
REMARK UNBOUND:                -0.765
REMARK  Name = 
REMARK  6 active torsions:
REMARK  status: ('A' for Active; 'I' for Inactive)
REMARK    1  A    between atoms: C_2  and  C_4
REMARK    2  A    between atoms: N_8  and  C_9
REMARK    3  A    between atoms: C_9  and  C_10
REMARK    4  A    between atoms: C_10  and  C_11
REMARK    5  A    between atoms: C_15  and  O_16
REMARK    6  A    between atoms: O_16  and  C_17
REMARK                            x       y       z     vdW  Elec       q    Type
REMARK                         _______ _______ _______ _____ _____    ______ ____
ROOT
ATOM      1  C   UNL     1      49.312   8.042  12.323  0.00  0.00    +0.000 A 
ATOM      2  C   UNL     1      48.154   8.792  12.149  0.00  0.00    +0.000 A 
ATOM      3  C   UNL     1      46.920   8.221  12.463  0.00  0.00    +0.000 A 
ATOM      4  C   UNL     1      46.862   6.910  12.925  0.00  0.00    +0.000 A 
ATOM      5  N   UNL     1      45.687   6.301  13.341  0.00  0.00    +0.000 N 
ATOM      6  N   UNL     1      47.974   6.162  13.064  0.00  0.00    +0.000 NA
ATOM      7  C   UNL     1      49.169   6.733  12.759  0.00  0.00    +0.000 A 
ATOM      8  H   UNL     1      45.911   5.320  13.494  0.00  0.00    +0.000 HD
ENDROOT
BRANCH   1  10
ATOM      9  N   UNL     1      51.670   8.135  12.890  0.00  0.00    +0.000 N 
ATOM     10  C   UNL     1      50.665   8.580  12.073  0.00  0.00    +0.000 C 
ATOM     11  O   UNL     1      50.888   9.354  11.155  0.00  0.00    +0.000 OA
ATOM     12  H   UNL     1      52.610   8.419  12.639  0.00  0.00    +0.000 HD
ATOM     13  H   UNL     1      51.574   7.319  13.477  0.00  0.00    +0.000 HD
ENDBRANCH   1  10
BRANCH   5  14
ATOM     14  C   UNL     1      44.457   6.573  12.613  0.00  0.00    +0.000 C 
BRANCH  14  15
ATOM     15  C   UNL     1      44.654   6.304  11.116  0.00  0.00    +0.000 C 
BRANCH  15  16
ATOM     16  C   UNL     1      44.427   4.853  10.779  0.00  0.00    +0.000 A 
ATOM     17  C   UNL     1      43.594   4.070  11.575  0.00  0.00    +0.000 A 
ATOM     18  N   UNL     1      43.322   2.769  11.334  0.00  0.00    +0.000 NA
ATOM     19  C   UNL     1      43.913   2.224  10.246  0.00  0.00    +0.000 A 
ATOM     20  C   UNL     1      44.744   2.916   9.374  0.00  0.00    +0.000 A 
ATOM     21  C   UNL     1      45.010   4.255   9.651  0.00  0.00    +0.000 A 
BRANCH  20  22
ATOM     22  O   UNL     1      45.253   2.196   8.327  0.00  0.00    +0.000 OA
BRANCH  22  23
ATOM     23  C   UNL     1      46.545   2.547   7.791  0.00  0.00    +0.000 C 
ATOM     24  C   UNL     1      46.588   3.135   6.354  0.00  0.00    +0.000 C 
ATOM     25  C   UNL     1      47.855   2.291   6.116  0.00  0.00    +0.000 C 
ATOM     26  C   UNL     1      47.342   1.343   7.214  0.00  0.00    +0.000 C 
ENDBRANCH  22  23
ENDBRANCH  20  22
ENDBRANCH  15  16
ENDBRANCH  14  15
ENDBRANCH   5  14
TORSDOF 6
ENDMDL
MODEL 6
REMARK VINA RESULT:    -6.084      3.263      4.732
REMARK INTER + INTRA:          -8.983
REMARK INTER:                  -7.982
REMARK INTRA:                  -1.001
REMARK UNBOUND:                -0.765
REMARK  Name = 
REMARK  6 active torsions:
REMARK  status: ('A' for Active; 'I' for Inactive)
REMARK    1  A    between atoms: C_2  and  C_4
REMARK    2  A    between atoms: N_8  and  C_9
REMARK    3  A    between atoms: C_9  and  C_10
REMARK    4  A    between atoms: C_10  and  C_11
REMARK    5  A    between atoms: C_15  and  O_16
REMARK    6  A    between atoms: O_16  and  C_17
REMARK                            x       y       z     vdW  Elec       q    Type
REMARK                         _______ _______ _______ _____ _____    ______ ____
ROOT
ATOM      1  C   UNL     1      44.814   4.514  11.699  0.00  0.00    +0.000 A 
ATOM      2  C   UNL     1      45.868   4.622  12.599  0.00  0.00    +0.000 A 
ATOM      3  C   UNL     1      46.495   5.858  12.768  0.00  0.00    +0.000 A 
ATOM      4  C   UNL     1      46.072   6.955  12.025  0.00  0.00    +0.000 A 
ATOM      5  N   UNL     1      46.583   8.233  12.199  0.00  0.00    +0.000 N 
ATOM      6  N   UNL     1      45.076   6.855  11.125  0.00  0.00    +0.000 NA
ATOM      7  C   UNL     1      44.471   5.647  10.973  0.00  0.00    +0.000 A 
ATOM      8  H   UNL     1      46.200   8.800  11.445  0.00  0.00    +0.000 HD
ENDROOT
BRANCH   1  10
ATOM      9  N   UNL     1      43.799   2.504  12.604  0.00  0.00    +0.000 N 
ATOM     10  C   UNL     1      44.053   3.265  11.495  0.00  0.00    +0.000 C 
ATOM     11  O   UNL     1      43.633   2.943  10.393  0.00  0.00    +0.000 OA
ATOM     12  H   UNL     1      43.181   1.712  12.472  0.00  0.00    +0.000 HD
ATOM     13  H   UNL     1      43.902   2.861  13.544  0.00  0.00    +0.000 HD
ENDBRANCH   1  10
BRANCH   5  14
ATOM     14  C   UNL     1      48.005   8.394  12.464  0.00  0.00    +0.000 C 
BRANCH  14  15
ATOM     15  C   UNL     1      48.223   9.381  13.617  0.00  0.00    +0.000 C 
BRANCH  15  16
ATOM     16  C   UNL     1      48.450   8.666  14.924  0.00  0.00    +0.000 A 
ATOM     17  C   UNL     1      48.255   9.333  16.132  0.00  0.00    +0.000 A 
ATOM     18  N   UNL     1      48.418   8.763  17.345  0.00  0.00    +0.000 NA
ATOM     19  C   UNL     1      48.794   7.463  17.352  0.00  0.00    +0.000 A 
ATOM     20  C   UNL     1      48.995   6.698  16.211  0.00  0.00    +0.000 A 
ATOM     21  C   UNL     1      48.826   7.314  14.973  0.00  0.00    +0.000 A 
BRANCH  20  22
ATOM     22  O   UNL     1      49.377   5.399  16.415  0.00  0.00    +0.000 OA
BRANCH  22  23
ATOM     23  C   UNL     1      48.629   4.579  17.336  0.00  0.00    +0.000 C 
ATOM     24  C   UNL     1      48.977   3.068  17.395  0.00  0.00    +0.000 C 
ATOM     25  C   UNL     1      47.466   2.790  17.515  0.00  0.00    +0.000 C 
ATOM     26  C   UNL     1      47.237   4.136  16.805  0.00  0.00    +0.000 C 
ENDBRANCH  22  23
ENDBRANCH  20  22
ENDBRANCH  15  16
ENDBRANCH  14  15
ENDBRANCH   5  14
TORSDOF 6
ENDMDL
MODEL 7
REMARK VINA RESULT:    -5.846      4.375      7.499
REMARK INTER + INTRA:          -8.662
REMARK INTER:                  -8.173
REMARK INTRA:                  -0.489
REMARK UNBOUND:                -0.765
REMARK  Name = 
REMARK  6 active torsions:
REMARK  status: ('A' for Active; 'I' for Inactive)
REMARK    1  A    between atoms: C_2  and  C_4
REMARK    2  A    between atoms: N_8  and  C_9
REMARK    3  A    between atoms: C_9  and  C_10
REMARK    4  A    between atoms: C_10  and  C_11
REMARK    5  A    between atoms: C_15  and  O_16
REMARK    6  A    between atoms: O_16  and  C_17
REMARK                            x       y       z     vdW  Elec       q    Type
REMARK                         _______ _______ _______ _____ _____    ______ ____
ROOT
ATOM      1  C   UNL     1      43.913  11.239  10.188  0.00  0.00    +0.000 A 
ATOM      2  C   UNL     1      43.451  10.237  11.035  0.00  0.00    +0.000 A 
ATOM      3  C   UNL     1      44.340   9.641  11.932  0.00  0.00    +0.000 A 
ATOM      4  C   UNL     1      45.672  10.041  11.954  0.00  0.00    +0.000 A 
ATOM      5  N   UNL     1      46.594   9.562  12.873  0.00  0.00    +0.000 N 
ATOM      6  N   UNL     1      46.139  10.984  11.114  0.00  0.00    +0.000 NA
ATOM      7  C   UNL     1      45.261  11.559  10.249  0.00  0.00    +0.000 A 
ATOM      8  H   UNL     1      47.503   9.912  12.576  0.00  0.00    +0.000 HD
ENDROOT
BRANCH   1  10
ATOM      9  N   UNL     1      43.633  12.886   8.428  0.00  0.00    +0.000 N 
ATOM     10  C   UNL     1      43.036  11.966   9.248  0.00  0.00    +0.000 C 
ATOM     11  O   UNL     1      41.840  11.730   9.173  0.00  0.00    +0.000 OA
ATOM     12  H   UNL     1      43.046  13.295   7.711  0.00  0.00    +0.000 HD
ATOM     13  H   UNL     1      44.632  12.919   8.284  0.00  0.00    +0.000 HD
ENDBRANCH   1  10
BRANCH   5  14
ATOM     14  C   UNL     1      46.542   8.159  13.258  0.00  0.00    +0.000 C 
BRANCH  14  15
ATOM     15  C   UNL     1      47.091   7.277  12.131  0.00  0.00    +0.000 C 
BRANCH  15  16
ATOM     16  C   UNL     1      46.273   6.023  11.959  0.00  0.00    +0.000 A 
ATOM     17  C   UNL     1      46.242   5.061  12.968  0.00  0.00    +0.000 A 
ATOM     18  N   UNL     1      45.522   3.921  12.903  0.00  0.00    +0.000 NA
ATOM     19  C   UNL     1      44.798   3.732  11.776  0.00  0.00    +0.000 A 
ATOM     20  C   UNL     1      44.739   4.631  10.720  0.00  0.00    +0.000 A 
ATOM     21  C   UNL     1      45.497   5.796  10.812  0.00  0.00    +0.000 A 
BRANCH  20  22
ATOM     22  O   UNL     1      43.953   4.267   9.660  0.00  0.00    +0.000 OA
BRANCH  22  23
ATOM     23  C   UNL     1      44.511   3.438   8.620  0.00  0.00    +0.000 C 
ATOM     24  C   UNL     1      45.261   2.150   9.055  0.00  0.00    +0.000 C 
ATOM     25  C   UNL     1      46.294   2.456   7.952  0.00  0.00    +0.000 C 
ATOM     26  C   UNL     1      45.881   3.933   8.078  0.00  0.00    +0.000 C 
ENDBRANCH  22  23
ENDBRANCH  20  22
ENDBRANCH  15  16
ENDBRANCH  14  15
ENDBRANCH   5  14
TORSDOF 6
ENDMDL
MODEL 8
REMARK VINA RESULT:    -5.760      4.233      7.020
REMARK INTER + INTRA:          -8.545
REMARK INTER:                  -7.763
REMARK INTRA:                  -0.782
REMARK UNBOUND:                -0.765
REMARK  Name = 
REMARK  6 active torsions:
REMARK  status: ('A' for Active; 'I' for Inactive)
REMARK    1  A    between atoms: C_2  and  C_4
REMARK    2  A    between atoms: N_8  and  C_9
REMARK    3  A    between atoms: C_9  and  C_10
REMARK    4  A    between atoms: C_10  and  C_11
REMARK    5  A    between atoms: C_15  and  O_16
REMARK    6  A    between atoms: O_16  and  C_17
REMARK                            x       y       z     vdW  Elec       q    Type
REMARK                         _______ _______ _______ _____ _____    ______ ____
ROOT
ATOM      1  C   UNL     1      44.903   4.753  11.121  0.00  0.00    +0.000 A 
ATOM      2  C   UNL     1      45.447   5.960  10.696  0.00  0.00    +0.000 A 
ATOM      3  C   UNL     1      46.234   6.700  11.579  0.00  0.00    +0.000 A 
ATOM      4  C   UNL     1      46.448   6.234  12.872  0.00  0.00    +0.000 A 
ATOM      5  N   UNL     1      47.288   6.865  13.779  0.00  0.00    +0.000 N 
ATOM      6  N   UNL     1      45.897   5.084  13.307  0.00  0.00    +0.000 NA
ATOM      7  C   UNL     1      45.136   4.371  12.435  0.00  0.00    +0.000 A 
ATOM      8  H   UNL     1      47.151   6.395  14.672  0.00  0.00    +0.000 HD
ENDROOT
BRANCH   1  10
ATOM      9  N   UNL     1      43.977   4.256   8.934  0.00  0.00    +0.000 N 
ATOM     10  C   UNL     1      44.106   3.873  10.242  0.00  0.00    +0.000 C 
ATOM     11  O   UNL     1      43.617   2.831  10.651  0.00  0.00    +0.000 OA
ATOM     12  H   UNL     1      43.528   3.591   8.315  0.00  0.00    +0.000 HD
ATOM     13  H   UNL     1      44.570   4.956   8.510  0.00  0.00    +0.000 HD
ENDBRANCH   1  10
BRANCH   5  14
ATOM     14  C   UNL     1      47.318   8.320  13.817  0.00  0.00    +0.000 C 
BRANCH  14  15
ATOM     15  C   UNL     1      48.356   8.857  12.825  0.00  0.00    +0.000 C 
BRANCH  15  16
ATOM     16  C   UNL     1      47.788   9.961  11.972  0.00  0.00    +0.000 A 
ATOM     17  C   UNL     1      48.616  10.680  11.111  0.00  0.00    +0.000 A 
ATOM     18  N   UNL     1      48.187  11.670  10.300  0.00  0.00    +0.000 NA
ATOM     19  C   UNL     1      46.866  11.958  10.352  0.00  0.00    +0.000 A 
ATOM     20  C   UNL     1      45.948  11.294  11.156  0.00  0.00    +0.000 A 
ATOM     21  C   UNL     1      46.421  10.281  11.986  0.00  0.00    +0.000 A 
BRANCH  20  22
ATOM     22  O   UNL     1      44.652  11.727  11.076  0.00  0.00    +0.000 OA
BRANCH  22  23
ATOM     23  C   UNL     1      43.579  10.794  11.319  0.00  0.00    +0.000 C 
ATOM     24  C   UNL     1      42.940  10.100  10.087  0.00  0.00    +0.000 C 
ATOM     25  C   UNL     1      41.573  10.278  10.776  0.00  0.00    +0.000 C 
ATOM     26  C   UNL     1      42.193  11.463  11.537  0.00  0.00    +0.000 C 
ENDBRANCH  22  23
ENDBRANCH  20  22
ENDBRANCH  15  16
ENDBRANCH  14  15
ENDBRANCH   5  14
TORSDOF 6
ENDMDL
