MODEL 1
REMARK VINA RESULT:    -7.260      0.000      0.000
REMARK INTER + INTRA:         -10.528
REMARK INTER:                  -9.595
REMARK INTRA:                  -0.933
REMARK UNBOUND:                -0.933
REMARK  Name = 
REMARK  9 active torsions:
REMARK  status: ('A' for Active; 'I' for Inactive)
REMARK    1  A    between atoms: C_1  and  O_2
REMARK    2  A    between atoms: O_2  and  C_3
REMARK    3  A    between atoms: C_7  and  C_8
REMARK    4  A    between atoms: C_8  and  C_9
REMARK    5  A    between atoms: C_8  and  N_10
REMARK    6  A    between atoms: N_10  and  C_11
REMARK    7  A    between atoms: C_14  and  C_15
REMARK    8  A    between atoms: C_15  and  O_17
REMARK    9  A    between atoms: C_19  and  C_20
REMARK                            x       y       z     vdW  Elec       q    Type
REMARK                         _______ _______ _______ _____ _____    ______ ____
ROOT
ATOM      1  N   UNL     1      44.296   5.214  10.062  0.00  0.00    +0.000 N 
ATOM      2  H   UNL     1      43.464   5.502   9.565  0.00  0.00    +0.000 HD
ENDROOT
BRANCH   1   3
ATOM      3  C   UNL     1      45.047   4.330   9.287  0.00  0.00    +0.000 A 
ATOM      4  N   UNL     1      45.898   4.811   8.357  0.00  0.00    +0.000 NA
ATOM      5  C   UNL     1      46.630   3.929   7.630  0.00  0.00    +0.000 A 
ATOM      6  C   UNL     1      46.569   2.557   7.791  0.00  0.00    +0.000 A 
ATOM      7  C   UNL     1      45.698   2.059   8.753  0.00  0.00    +0.000 A 
ATOM      8  C   UNL     1      44.944   2.950   9.535  0.00  0.00    +0.000 A 
ATOM      9  C   UNL     1      44.016   2.393  10.581  0.00  0.00    +0.000 C 
BRANCH   6  10
ATOM     10  C   UNL     1      47.378   1.699   6.901  0.00  0.00    +0.000 C 
ATOM     11  O   UNL     1      47.045   0.558   6.621  0.00  0.00    +0.000 OA
BRANCH  10  12
ATOM     12  O   UNL     1      48.494   2.279   6.419  0.00  0.00    +0.000 OA
ATOM     13  H   UNL     1      48.947   2.896   7.022  0.00  0.00    +0.000 HD
ENDBRANCH  10  12
ENDBRANCH   6  10
ENDBRANCH   1   3
BRANCH   1  14
ATOM     14  C   UNL     1      44.961   6.357  10.693  0.00  0.00    +0.000 C 
ATOM     15  C   UNL     1      43.927   7.386  11.156  0.00  0.00    +0.000 C 
BRANCH  14  20
ATOM     16  C   UNL     1      47.784   5.940  13.266  0.00  0.00    +0.000 A 
ATOM     17  C   UNL     1      47.189   5.082  14.188  0.00  0.00    +0.000 A 
ATOM     18  C   UNL     1      45.912   4.575  13.942  0.00  0.00    +0.000 A 
ATOM     19  C   UNL     1      45.215   4.947  12.790  0.00  0.00    +0.000 A 
ATOM     20  C   UNL     1      45.788   5.828  11.861  0.00  0.00    +0.000 A 
ATOM     21  C   UNL     1      47.105   6.267  12.090  0.00  0.00    +0.000 A 
BRANCH  16  23
ATOM     22  C   UNL     1      49.398   7.452  12.405  0.00  0.00    +0.000 C 
ATOM     23  O   UNL     1      49.023   6.498  13.395  0.00  0.00    +0.000 OA
ENDBRANCH  16  23
ENDBRANCH  14  20
ENDBRANCH   1  14
TORSDOF 6
ENDMDL
MODEL 2
REMARK VINA RESULT:    -6.775      1.131      1.900
REMARK INTER + INTRA:          -9.887
REMARK INTER:                  -9.113
REMARK INTRA:                  -0.773
REMARK UNBOUND:                -0.933
REMARK  Name = 
REMARK  9 active torsions:
REMARK  status: ('A' for Active; 'I' for Inactive)
REMARK    1  A    between atoms: C_1  and  O_2
REMARK    2  A    between atoms: O_2  and  C_3
REMARK    3  A    between atoms: C_7  and  C_8
REMARK    4  A    between atoms: C_8  and  C_9
REMARK    5  A    between atoms: C_8  and  N_10
REMARK    6  A    between atoms: N_10  and  C_11
REMARK    7  A    between atoms: C_14  and  C_15
REMARK    8  A    between atoms: C_15  and  O_17
REMARK    9  A    between atoms: C_19  and  C_20
REMARK                            x       y       z     vdW  Elec       q    Type
REMARK                         _______ _______ _______ _____ _____    ______ ____
ROOT
ATOM      1  N   UNL     1      44.498   5.263  10.484  0.00  0.00    +0.000 N 
ATOM      2  H   UNL     1      43.505   5.344  10.312  0.00  0.00    +0.000 HD
ENDROOT
BRANCH   1   3
ATOM      3  C   UNL     1      45.100   4.473   9.507  0.00  0.00    +0.000 A 
ATOM      4  N   UNL     1      45.888   5.047   8.573  0.00  0.00    +0.000 NA
ATOM      5  C   UNL     1      46.477   4.251   7.644  0.00  0.00    +0.000 A 
ATOM      6  C   UNL     1      46.332   2.877   7.599  0.00  0.00    +0.000 A 
ATOM      7  C   UNL     1      45.526   2.282   8.564  0.00  0.00    +0.000 A 
ATOM      8  C   UNL     1      44.921   3.079   9.550  0.00  0.00    +0.000 A 
ATOM      9  C   UNL     1      44.063   2.417  10.595  0.00  0.00    +0.000 C 
BRANCH   6  10
ATOM     10  C   UNL     1      46.983   2.127   6.506  0.00  0.00    +0.000 C 
ATOM     11  O   UNL     1      47.389   0.985   6.654  0.00  0.00    +0.000 OA
BRANCH  10  12
ATOM     12  O   UNL     1      47.078   2.795   5.341  0.00  0.00    +0.000 OA
ATOM     13  H   UNL     1      46.719   2.338   4.559  0.00  0.00    +0.000 HD
ENDBRANCH  10  12
ENDBRANCH   6  10
ENDBRANCH   1   3
BRANCH   1  14
ATOM     14  C   UNL     1      45.087   6.562  10.821  0.00  0.00    +0.000 C 
ATOM     15  C   UNL     1      43.996   7.551  11.239  0.00  0.00    +0.000 C 
BRANCH  14  20
ATOM     16  C   UNL     1      46.843   5.094  13.907  0.00  0.00    +0.000 A 
ATOM     17  C   UNL     1      48.094   5.699  13.824  0.00  0.00    +0.000 A 
ATOM     18  C   UNL     1      48.346   6.639  12.823  0.00  0.00    +0.000 A 
ATOM     19  C   UNL     1      47.360   6.954  11.885  0.00  0.00    +0.000 A 
ATOM     20  C   UNL     1      46.100   6.338  11.940  0.00  0.00    +0.000 A 
ATOM     21  C   UNL     1      45.841   5.452  13.001  0.00  0.00    +0.000 A 
BRANCH  16  23
ATOM     22  C   UNL     1      47.228   4.145  16.048  0.00  0.00    +0.000 C 
ATOM     23  O   UNL     1      46.477   4.164  14.838  0.00  0.00    +0.000 OA
ENDBRANCH  16  23
ENDBRANCH  14  20
ENDBRANCH   1  14
TORSDOF 6
ENDMDL
MODEL 3
REMARK VINA RESULT:    -6.435      1.562      2.529
REMARK INTER + INTRA:          -9.437
REMARK INTER:                  -9.053
REMARK INTRA:                  -0.385
REMARK UNBOUND:                -0.933
REMARK  Name = 
REMARK  9 active torsions:
REMARK  status: ('A' for Active; 'I' for Inactive)
REMARK    1  A    between atoms: C_1  and  O_2
REMARK    2  A    between atoms: O_2  and  C_3
REMARK    3  A    between atoms: C_7  and  C_8
REMARK    4  A    between atoms: C_8  and  C_9
REMARK    5  A    between atoms: C_8  and  N_10
REMARK    6  A    between atoms: N_10  and  C_11
REMARK    7  A    between atoms: C_14  and  C_15
REMARK    8  A    between atoms: C_15  and  O_17
REMARK    9  A    between atoms: C_19  and  C_20
REMARK                            x       y       z     vdW  Elec       q    Type
REMARK                         _______ _______ _______ _____ _____    ______ ____
ROOT
ATOM      1  N   UNL     1      43.680   4.349  10.275  0.00  0.00    +0.000 N 
ATOM      2  H   UNL     1      43.790   5.311   9.984  0.00  0.00    +0.000 HD
ENDROOT
BRANCH   1   3
ATOM      3  C   UNL     1      44.526   3.517   9.542  0.00  0.00    +0.000 A 
ATOM      4  N   UNL     1      44.288   2.190   9.502  0.00  0.00    +0.000 NA
ATOM      5  C   UNL     1      45.116   1.405   8.765  0.00  0.00    +0.000 A 
ATOM      6  C   UNL     1      46.190   1.884   8.036  0.00  0.00    +0.000 A 
ATOM      7  C   UNL     1      46.432   3.253   8.071  0.00  0.00    +0.000 A 
ATOM      8  C   UNL     1      45.579   4.091   8.807  0.00  0.00    +0.000 A 
ATOM      9  C   UNL     1      45.849   5.571   8.822  0.00  0.00    +0.000 C 
BRANCH   6  10
ATOM     10  C   UNL     1      47.048   0.922   7.317  0.00  0.00    +0.000 C 
ATOM     11  O   UNL     1      47.869   1.279   6.486  0.00  0.00    +0.000 OA
BRANCH  10  12
ATOM     12  O   UNL     1      46.862  -0.367   7.660  0.00  0.00    +0.000 OA
ATOM     13  H   UNL     1      46.264  -0.878   7.085  0.00  0.00    +0.000 HD
ENDBRANCH  10  12
ENDBRANCH   6  10
ENDBRANCH   1   3
BRANCH   1  14
ATOM     14  C   UNL     1      43.651   4.235  11.736  0.00  0.00    +0.000 C 
ATOM     15  C   UNL     1      43.573   2.765  12.154  0.00  0.00    +0.000 C 
BRANCH  14  20
ATOM     16  C   UNL     1      46.124   6.931  12.910  0.00  0.00    +0.000 A 
ATOM     17  C   UNL     1      47.081   6.159  13.564  0.00  0.00    +0.000 A 
ATOM     18  C   UNL     1      46.973   4.767  13.558  0.00  0.00    +0.000 A 
ATOM     19  C   UNL     1      45.893   4.146  12.925  0.00  0.00    +0.000 A 
ATOM     20  C   UNL     1      44.908   4.908  12.280  0.00  0.00    +0.000 A 
ATOM     21  C   UNL     1      45.076   6.304  12.232  0.00  0.00    +0.000 A 
BRANCH  16  23
ATOM     22  C   UNL     1      45.098   8.894  12.056  0.00  0.00    +0.000 C 
ATOM     23  O   UNL     1      46.122   8.295  12.846  0.00  0.00    +0.000 OA
ENDBRANCH  16  23
ENDBRANCH  14  20
ENDBRANCH   1  14
TORSDOF 6
ENDMDL
MODEL 4
REMARK VINA RESULT:    -6.364      2.103      6.800
REMARK INTER + INTRA:          -9.343
REMARK INTER:                  -8.677
REMARK INTRA:                  -0.665
REMARK UNBOUND:                -0.933
REMARK  Name = 
REMARK  9 active torsions:
REMARK  status: ('A' for Active; 'I' for Inactive)
REMARK    1  A    between atoms: C_1  and  O_2
REMARK    2  A    between atoms: O_2  and  C_3
REMARK    3  A    between atoms: C_7  and  C_8
REMARK    4  A    between atoms: C_8  and  C_9
REMARK    5  A    between atoms: C_8  and  N_10
REMARK    6  A    between atoms: N_10  and  C_11
REMARK    7  A    between atoms: C_14  and  C_15
REMARK    8  A    between atoms: C_15  and  O_17
REMARK    9  A    between atoms: C_19  and  C_20
REMARK                            x       y       z     vdW  Elec       q    Type
REMARK                         _______ _______ _______ _____ _____    ______ ____
ROOT
ATOM      1  N   UNL     1      45.095   6.364  10.727  0.00  0.00    +0.000 N 
ATOM      2  H   UNL     1      44.493   7.037  10.271  0.00  0.00    +0.000 HD
ENDROOT
BRANCH   1   3
ATOM      3  C   UNL     1      45.855   6.982  11.719  0.00  0.00    +0.000 A 
ATOM      4  N   UNL     1      46.855   6.302  12.317  0.00  0.00    +0.000 NA
ATOM      5  C   UNL     1      47.591   6.933  13.267  0.00  0.00    +0.000 A 
ATOM      6  C   UNL     1      47.389   8.245  13.656  0.00  0.00    +0.000 A 
ATOM      7  C   UNL     1      46.363   8.950  13.037  0.00  0.00    +0.000 A 
ATOM      8  C   UNL     1      45.599   8.328  12.035  0.00  0.00    +0.000 A 
ATOM      9  C   UNL     1      44.502   9.110  11.367  0.00  0.00    +0.000 C 
BRANCH   6  10
ATOM     10  C   UNL     1      48.224   8.803  14.739  0.00  0.00    +0.000 C 
ATOM     11  O   UNL     1      49.436   8.909  14.635  0.00  0.00    +0.000 OA
BRANCH  10  12
ATOM     12  O   UNL     1      47.543   9.194  15.833  0.00  0.00    +0.000 OA
ATOM     13  H   UNL     1      46.966   8.521  16.238  0.00  0.00    +0.000 HD
ENDBRANCH  10  12
ENDBRANCH   6  10
ENDBRANCH   1   3
BRANCH   1  14
ATOM     14  C   UNL     1      44.371   5.129  11.041  0.00  0.00    +0.000 C 
ATOM     15  C   UNL     1      42.870   5.407  11.161  0.00  0.00    +0.000 C 
BRANCH  14  20
ATOM     16  C   UNL     1      45.803   3.533   7.854  0.00  0.00    +0.000 A 
ATOM     17  C   UNL     1      45.483   2.193   8.051  0.00  0.00    +0.000 A 
ATOM     18  C   UNL     1      44.736   1.813   9.169  0.00  0.00    +0.000 A 
ATOM     19  C   UNL     1      44.336   2.768  10.106  0.00  0.00    +0.000 A 
ATOM     20  C   UNL     1      44.668   4.120   9.936  0.00  0.00    +0.000 A 
ATOM     21  C   UNL     1      45.354   4.492   8.765  0.00  0.00    +0.000 A 
BRANCH  16  23
ATOM     22  C   UNL     1      46.881   3.095   5.785  0.00  0.00    +0.000 C 
ATOM     23  O   UNL     1      46.524   4.025   6.803  0.00  0.00    +0.000 OA
ENDBRANCH  16  23
ENDBRANCH  14  20
ENDBRANCH   1  14
TORSDOF 6
ENDMDL
MODEL 5
REMARK VINA RESULT:    -6.222      1.842      2.932
REMARK INTER + INTRA:          -9.155
REMARK INTER:                  -9.101
REMARK INTRA:                  -0.054
REMARK UNBOUND:                -0.933
REMARK  Name = 
REMARK  9 active torsions:
REMARK  status: ('A' for Active; 'I' for Inactive)
REMARK    1  A    between atoms: C_1  and  O_2
REMARK    2  A    between atoms: O_2  and  C_3
REMARK    3  A    between atoms: C_7  and  C_8
REMARK    4  A    between atoms: C_8  and  C_9
REMARK    5  A    between atoms: C_8  and  N_10
REMARK    6  A    between atoms: N_10  and  C_11
REMARK    7  A    between atoms: C_14  and  C_15
REMARK    8  A    between atoms: C_15  and  O_17
REMARK    9  A    between atoms: C_19  and  C_20
REMARK                            x       y       z     vdW  Elec       q    Type
REMARK                         _______ _______ _______ _____ _____    ______ ____
ROOT
ATOM      1  N   UNL     1      44.119   4.732  10.026  0.00  0.00    +0.000 N 
ATOM      2  H   UNL     1      43.737   5.585   9.640  0.00  0.00    +0.000 HD
ENDROOT
BRANCH   1   3
ATOM      3  C   UNL     1      44.998   4.138   9.121  0.00  0.00    +0.000 A 
ATOM      4  N   UNL     1      45.881   4.903   8.446  0.00  0.00    +0.000 NA
ATOM      5  C   UNL     1      46.738   4.296   7.585  0.00  0.00    +0.000 A 
ATOM      6  C   UNL     1      46.774   2.932   7.362  0.00  0.00    +0.000 A 
ATOM      7  C   UNL     1      45.869   2.141   8.062  0.00  0.00    +0.000 A 
ATOM      8  C   UNL     1      44.986   2.739   8.975  0.00  0.00    +0.000 A 
ATOM      9  C   UNL     1      44.023   1.867   9.733  0.00  0.00    +0.000 C 
BRANCH   6  10
ATOM     10  C   UNL     1      47.719   2.398   6.360  0.00  0.00    +0.000 C 
ATOM     11  O   UNL     1      48.310   1.342   6.523  0.00  0.00    +0.000 OA
BRANCH  10  12
ATOM     12  O   UNL     1      47.861   3.157   5.257  0.00  0.00    +0.000 OA
ATOM     13  H   UNL     1      48.621   3.768   5.257  0.00  0.00    +0.000 HD
ENDBRANCH  10  12
ENDBRANCH   6  10
ENDBRANCH   1   3
BRANCH   1  14
ATOM     14  C   UNL     1      44.539   4.917  11.417  0.00  0.00    +0.000 C 
ATOM     15  C   UNL     1      45.506   3.806  11.835  0.00  0.00    +0.000 C 
BRANCH  14  20
ATOM     16  C   UNL     1      44.986   8.728  11.613  0.00  0.00    +0.000 A 
ATOM     17  C   UNL     1      46.308   8.828  12.040  0.00  0.00    +0.000 A 
ATOM     18  C   UNL     1      47.079   7.673  12.186  0.00  0.00    +0.000 A 
ATOM     19  C   UNL     1      46.523   6.417  11.938  0.00  0.00    +0.000 A 
ATOM     20  C   UNL     1      45.186   6.295  11.529  0.00  0.00    +0.000 A 
ATOM     21  C   UNL     1      44.450   7.474  11.313  0.00  0.00    +0.000 A 
BRANCH  16  23
ATOM     22  C   UNL     1      42.930   9.511  10.722  0.00  0.00    +0.000 C 
ATOM     23  O   UNL     1      44.135   9.781  11.432  0.00  0.00    +0.000 OA
ENDBRANCH  16  23
ENDBRANCH  14  20
ENDBRANCH   1  14
TORSDOF 6
ENDMDL
MODEL 6
REMARK VINA RESULT:    -6.063      3.037      7.196
REMARK INTER + INTRA:          -8.946
REMARK INTER:                  -8.284
REMARK INTRA:                  -0.662
REMARK UNBOUND:                -0.933
REMARK  Name = 
REMARK  9 active torsions:
REMARK  status: ('A' for Active; 'I' for Inactive)
REMARK    1  A    between atoms: C_1  and  O_2
REMARK    2  A    between atoms: O_2  and  C_3
REMARK    3  A    between atoms: C_7  and  C_8
REMARK    4  A    between atoms: C_8  and  C_9
REMARK    5  A    between atoms: C_8  and  N_10
REMARK    6  A    between atoms: N_10  and  C_11
REMARK    7  A    between atoms: C_14  and  C_15
REMARK    8  A    between atoms: C_15  and  O_17
REMARK    9  A    between atoms: C_19  and  C_20
REMARK                            x       y       z     vdW  Elec       q    Type
REMARK                         _______ _______ _______ _____ _____    ______ ____
ROOT
ATOM      1  N   UNL     1      46.944   5.650  12.993  0.00  0.00    +0.000 N 
ATOM      2  H   UNL     1      47.571   6.352  12.622  0.00  0.00    +0.000 HD
ENDROOT
BRANCH   1   3
ATOM      3  C   UNL     1      47.321   5.294  14.287  0.00  0.00    +0.000 A 
ATOM      4  N   UNL     1      46.904   4.121  14.807  0.00  0.00    +0.000 NA
ATOM      5  C   UNL     1      47.301   3.791  16.063  0.00  0.00    +0.000 A 
ATOM      6  C   UNL     1      48.123   4.580  16.847  0.00  0.00    +0.000 A 
ATOM      7  C   UNL     1      48.559   5.787  16.310  0.00  0.00    +0.000 A 
ATOM      8  C   UNL     1      48.181   6.143  15.005  0.00  0.00    +0.000 A 
ATOM      9  C   UNL     1      48.673   7.447  14.437  0.00  0.00    +0.000 C 
BRANCH   6  10
ATOM     10  C   UNL     1      48.441   4.134  18.218  0.00  0.00    +0.000 C 
ATOM     11  O   UNL     1      49.322   4.658  18.882  0.00  0.00    +0.000 OA
BRANCH  10  12
ATOM     12  O   UNL     1      47.678   3.124  18.675  0.00  0.00    +0.000 OA
ATOM     13  H   UNL     1      47.996   2.683  19.484  0.00  0.00    +0.000 HD
ENDBRANCH  10  12
ENDBRANCH   6  10
ENDBRANCH   1   3
BRANCH   1  14
ATOM     14  C   UNL     1      45.545   5.988  12.720  0.00  0.00    +0.000 C 
ATOM     15  C   UNL     1      45.411   7.476  12.384  0.00  0.00    +0.000 C 
BRANCH  14  20
ATOM     16  C   UNL     1      45.236   4.398   9.236  0.00  0.00    +0.000 A 
ATOM     17  C   UNL     1      44.434   3.293   9.509  0.00  0.00    +0.000 A 
ATOM     18  C   UNL     1      43.926   3.104  10.796  0.00  0.00    +0.000 A 
ATOM     19  C   UNL     1      44.244   4.001  11.819  0.00  0.00    +0.000 A 
ATOM     20  C   UNL     1      45.069   5.108  11.568  0.00  0.00    +0.000 A 
ATOM     21  C   UNL     1      45.507   5.322  10.248  0.00  0.00    +0.000 A 
BRANCH  16  23
ATOM     22  C   UNL     1      46.298   3.590   7.273  0.00  0.00    +0.000 C 
ATOM     23  O   UNL     1      45.788   4.690   8.021  0.00  0.00    +0.000 OA
ENDBRANCH  16  23
ENDBRANCH  14  20
ENDBRANCH   1  14
TORSDOF 6
ENDMDL
MODEL 7
REMARK VINA RESULT:    -5.750      3.399      4.877
REMARK INTER + INTRA:          -8.532
REMARK INTER:                  -7.903
REMARK INTRA:                  -0.629
REMARK UNBOUND:                -0.933
REMARK  Name = 
REMARK  9 active torsions:
REMARK  status: ('A' for Active; 'I' for Inactive)
REMARK    1  A    between atoms: C_1  and  O_2
REMARK    2  A    between atoms: O_2  and  C_3
REMARK    3  A    between atoms: C_7  and  C_8
REMARK    4  A    between atoms: C_8  and  C_9
REMARK    5  A    between atoms: C_8  and  N_10
REMARK    6  A    between atoms: N_10  and  C_11
REMARK    7  A    between atoms: C_14  and  C_15
REMARK    8  A    between atoms: C_15  and  O_17
REMARK    9  A    between atoms: C_19  and  C_20
REMARK                            x       y       z     vdW  Elec       q    Type
REMARK                         _______ _______ _______ _____ _____    ______ ____
ROOT
ATOM      1  N   UNL     1      46.408   5.622  14.286  0.00  0.00    +0.000 N 
ATOM      2  H   UNL     1      46.052   6.554  14.451  0.00  0.00    +0.000 HD
ENDROOT
BRANCH   1   3
ATOM      3  C   UNL     1      45.908   5.114  13.088  0.00  0.00    +0.000 A 
ATOM      4  N   UNL     1      45.705   3.786  12.957  0.00  0.00    +0.000 NA
ATOM      5  C   UNL     1      45.201   3.320  11.786  0.00  0.00    +0.000 A 
ATOM      6  C   UNL     1      44.866   4.126  10.713  0.00  0.00    +0.000 A 
ATOM      7  C   UNL     1      45.068   5.495  10.848  0.00  0.00    +0.000 A 
ATOM      8  C   UNL     1      45.568   6.007  12.056  0.00  0.00    +0.000 A 
ATOM      9  C   UNL     1      45.768   7.492  12.189  0.00  0.00    +0.000 C 
BRANCH   6  10
ATOM     10  C   UNL     1      44.374   3.493   9.473  0.00  0.00    +0.000 C 
ATOM     11  O   UNL     1      44.301   2.280   9.348  0.00  0.00    +0.000 OA
BRANCH  10  12
ATOM     12  O   UNL     1      44.002   4.354   8.508  0.00  0.00    +0.000 OA
ATOM     13  H   UNL     1      43.762   3.956   7.651  0.00  0.00    +0.000 HD
ENDBRANCH  10  12
ENDBRANCH   6  10
ENDBRANCH   1   3
BRANCH   1  14
ATOM     14  C   UNL     1      47.847   5.546  14.554  0.00  0.00    +0.000 C 
ATOM     15  C   UNL     1      48.461   6.948  14.567  0.00  0.00    +0.000 C 
BRANCH  14  20
ATOM     16  C   UNL     1      48.822   4.853  18.205  0.00  0.00    +0.000 A 
ATOM     17  C   UNL     1      48.121   3.678  18.458  0.00  0.00    +0.000 A 
ATOM     18  C   UNL     1      47.399   3.065  17.431  0.00  0.00    +0.000 A 
ATOM     19  C   UNL     1      47.352   3.642  16.160  0.00  0.00    +0.000 A 
ATOM     20  C   UNL     1      48.035   4.838  15.892  0.00  0.00    +0.000 A 
ATOM     21  C   UNL     1      48.817   5.398  16.918  0.00  0.00    +0.000 A 
BRANCH  16  23
ATOM     22  C   UNL     1      50.941   5.197  19.219  0.00  0.00    +0.000 C 
ATOM     23  O   UNL     1      49.562   5.543  19.123  0.00  0.00    +0.000 OA
ENDBRANCH  16  23
ENDBRANCH  14  20
ENDBRANCH   1  14
TORSDOF 6
ENDMDL
MODEL 8
REMARK VINA RESULT:    -5.599      3.209      5.033
REMARK INTER + INTRA:          -8.332
REMARK INTER:                  -7.595
REMARK INTRA:                  -0.737
REMARK UNBOUND:                -0.933
REMARK  Name = 
REMARK  9 active torsions:
REMARK  status: ('A' for Active; 'I' for Inactive)
REMARK    1  A    between atoms: C_1  and  O_2
REMARK    2  A    between atoms: O_2  and  C_3
REMARK    3  A    between atoms: C_7  and  C_8
REMARK    4  A    between atoms: C_8  and  C_9
REMARK    5  A    between atoms: C_8  and  N_10
REMARK    6  A    between atoms: N_10  and  C_11
REMARK    7  A    between atoms: C_14  and  C_15
REMARK    8  A    between atoms: C_15  and  O_17
REMARK    9  A    between atoms: C_19  and  C_20
REMARK                            x       y       z     vdW  Elec       q    Type
REMARK                         _______ _______ _______ _____ _____    ______ ____
ROOT
ATOM      1  N   UNL     1      46.728   6.773  13.694  0.00  0.00    +0.000 N 
ATOM      2  H   UNL     1      46.275   7.676  13.644  0.00  0.00    +0.000 HD
ENDROOT
BRANCH   1   3
ATOM      3  C   UNL     1      46.001   5.821  12.981  0.00  0.00    +0.000 A 
ATOM      4  N   UNL     1      46.106   4.516  13.307  0.00  0.00    +0.000 NA
ATOM      5  C   UNL     1      45.373   3.612  12.609  0.00  0.00    +0.000 A 
ATOM      6  C   UNL     1      44.507   3.945  11.583  0.00  0.00    +0.000 A 
ATOM      7  C   UNL     1      44.391   5.291  11.250  0.00  0.00    +0.000 A 
ATOM      8  C   UNL     1      45.122   6.250  11.970  0.00  0.00    +0.000 A 
ATOM      9  C   UNL     1      44.974   7.702  11.604  0.00  0.00    +0.000 C 
BRANCH   6  10
ATOM     10  C   UNL     1      43.804   2.864  10.865  0.00  0.00    +0.000 C 
ATOM     11  O   UNL     1      43.986   2.649   9.676  0.00  0.00    +0.000 OA
BRANCH  10  12
ATOM     12  O   UNL     1      42.966   2.133  11.624  0.00  0.00    +0.000 OA
ATOM     13  H   UNL     1      42.485   1.422  11.162  0.00  0.00    +0.000 HD
ENDBRANCH  10  12
ENDBRANCH   6  10
ENDBRANCH   1   3
BRANCH   1  14
ATOM     14  C   UNL     1      48.172   6.889  13.470  0.00  0.00    +0.000 C 
ATOM     15  C   UNL     1      48.508   8.249  12.854  0.00  0.00    +0.000 C 
BRANCH  14  20
ATOM     16  C   UNL     1      49.031   5.557  16.970  0.00  0.00    +0.000 A 
ATOM     17  C   UNL     1      50.302   6.092  17.163  0.00  0.00    +0.000 A 
ATOM     18  C   UNL     1      50.849   6.946  16.203  0.00  0.00    +0.000 A 
ATOM     19  C   UNL     1      50.140   7.241  15.036  0.00  0.00    +0.000 A 
ATOM     20  C   UNL     1      48.868   6.694  14.814  0.00  0.00    +0.000 A 
ATOM     21  C   UNL     1      48.303   5.899  15.828  0.00  0.00    +0.000 A 
BRANCH  16  23
ATOM     22  C   UNL     1      47.482   3.781  17.258  0.00  0.00    +0.000 C 
ATOM     23  O   UNL     1      48.391   4.714  17.834  0.00  0.00    +0.000 OA
ENDBRANCH  16  23
ENDBRANCH  14  20
ENDBRANCH   1  14
TORSDOF 6
ENDMDL
MODEL 9
REMARK VINA RESULT:    -5.539      3.430      5.311
REMARK INTER + INTRA:          -8.253
REMARK INTER:                  -7.993
REMARK INTRA:                  -0.260
REMARK UNBOUND:                -0.933
REMARK  Name = 
REMARK  9 active torsions:
REMARK  status: ('A' for Active; 'I' for Inactive)
REMARK    1  A    between atoms: C_1  and  O_2
REMARK    2  A    between atoms: O_2  and  C_3
REMARK    3  A    between atoms: C_7  and  C_8
REMARK    4  A    between atoms: C_8  and  C_9
REMARK    5  A    between atoms: C_8  and  N_10
REMARK    6  A    between atoms: N_10  and  C_11
REMARK    7  A    between atoms: C_14  and  C_15
REMARK    8  A    between atoms: C_15  and  O_17
REMARK    9  A    between atoms: C_19  and  C_20
REMARK                            x       y       z     vdW  Elec       q    Type
REMARK                         _______ _______ _______ _____ _____    ______ ____
ROOT
ATOM      1  N   UNL     1      46.126   7.270  13.370  0.00  0.00    +0.000 N 
ATOM      2  H   UNL     1      45.391   7.928  13.594  0.00  0.00    +0.000 HD
ENDROOT
BRANCH   1   3
ATOM      3  C   UNL     1      45.599   6.150  12.729  0.00  0.00    +0.000 A 
ATOM      4  N   UNL     1      44.837   6.306  11.626  0.00  0.00    +0.000 NA
ATOM      5  C   UNL     1      44.352   5.198  11.010  0.00  0.00    +0.000 A 
ATOM      6  C   UNL     1      44.600   3.906  11.437  0.00  0.00    +0.000 A 
ATOM      7  C   UNL     1      45.390   3.742  12.569  0.00  0.00    +0.000 A 
ATOM      8  C   UNL     1      45.923   4.870  13.213  0.00  0.00    +0.000 A 
ATOM      9  C   UNL     1      46.787   4.673  14.430  0.00  0.00    +0.000 C 
BRANCH   6  10
ATOM     10  C   UNL     1      43.972   2.783  10.711  0.00  0.00    +0.000 C 
ATOM     11  O   UNL     1      44.201   2.563   9.532  0.00  0.00    +0.000 OA
BRANCH  10  12
ATOM     12  O   UNL     1      43.146   2.022  11.454  0.00  0.00    +0.000 OA
ATOM     13  H   UNL     1      42.633   1.352  10.967  0.00  0.00    +0.000 HD
ENDBRANCH  10  12
ENDBRANCH   6  10
ENDBRANCH   1   3
BRANCH   1  14
ATOM     14  C   UNL     1      47.289   7.947  12.791  0.00  0.00    +0.000 C 
ATOM     15  C   UNL     1      47.942   7.066  11.723  0.00  0.00    +0.000 C 
BRANCH  14  20
ATOM     16  C   UNL     1      45.026  10.891  11.803  0.00  0.00    +0.000 A 
ATOM     17  C   UNL     1      45.967  11.845  11.424  0.00  0.00    +0.000 A 
ATOM     18  C   UNL     1      47.324  11.514  11.409  0.00  0.00    +0.000 A 
ATOM     19  C   UNL     1      47.745  10.242  11.802  0.00  0.00    +0.000 A 
ATOM     20  C   UNL     1      46.813   9.275  12.209  0.00  0.00    +0.000 A 
ATOM     21  C   UNL     1      45.447   9.603  12.143  0.00  0.00    +0.000 A 
BRANCH  16  23
ATOM     22  C   UNL     1      42.881  10.319  10.964  0.00  0.00    +0.000 C 
ATOM     23  O   UNL     1      43.677  11.093  11.857  0.00  0.00    +0.000 OA
ENDBRANCH  16  23
ENDBRANCH  14  20
ENDBRANCH   1  14
TORSDOF 6
ENDMDL
