MODEL 1
REMARK VINA RESULT:    -7.863      0.000      0.000
REMARK INTER + INTRA:         -13.009
REMARK INTER:                 -12.000
REMARK INTRA:                  -1.009
REMARK UNBOUND:                -1.009
REMARK  Name = 
REMARK  11 active torsions:
REMARK  status: ('A' for Active; 'I' for Inactive)
REMARK    1  A    between atoms: C_1  and  O_2
REMARK    2  A    between atoms: O_2  and  C_3
REMARK    3  A    between atoms: C_3  and  C_4
REMARK    4  A    between atoms: C_4  and  C_5
REMARK    5  A    between atoms: C_4  and  C_16
REMARK    6  A    between atoms: C_5  and  O_6
REMARK    7  A    between atoms: O_6  and  C_7
REMARK    8  A    between atoms: C_10  and  C_11
REMARK    9  A    between atoms: C_20  and  O_21
REMARK   10  A    between atoms: O_21  and  C_22
REMARK   11  A    between atoms: N_24  and  C_25
REMARK                            x       y       z     vdW  Elec       q    Type
REMARK                         _______ _______ _______ _____ _____    ______ ____
ROOT
ATOM      1  C   UNL     1      44.278   4.662  12.055  0.00  0.00    +0.000 C 
ENDROOT
BRANCH   1   2
ATOM      2  C   UNL     1      45.600   5.113  12.692  0.00  0.00    +0.000 A 
ATOM      3  C   UNL     1      46.231   6.328  12.386  0.00  0.00    +0.000 A 
ATOM      4  C   UNL     1      47.345   6.765  13.109  0.00  0.00    +0.000 A 
ATOM      5  C   UNL     1      47.877   5.979  14.128  0.00  0.00    +0.000 A 
ATOM      6  C   UNL     1      47.302   4.746  14.413  0.00  0.00    +0.000 A 
ATOM      7  C   UNL     1      46.166   4.329  13.711  0.00  0.00    +0.000 A 
BRANCH   6   8
ATOM      8  O   UNL     1      47.732   3.888  15.389  0.00  0.00    +0.000 OA
BRANCH   8   9
ATOM      9  C   UNL     1      47.817   4.371  16.748  0.00  0.00    +0.000 C 
ATOM     10  C   UNL     1      49.216   4.690  17.322  0.00  0.00    +0.000 C 
ATOM     11  N   UNL     1      48.956   3.817  18.483  0.00  0.00    +0.000 NA
ATOM     12  C   UNL     1      48.581   4.607  19.654  0.00  0.00    +0.000 C 
ATOM     13  C   UNL     1      47.757   3.269  17.825  0.00  0.00    +0.000 C 
ENDBRANCH   8   9
ENDBRANCH   6   8
ENDBRANCH   1   2
BRANCH   1  14
ATOM     14  C   UNL     1      43.037   5.011  12.913  0.00  0.00    +0.000 C 
BRANCH  14  16
ATOM     15  C   UNL     1      42.682   6.605  11.188  0.00  0.00    +0.000 C 
ATOM     16  O   UNL     1      42.081   5.746  12.145  0.00  0.00    +0.000 OA
ENDBRANCH  14  16
ENDBRANCH   1  14
BRANCH   1  17
ATOM     17  C   UNL     1      44.224   3.158  11.695  0.00  0.00    +0.000 C 
BRANCH  17  18
ATOM     18  O   UNL     1      43.664   2.999  10.381  0.00  0.00    +0.000 OA
BRANCH  18  19
ATOM     19  C   UNL     1      44.568   2.906   9.359  0.00  0.00    +0.000 A 
ATOM     20  C   UNL     1      45.020   3.994   8.615  0.00  0.00    +0.000 A 
ATOM     21  C   UNL     1      45.986   3.807   7.625  0.00  0.00    +0.000 A 
ATOM     22  C   UNL     1      46.521   2.535   7.379  0.00  0.00    +0.000 A 
ATOM     23  C   UNL     1      46.058   1.442   8.120  0.00  0.00    +0.000 A 
ATOM     24  C   UNL     1      45.088   1.631   9.111  0.00  0.00    +0.000 A 
BRANCH  22  25
ATOM     25  C   UNL     1      47.565   2.418   6.330  0.00  0.00    +0.000 C 
ATOM     26  N   UNL     1      47.392   3.134   5.178  0.00  0.00    +0.000 N 
ATOM     27  O   UNL     1      48.523   1.668   6.459  0.00  0.00    +0.000 OA
ATOM     28  H   UNL     1      46.506   3.547   4.930  0.00  0.00    +0.000 HD
ATOM     29  H   UNL     1      48.035   2.917   4.427  0.00  0.00    +0.000 HD
ENDBRANCH  22  25
ENDBRANCH  18  19
ENDBRANCH  17  18
ENDBRANCH   1  17
TORSDOF 9
ENDMDL
MODEL 2
REMARK VINA RESULT:    -7.462      1.462      1.877
REMARK INTER + INTRA:         -12.397
REMARK INTER:                 -11.587
REMARK INTRA:                  -0.810
REMARK UNBOUND:                -1.009
REMARK  Name = 
REMARK  11 active torsions:
REMARK  status: ('A' for Active; 'I' for Inactive)
REMARK    1  A    between atoms: C_1  and  O_2
REMARK    2  A    between atoms: O_2  and  C_3
REMARK    3  A    between atoms: C_3  and  C_4
REMARK    4  A    between atoms: C_4  and  C_5
REMARK    5  A    between atoms: C_4  and  C_16
REMARK    6  A    between atoms: C_5  and  O_6
REMARK    7  A    between atoms: O_6  and  C_7
REMARK    8  A    between atoms: C_10  and  C_11
REMARK    9  A    between atoms: C_20  and  O_21
REMARK   10  A    between atoms: O_21  and  C_22
REMARK   11  A    between atoms: N_24  and  C_25
REMARK                            x       y       z     vdW  Elec       q    Type
REMARK                         _______ _______ _______ _____ _____    ______ ____
ROOT
ATOM      1  C   UNL     1      45.046   6.350  11.279  0.00  0.00    +0.000 C 
ENDROOT
BRANCH   1   2
ATOM      2  C   UNL     1      46.336   6.367  12.109  0.00  0.00    +0.000 A 
ATOM      3  C   UNL     1      47.359   7.311  11.932  0.00  0.00    +0.000 A 
ATOM      4  C   UNL     1      48.438   7.382  12.819  0.00  0.00    +0.000 A 
ATOM      5  C   UNL     1      48.540   6.485  13.878  0.00  0.00    +0.000 A 
ATOM      6  C   UNL     1      47.568   5.504  14.041  0.00  0.00    +0.000 A 
ATOM      7  C   UNL     1      46.472   5.460  13.174  0.00  0.00    +0.000 A 
BRANCH   6   8
ATOM      8  O   UNL     1      47.558   4.570  15.042  0.00  0.00    +0.000 OA
BRANCH   8   9
ATOM      9  C   UNL     1      47.800   5.005  16.399  0.00  0.00    +0.000 C 
ATOM     10  C   UNL     1      49.156   4.650  17.048  0.00  0.00    +0.000 C 
ATOM     11  N   UNL     1      48.464   4.044  18.201  0.00  0.00    +0.000 NA
ATOM     12  C   UNL     1      48.452   4.959  19.340  0.00  0.00    +0.000 C 
ATOM     13  C   UNL     1      47.178   4.100  17.482  0.00  0.00    +0.000 C 
ENDBRANCH   8   9
ENDBRANCH   6   8
ENDBRANCH   1   2
BRANCH   1  14
ATOM     14  C   UNL     1      44.088   7.519  11.617  0.00  0.00    +0.000 C 
BRANCH  14  16
ATOM     15  C   UNL     1      44.711   9.790  11.930  0.00  0.00    +0.000 C 
ATOM     16  O   UNL     1      44.531   8.731  11.002  0.00  0.00    +0.000 OA
ENDBRANCH  14  16
ENDBRANCH   1  14
BRANCH   1  17
ATOM     17  C   UNL     1      44.254   5.023  11.355  0.00  0.00    +0.000 C 
BRANCH  17  18
ATOM     18  O   UNL     1      43.825   4.644  10.038  0.00  0.00    +0.000 OA
BRANCH  18  19
ATOM     19  C   UNL     1      44.707   3.881   9.323  0.00  0.00    +0.000 A 
ATOM     20  C   UNL     1      44.787   2.492   9.409  0.00  0.00    +0.000 A 
ATOM     21  C   UNL     1      45.685   1.796   8.599  0.00  0.00    +0.000 A 
ATOM     22  C   UNL     1      46.500   2.477   7.685  0.00  0.00    +0.000 A 
ATOM     23  C   UNL     1      46.426   3.871   7.608  0.00  0.00    +0.000 A 
ATOM     24  C   UNL     1      45.526   4.569   8.422  0.00  0.00    +0.000 A 
BRANCH  22  25
ATOM     25  C   UNL     1      47.410   1.666   6.837  0.00  0.00    +0.000 C 
ATOM     26  N   UNL     1      48.487   2.296   6.276  0.00  0.00    +0.000 N 
ATOM     27  O   UNL     1      47.184   0.488   6.598  0.00  0.00    +0.000 OA
ATOM     28  H   UNL     1      48.559   3.301   6.234  0.00  0.00    +0.000 HD
ATOM     29  H   UNL     1      48.997   1.759   5.587  0.00  0.00    +0.000 HD
ENDBRANCH  22  25
ENDBRANCH  18  19
ENDBRANCH  17  18
ENDBRANCH   1  17
TORSDOF 9
ENDMDL
MODEL 3
REMARK VINA RESULT:    -7.238      3.378      5.847
REMARK INTER + INTRA:         -12.055
REMARK INTER:                 -11.228
REMARK INTRA:                  -0.827
REMARK UNBOUND:                -1.009
REMARK  Name = 
REMARK  11 active torsions:
REMARK  status: ('A' for Active; 'I' for Inactive)
REMARK    1  A    between atoms: C_1  and  O_2
REMARK    2  A    between atoms: O_2  and  C_3
REMARK    3  A    between atoms: C_3  and  C_4
REMARK    4  A    between atoms: C_4  and  C_5
REMARK    5  A    between atoms: C_4  and  C_16
REMARK    6  A    between atoms: C_5  and  O_6
REMARK    7  A    between atoms: O_6  and  C_7
REMARK    8  A    between atoms: C_10  and  C_11
REMARK    9  A    between atoms: C_20  and  O_21
REMARK   10  A    between atoms: O_21  and  C_22
REMARK   11  A    between atoms: N_24  and  C_25
REMARK                            x       y       z     vdW  Elec       q    Type
REMARK                         _______ _______ _______ _____ _____    ______ ____
ROOT
ATOM      1  C   UNL     1      44.803   5.615  12.243  0.00  0.00    +0.000 C 
ENDROOT
BRANCH   1   2
ATOM      2  C   UNL     1      45.644   6.898  12.283  0.00  0.00    +0.000 A 
ATOM      3  C   UNL     1      47.045   6.908  12.210  0.00  0.00    +0.000 A 
ATOM      4  C   UNL     1      47.754   8.108  12.088  0.00  0.00    +0.000 A 
ATOM      5  C   UNL     1      47.080   9.326  12.076  0.00  0.00    +0.000 A 
ATOM      6  C   UNL     1      45.696   9.345  12.203  0.00  0.00    +0.000 A 
ATOM      7  C   UNL     1      44.989   8.142  12.288  0.00  0.00    +0.000 A 
BRANCH   6   8
ATOM      8  O   UNL     1      44.925  10.476  12.203  0.00  0.00    +0.000 OA
BRANCH   8   9
ATOM      9  C   UNL     1      44.037  10.710  11.087  0.00  0.00    +0.000 C 
ATOM     10  C   UNL     1      43.985  12.130  10.482  0.00  0.00    +0.000 C 
ATOM     11  N   UNL     1      42.519  12.162  10.639  0.00  0.00    +0.000 NA
ATOM     12  C   UNL     1      41.853  11.877   9.370  0.00  0.00    +0.000 C 
ATOM     13  C   UNL     1      42.565  10.952  11.480  0.00  0.00    +0.000 C 
ENDBRANCH   8   9
ENDBRANCH   6   8
ENDBRANCH   1   2
BRANCH   1  14
ATOM     14  C   UNL     1      45.611   4.346  12.611  0.00  0.00    +0.000 C 
BRANCH  14  16
ATOM     15  C   UNL     1      47.002   3.991  14.503  0.00  0.00    +0.000 C 
ATOM     16  O   UNL     1      45.678   4.182  14.030  0.00  0.00    +0.000 OA
ENDBRANCH  14  16
ENDBRANCH   1  14
BRANCH   1  17
ATOM     17  C   UNL     1      44.078   5.368  10.900  0.00  0.00    +0.000 C 
BRANCH  17  18
ATOM     18  O   UNL     1      44.106   3.966  10.589  0.00  0.00    +0.000 OA
BRANCH  18  19
ATOM     19  C   UNL     1      44.891   3.609   9.528  0.00  0.00    +0.000 A 
ATOM     20  C   UNL     1      45.506   4.519   8.670  0.00  0.00    +0.000 A 
ATOM     21  C   UNL     1      46.334   4.060   7.646  0.00  0.00    +0.000 A 
ATOM     22  C   UNL     1      46.568   2.688   7.476  0.00  0.00    +0.000 A 
ATOM     23  C   UNL     1      45.942   1.776   8.330  0.00  0.00    +0.000 A 
ATOM     24  C   UNL     1      45.111   2.238   9.357  0.00  0.00    +0.000 A 
BRANCH  22  25
ATOM     25  C   UNL     1      47.483   2.276   6.381  0.00  0.00    +0.000 C 
ATOM     26  N   UNL     1      47.474   3.018   5.232  0.00  0.00    +0.000 N 
ATOM     27  O   UNL     1      48.185   1.279   6.473  0.00  0.00    +0.000 OA
ATOM     28  H   UNL     1      46.737   3.673   5.021  0.00  0.00    +0.000 HD
ATOM     29  H   UNL     1      47.990   2.625   4.455  0.00  0.00    +0.000 HD
ENDBRANCH  22  25
ENDBRANCH  18  19
ENDBRANCH  17  18
ENDBRANCH   1  17
TORSDOF 9
ENDMDL
MODEL 4
REMARK VINA RESULT:    -7.113      2.114      3.328
REMARK INTER + INTRA:         -11.863
REMARK INTER:                 -11.405
REMARK INTRA:                  -0.458
REMARK UNBOUND:                -1.009
REMARK  Name = 
REMARK  11 active torsions:
REMARK  status: ('A' for Active; 'I' for Inactive)
REMARK    1  A    between atoms: C_1  and  O_2
REMARK    2  A    between atoms: O_2  and  C_3
REMARK    3  A    between atoms: C_3  and  C_4
REMARK    4  A    between atoms: C_4  and  C_5
REMARK    5  A    between atoms: C_4  and  C_16
REMARK    6  A    between atoms: C_5  and  O_6
REMARK    7  A    between atoms: O_6  and  C_7
REMARK    8  A    between atoms: C_10  and  C_11
REMARK    9  A    between atoms: C_20  and  O_21
REMARK   10  A    between atoms: O_21  and  C_22
REMARK   11  A    between atoms: N_24  and  C_25
REMARK                            x       y       z     vdW  Elec       q    Type
REMARK                         _______ _______ _______ _____ _____    ______ ____
ROOT
ATOM      1  C   UNL     1      44.468   5.229  11.887  0.00  0.00    +0.000 C 
ENDROOT
BRANCH   1   2
ATOM      2  C   UNL     1      45.227   6.563  11.864  0.00  0.00    +0.000 A 
ATOM      3  C   UNL     1      44.595   7.815  11.902  0.00  0.00    +0.000 A 
ATOM      4  C   UNL     1      45.335   8.993  12.042  0.00  0.00    +0.000 A 
ATOM      5  C   UNL     1      46.725   8.949  12.106  0.00  0.00    +0.000 A 
ATOM      6  C   UNL     1      47.376   7.725  12.013  0.00  0.00    +0.000 A 
ATOM      7  C   UNL     1      46.632   6.547  11.911  0.00  0.00    +0.000 A 
BRANCH   6   8
ATOM      8  O   UNL     1      48.734   7.555  12.066  0.00  0.00    +0.000 OA
BRANCH   8   9
ATOM      9  C   UNL     1      49.324   7.056  13.287  0.00  0.00    +0.000 C 
ATOM     10  C   UNL     1      48.555   7.273  14.609  0.00  0.00    +0.000 C 
ATOM     11  N   UNL     1      49.745   7.897  15.218  0.00  0.00    +0.000 NA
ATOM     12  C   UNL     1      50.446   6.949  16.081  0.00  0.00    +0.000 C 
ATOM     13  C   UNL     1      50.401   7.976  13.900  0.00  0.00    +0.000 C 
ENDBRANCH   8   9
ENDBRANCH   6   8
ENDBRANCH   1   2
BRANCH   1  14
ATOM     14  C   UNL     1      45.366   4.022  12.255  0.00  0.00    +0.000 C 
BRANCH  14  16
ATOM     15  C   UNL     1      46.906   3.739  14.041  0.00  0.00    +0.000 C 
ATOM     16  O   UNL     1      45.552   3.943  13.670  0.00  0.00    +0.000 OA
ENDBRANCH  14  16
ENDBRANCH   1  14
BRANCH   1  17
ATOM     17  C   UNL     1      43.712   4.902  10.577  0.00  0.00    +0.000 C 
BRANCH  17  18
ATOM     18  O   UNL     1      43.835   3.500  10.290  0.00  0.00    +0.000 OA
BRANCH  18  19
ATOM     19  C   UNL     1      44.789   3.165   9.368  0.00  0.00    +0.000 A 
ATOM     20  C   UNL     1      45.216   1.860   9.124  0.00  0.00    +0.000 A 
ATOM     21  C   UNL     1      46.156   1.612   8.124  0.00  0.00    +0.000 A 
ATOM     22  C   UNL     1      46.669   2.660   7.348  0.00  0.00    +0.000 A 
ATOM     23  C   UNL     1      46.247   3.969   7.600  0.00  0.00    +0.000 A 
ATOM     24  C   UNL     1      45.304   4.217   8.605  0.00  0.00    +0.000 A 
BRANCH  22  25
ATOM     25  C   UNL     1      47.645   2.315   6.283  0.00  0.00    +0.000 C 
ATOM     26  N   UNL     1      47.667   3.097   5.162  0.00  0.00    +0.000 N 
ATOM     27  O   UNL     1      48.372   1.335   6.373  0.00  0.00    +0.000 OA
ATOM     28  H   UNL     1      46.921   3.738   4.940  0.00  0.00    +0.000 HD
ATOM     29  H   UNL     1      48.230   2.748   4.397  0.00  0.00    +0.000 HD
ENDBRANCH  22  25
ENDBRANCH  18  19
ENDBRANCH  17  18
ENDBRANCH   1  17
TORSDOF 9
ENDMDL
MODEL 5
REMARK VINA RESULT:    -7.028      2.695      3.900
REMARK INTER + INTRA:         -11.734
REMARK INTER:                 -10.856
REMARK INTRA:                  -0.878
REMARK UNBOUND:                -1.009
REMARK  Name = 
REMARK  11 active torsions:
REMARK  status: ('A' for Active; 'I' for Inactive)
REMARK    1  A    between atoms: C_1  and  O_2
REMARK    2  A    between atoms: O_2  and  C_3
REMARK    3  A    between atoms: C_3  and  C_4
REMARK    4  A    between atoms: C_4  and  C_5
REMARK    5  A    between atoms: C_4  and  C_16
REMARK    6  A    between atoms: C_5  and  O_6
REMARK    7  A    between atoms: O_6  and  C_7
REMARK    8  A    between atoms: C_10  and  C_11
REMARK    9  A    between atoms: C_20  and  O_21
REMARK   10  A    between atoms: O_21  and  C_22
REMARK   11  A    between atoms: N_24  and  C_25
REMARK                            x       y       z     vdW  Elec       q    Type
REMARK                         _______ _______ _______ _____ _____    ______ ____
ROOT
ATOM      1  C   UNL     1      44.774   5.611  12.156  0.00  0.00    +0.000 C 
ENDROOT
BRANCH   1   2
ATOM      2  C   UNL     1      45.594   6.904  12.045  0.00  0.00    +0.000 A 
ATOM      3  C   UNL     1      45.033   8.187  12.146  0.00  0.00    +0.000 A 
ATOM      4  C   UNL     1      45.843   9.326  12.199  0.00  0.00    +0.000 A 
ATOM      5  C   UNL     1      47.228   9.211  12.113  0.00  0.00    +0.000 A 
ATOM      6  C   UNL     1      47.803   7.956  11.957  0.00  0.00    +0.000 A 
ATOM      7  C   UNL     1      46.992   6.817  11.941  0.00  0.00    +0.000 A 
BRANCH   6   8
ATOM      8  O   UNL     1      49.148   7.717  11.864  0.00  0.00    +0.000 OA
BRANCH   8   9
ATOM      9  C   UNL     1      50.058   8.599  12.557  0.00  0.00    +0.000 C 
ATOM     10  C   UNL     1      51.570   8.453  12.276  0.00  0.00    +0.000 C 
ATOM     11  N   UNL     1      51.843   8.323  13.720  0.00  0.00    +0.000 NA
ATOM     12  C   UNL     1      52.331   9.584  14.273  0.00  0.00    +0.000 C 
ATOM     13  C   UNL     1      50.404   8.162  13.995  0.00  0.00    +0.000 C 
ENDBRANCH   8   9
ENDBRANCH   6   8
ENDBRANCH   1   2
BRANCH   1  14
ATOM     14  C   UNL     1      45.629   4.380  12.547  0.00  0.00    +0.000 C 
BRANCH  14  16
ATOM     15  C   UNL     1      47.020   3.939  14.421  0.00  0.00    +0.000 C 
ATOM     16  O   UNL     1      45.712   4.251  13.968  0.00  0.00    +0.000 OA
ENDBRANCH  14  16
ENDBRANCH   1  14
BRANCH   1  17
ATOM     17  C   UNL     1      43.955   5.264  10.891  0.00  0.00    +0.000 C 
BRANCH  17  18
ATOM     18  O   UNL     1      44.082   3.861  10.607  0.00  0.00    +0.000 OA
BRANCH  18  19
ATOM     19  C   UNL     1      44.866   3.543   9.532  0.00  0.00    +0.000 A 
ATOM     20  C   UNL     1      45.430   4.482   8.671  0.00  0.00    +0.000 A 
ATOM     21  C   UNL     1      46.262   4.063   7.632  0.00  0.00    +0.000 A 
ATOM     22  C   UNL     1      46.550   2.703   7.451  0.00  0.00    +0.000 A 
ATOM     23  C   UNL     1      45.975   1.761   8.309  0.00  0.00    +0.000 A 
ATOM     24  C   UNL     1      45.140   2.183   9.351  0.00  0.00    +0.000 A 
BRANCH  22  25
ATOM     25  C   UNL     1      47.465   2.335   6.341  0.00  0.00    +0.000 C 
ATOM     26  N   UNL     1      47.405   3.077   5.194  0.00  0.00    +0.000 N 
ATOM     27  O   UNL     1      48.212   1.370   6.419  0.00  0.00    +0.000 OA
ATOM     28  H   UNL     1      46.635   3.699   4.997  0.00  0.00    +0.000 HD
ATOM     29  H   UNL     1      47.925   2.710   4.408  0.00  0.00    +0.000 HD
ENDBRANCH  22  25
ENDBRANCH  18  19
ENDBRANCH  17  18
ENDBRANCH   1  17
TORSDOF 9
ENDMDL
MODEL 6
REMARK VINA RESULT:    -6.789      1.848      8.628
REMARK INTER + INTRA:         -11.370
REMARK INTER:                 -10.410
REMARK INTRA:                  -0.960
REMARK UNBOUND:                -1.009
REMARK  Name = 
REMARK  11 active torsions:
REMARK  status: ('A' for Active; 'I' for Inactive)
REMARK    1  A    between atoms: C_1  and  O_2
REMARK    2  A    between atoms: O_2  and  C_3
REMARK    3  A    between atoms: C_3  and  C_4
REMARK    4  A    between atoms: C_4  and  C_5
REMARK    5  A    between atoms: C_4  and  C_16
REMARK    6  A    between atoms: C_5  and  O_6
REMARK    7  A    between atoms: O_6  and  C_7
REMARK    8  A    between atoms: C_10  and  C_11
REMARK    9  A    between atoms: C_20  and  O_21
REMARK   10  A    between atoms: O_21  and  C_22
REMARK   11  A    between atoms: N_24  and  C_25
REMARK                            x       y       z     vdW  Elec       q    Type
REMARK                         _______ _______ _______ _____ _____    ______ ____
ROOT
ATOM      1  C   UNL     1      46.287   5.254  13.604  0.00  0.00    +0.000 C 
ENDROOT
BRANCH   1   2
ATOM      2  C   UNL     1      45.023   4.926  12.799  0.00  0.00    +0.000 A 
ATOM      3  C   UNL     1      43.793   5.576  12.989  0.00  0.00    +0.000 A 
ATOM      4  C   UNL     1      42.718   5.354  12.123  0.00  0.00    +0.000 A 
ATOM      5  C   UNL     1      42.835   4.448  11.071  0.00  0.00    +0.000 A 
ATOM      6  C   UNL     1      44.024   3.751  10.897  0.00  0.00    +0.000 A 
ATOM      7  C   UNL     1      45.109   4.003  11.743  0.00  0.00    +0.000 A 
BRANCH   6   8
ATOM      8  O   UNL     1      44.259   2.840   9.902  0.00  0.00    +0.000 OA
BRANCH   8   9
ATOM      9  C   UNL     1      45.514   2.901   9.188  0.00  0.00    +0.000 C 
ATOM     10  C   UNL     1      45.542   3.621   7.822  0.00  0.00    +0.000 C 
ATOM     11  N   UNL     1      46.142   2.431   7.189  0.00  0.00    +0.000 NA
ATOM     12  C   UNL     1      47.583   2.605   7.018  0.00  0.00    +0.000 C 
ATOM     13  C   UNL     1      45.859   1.626   8.390  0.00  0.00    +0.000 C 
ENDBRANCH   8   9
ENDBRANCH   6   8
ENDBRANCH   1   2
BRANCH   1  14
ATOM     14  C   UNL     1      47.285   6.153  12.832  0.00  0.00    +0.000 C 
BRANCH  14  16
ATOM     15  C   UNL     1      49.384   7.213  13.174  0.00  0.00    +0.000 C 
ATOM     16  O   UNL     1      48.595   6.053  13.396  0.00  0.00    +0.000 OA
ENDBRANCH  14  16
ENDBRANCH   1  14
BRANCH   1  17
ATOM     17  C   UNL     1      47.045   4.015  14.135  0.00  0.00    +0.000 C 
BRANCH  17  18
ATOM     18  O   UNL     1      46.819   3.884  15.548  0.00  0.00    +0.000 OA
BRANCH  18  19
ATOM     19  C   UNL     1      47.943   3.806  16.324  0.00  0.00    +0.000 A 
ATOM     20  C   UNL     1      48.574   2.612  16.668  0.00  0.00    +0.000 A 
ATOM     21  C   UNL     1      49.749   2.638  17.420  0.00  0.00    +0.000 A 
ATOM     22  C   UNL     1      50.314   3.856  17.822  0.00  0.00    +0.000 A 
ATOM     23  C   UNL     1      49.675   5.052  17.485  0.00  0.00    +0.000 A 
ATOM     24  C   UNL     1      48.495   5.025  16.732  0.00  0.00    +0.000 A 
BRANCH  22  25
ATOM     25  C   UNL     1      51.581   3.805  18.596  0.00  0.00    +0.000 C 
ATOM     26  N   UNL     1      51.578   4.335  19.857  0.00  0.00    +0.000 N 
ATOM     27  O   UNL     1      52.610   3.356  18.112  0.00  0.00    +0.000 OA
ATOM     28  H   UNL     1      50.838   4.938  20.185  0.00  0.00    +0.000 HD
ATOM     29  H   UNL     1      52.485   4.423  20.296  0.00  0.00    +0.000 HD
ENDBRANCH  22  25
ENDBRANCH  18  19
ENDBRANCH  17  18
ENDBRANCH   1  17
TORSDOF 9
ENDMDL
MODEL 7
REMARK VINA RESULT:    -6.754      3.893      6.394
REMARK INTER + INTRA:         -11.316
REMARK INTER:                 -10.513
REMARK INTRA:                  -0.803
REMARK UNBOUND:                -1.009
REMARK  Name = 
REMARK  11 active torsions:
REMARK  status: ('A' for Active; 'I' for Inactive)
REMARK    1  A    between atoms: C_1  and  O_2
REMARK    2  A    between atoms: O_2  and  C_3
REMARK    3  A    between atoms: C_3  and  C_4
REMARK    4  A    between atoms: C_4  and  C_5
REMARK    5  A    between atoms: C_4  and  C_16
REMARK    6  A    between atoms: C_5  and  O_6
REMARK    7  A    between atoms: O_6  and  C_7
REMARK    8  A    between atoms: C_10  and  C_11
REMARK    9  A    between atoms: C_20  and  O_21
REMARK   10  A    between atoms: O_21  and  C_22
REMARK   11  A    between atoms: N_24  and  C_25
REMARK                            x       y       z     vdW  Elec       q    Type
REMARK                         _______ _______ _______ _____ _____    ______ ____
ROOT
ATOM      1  C   UNL     1      44.851   6.838  11.769  0.00  0.00    +0.000 C 
ENDROOT
BRANCH   1   2
ATOM      2  C   UNL     1      45.178   8.335  11.842  0.00  0.00    +0.000 A 
ATOM      3  C   UNL     1      46.463   8.836  12.101  0.00  0.00    +0.000 A 
ATOM      4  C   UNL     1      46.740  10.203  11.997  0.00  0.00    +0.000 A 
ATOM      5  C   UNL     1      45.730  11.104  11.672  0.00  0.00    +0.000 A 
ATOM      6  C   UNL     1      44.437  10.638  11.465  0.00  0.00    +0.000 A 
ATOM      7  C   UNL     1      44.172   9.267  11.534  0.00  0.00    +0.000 A 
BRANCH   6   8
ATOM      8  O   UNL     1      43.364  11.424  11.138  0.00  0.00    +0.000 OA
BRANCH   8   9
ATOM      9  C   UNL     1      42.043  10.994  11.535  0.00  0.00    +0.000 C 
ATOM     10  C   UNL     1      41.031  10.632  10.426  0.00  0.00    +0.000 C 
ATOM     11  N   UNL     1      40.042  11.564  11.001  0.00  0.00    +0.000 NA
ATOM     12  C   UNL     1      39.044  10.843  11.788  0.00  0.00    +0.000 C 
ATOM     13  C   UNL     1      41.073  12.142  11.881  0.00  0.00    +0.000 C 
ENDBRANCH   8   9
ENDBRANCH   6   8
ENDBRANCH   1   2
BRANCH   1  14
ATOM     14  C   UNL     1      45.024   6.110  13.126  0.00  0.00    +0.000 C 
BRANCH  14  16
ATOM     15  C   UNL     1      42.884   5.085  13.010  0.00  0.00    +0.000 C 
ATOM     16  O   UNL     1      44.283   4.887  13.142  0.00  0.00    +0.000 OA
ENDBRANCH  14  16
ENDBRANCH   1  14
BRANCH   1  17
ATOM     17  C   UNL     1      45.642   6.064  10.689  0.00  0.00    +0.000 C 
BRANCH  17  18
ATOM     18  O   UNL     1      44.752   5.189   9.977  0.00  0.00    +0.000 OA
BRANCH  18  19
ATOM     19  C   UNL     1      45.348   4.304   9.121  0.00  0.00    +0.000 A 
ATOM     20  C   UNL     1      46.160   4.679   8.052  0.00  0.00    +0.000 A 
ATOM     21  C   UNL     1      46.769   3.701   7.265  0.00  0.00    +0.000 A 
ATOM     22  C   UNL     1      46.586   2.340   7.546  0.00  0.00    +0.000 A 
ATOM     23  C   UNL     1      45.763   1.966   8.612  0.00  0.00    +0.000 A 
ATOM     24  C   UNL     1      45.151   2.948   9.400  0.00  0.00    +0.000 A 
BRANCH  22  25
ATOM     25  C   UNL     1      47.289   1.358   6.682  0.00  0.00    +0.000 C 
ATOM     26  N   UNL     1      48.277   1.825   5.861  0.00  0.00    +0.000 N 
ATOM     27  O   UNL     1      46.966   0.178   6.659  0.00  0.00    +0.000 OA
ATOM     28  H   UNL     1      48.390   2.808   5.662  0.00  0.00    +0.000 HD
ATOM     29  H   UNL     1      48.629   1.165   5.180  0.00  0.00    +0.000 HD
ENDBRANCH  22  25
ENDBRANCH  18  19
ENDBRANCH  17  18
ENDBRANCH   1  17
TORSDOF 9
ENDMDL
MODEL 8
REMARK VINA RESULT:    -6.652      2.514      3.692
REMARK INTER + INTRA:         -11.161
REMARK INTER:                 -10.190
REMARK INTRA:                  -0.971
REMARK UNBOUND:                -1.009
REMARK  Name = 
REMARK  11 active torsions:
REMARK  status: ('A' for Active; 'I' for Inactive)
REMARK    1  A    between atoms: C_1  and  O_2
REMARK    2  A    between atoms: O_2  and  C_3
REMARK    3  A    between atoms: C_3  and  C_4
REMARK    4  A    between atoms: C_4  and  C_5
REMARK    5  A    between atoms: C_4  and  C_16
REMARK    6  A    between atoms: C_5  and  O_6
REMARK    7  A    between atoms: O_6  and  C_7
REMARK    8  A    between atoms: C_10  and  C_11
REMARK    9  A    between atoms: C_20  and  O_21
REMARK   10  A    between atoms: O_21  and  C_22
REMARK   11  A    between atoms: N_24  and  C_25
REMARK                            x       y       z     vdW  Elec       q    Type
REMARK                         _______ _______ _______ _____ _____    ______ ____
ROOT
ATOM      1  C   UNL     1      45.256   5.304  11.836  0.00  0.00    +0.000 C 
ENDROOT
BRANCH   1   2
ATOM      2  C   UNL     1      46.144   5.331  13.087  0.00  0.00    +0.000 A 
ATOM      3  C   UNL     1      46.044   4.396  14.128  0.00  0.00    +0.000 A 
ATOM      4  C   UNL     1      46.981   4.367  15.166  0.00  0.00    +0.000 A 
ATOM      5  C   UNL     1      48.016   5.297  15.207  0.00  0.00    +0.000 A 
ATOM      6  C   UNL     1      48.103   6.269  14.217  0.00  0.00    +0.000 A 
ATOM      7  C   UNL     1      47.186   6.271  13.162  0.00  0.00    +0.000 A 
BRANCH   6   8
ATOM      8  O   UNL     1      49.074   7.232  14.149  0.00  0.00    +0.000 OA
BRANCH   8   9
ATOM      9  C   UNL     1      48.826   8.411  13.352  0.00  0.00    +0.000 C 
ATOM     10  C   UNL     1      50.042   9.190  12.803  0.00  0.00    +0.000 C 
ATOM     11  N   UNL     1      49.527  10.441  13.392  0.00  0.00    +0.000 NA
ATOM     12  C   UNL     1      48.871  11.262  12.377  0.00  0.00    +0.000 C 
ATOM     13  C   UNL     1      48.528   9.686  14.169  0.00  0.00    +0.000 C 
ENDBRANCH   8   9
ENDBRANCH   6   8
ENDBRANCH   1   2
BRANCH   1  14
ATOM     14  C   UNL     1      44.330   6.541  11.719  0.00  0.00    +0.000 C 
BRANCH  14  16
ATOM     15  C   UNL     1      44.664   8.886  11.539  0.00  0.00    +0.000 C 
ATOM     16  O   UNL     1      44.989   7.603  11.026  0.00  0.00    +0.000 OA
ENDBRANCH  14  16
ENDBRANCH   1  14
BRANCH   1  17
ATOM     17  C   UNL     1      44.396   4.027  11.691  0.00  0.00    +0.000 C 
BRANCH  17  18
ATOM     18  O   UNL     1      43.845   3.967  10.365  0.00  0.00    +0.000 OA
BRANCH  18  19
ATOM     19  C   UNL     1      44.712   3.581   9.380  0.00  0.00    +0.000 A 
ATOM     20  C   UNL     1      45.318   4.460   8.484  0.00  0.00    +0.000 A 
ATOM     21  C   UNL     1      46.232   3.977   7.546  0.00  0.00    +0.000 A 
ATOM     22  C   UNL     1      46.561   2.615   7.504  0.00  0.00    +0.000 A 
ATOM     23  C   UNL     1      45.944   1.733   8.396  0.00  0.00    +0.000 A 
ATOM     24  C   UNL     1      45.027   2.218   9.336  0.00  0.00    +0.000 A 
BRANCH  22  25
ATOM     25  C   UNL     1      47.563   2.180   6.497  0.00  0.00    +0.000 C 
ATOM     26  N   UNL     1      47.843   3.035   5.468  0.00  0.00    +0.000 N 
ATOM     27  O   UNL     1      48.084   1.075   6.548  0.00  0.00    +0.000 OA
ATOM     28  H   UNL     1      47.254   3.825   5.250  0.00  0.00    +0.000 HD
ATOM     29  H   UNL     1      48.409   2.651   4.722  0.00  0.00    +0.000 HD
ENDBRANCH  22  25
ENDBRANCH  18  19
ENDBRANCH  17  18
ENDBRANCH   1  17
TORSDOF 9
ENDMDL
MODEL 9
REMARK VINA RESULT:    -6.511      3.288      7.842
REMARK INTER + INTRA:         -10.945
REMARK INTER:                  -9.641
REMARK INTRA:                  -1.304
REMARK UNBOUND:                -1.009
REMARK  Name = 
REMARK  11 active torsions:
REMARK  status: ('A' for Active; 'I' for Inactive)
REMARK    1  A    between atoms: C_1  and  O_2
REMARK    2  A    between atoms: O_2  and  C_3
REMARK    3  A    between atoms: C_3  and  C_4
REMARK    4  A    between atoms: C_4  and  C_5
REMARK    5  A    between atoms: C_4  and  C_16
REMARK    6  A    between atoms: C_5  and  O_6
REMARK    7  A    between atoms: O_6  and  C_7
REMARK    8  A    between atoms: C_10  and  C_11
REMARK    9  A    between atoms: C_20  and  O_21
REMARK   10  A    between atoms: O_21  and  C_22
REMARK   11  A    between atoms: N_24  and  C_25
REMARK                            x       y       z     vdW  Elec       q    Type
REMARK                         _______ _______ _______ _____ _____    ______ ____
ROOT
ATOM      1  C   UNL     1      46.821   4.739  13.557  0.00  0.00    +0.000 C 
ENDROOT
BRANCH   1   2
ATOM      2  C   UNL     1      45.456   4.490  12.902  0.00  0.00    +0.000 A 
ATOM      3  C   UNL     1      44.257   5.048  13.372  0.00  0.00    +0.000 A 
ATOM      4  C   UNL     1      43.068   4.922  12.647  0.00  0.00    +0.000 A 
ATOM      5  C   UNL     1      43.042   4.201  11.456  0.00  0.00    +0.000 A 
ATOM      6  C   UNL     1      44.204   3.592  10.999  0.00  0.00    +0.000 A 
ATOM      7  C   UNL     1      45.399   3.751  11.707  0.00  0.00    +0.000 A 
BRANCH   6   8
ATOM      8  O   UNL     1      44.303   2.862   9.845  0.00  0.00    +0.000 OA
BRANCH   8   9
ATOM      9  C   UNL     1      45.555   2.871   9.124  0.00  0.00    +0.000 C 
ATOM     10  C   UNL     1      45.592   3.549   7.736  0.00  0.00    +0.000 C 
ATOM     11  N   UNL     1      46.161   2.327   7.136  0.00  0.00    +0.000 NA
ATOM     12  C   UNL     1      47.605   2.461   6.953  0.00  0.00    +0.000 C 
ATOM     13  C   UNL     1      45.866   1.565   8.363  0.00  0.00    +0.000 C 
ENDBRANCH   8   9
ENDBRANCH   6   8
ENDBRANCH   1   2
BRANCH   1  14
ATOM     14  C   UNL     1      46.900   4.222  15.015  0.00  0.00    +0.000 C 
BRANCH  14  16
ATOM     15  C   UNL     1      48.400   4.071  16.851  0.00  0.00    +0.000 C 
ATOM     16  O   UNL     1      48.014   4.802  15.698  0.00  0.00    +0.000 OA
ENDBRANCH  14  16
ENDBRANCH   1  14
BRANCH   1  17
ATOM     17  C   UNL     1      47.282   6.215  13.530  0.00  0.00    +0.000 C 
BRANCH  17  18
ATOM     18  O   UNL     1      47.199   6.720  12.187  0.00  0.00    +0.000 OA
BRANCH  18  19
ATOM     19  C   UNL     1      46.640   7.961  12.054  0.00  0.00    +0.000 A 
ATOM     20  C   UNL     1      47.347   9.154  12.185  0.00  0.00    +0.000 A 
ATOM     21  C   UNL     1      46.699  10.373  11.977  0.00  0.00    +0.000 A 
ATOM     22  C   UNL     1      45.344  10.411  11.623  0.00  0.00    +0.000 A 
ATOM     23  C   UNL     1      44.633   9.213  11.502  0.00  0.00    +0.000 A 
ATOM     24  C   UNL     1      45.284   7.991  11.712  0.00  0.00    +0.000 A 
BRANCH  22  25
ATOM     25  C   UNL     1      44.731  11.744  11.391  0.00  0.00    +0.000 C 
ATOM     26  N   UNL     1      45.461  12.668  10.697  0.00  0.00    +0.000 N 
ATOM     27  O   UNL     1      43.634  12.032  11.848  0.00  0.00    +0.000 OA
ATOM     28  H   UNL     1      46.451  12.561  10.537  0.00  0.00    +0.000 HD
ATOM     29  H   UNL     1      45.083  13.607  10.689  0.00  0.00    +0.000 HD
ENDBRANCH  22  25
ENDBRANCH  18  19
ENDBRANCH  17  18
ENDBRANCH   1  17
TORSDOF 9
ENDMDL
