MODEL 1
REMARK VINA RESULT:    -8.221      0.000      0.000
REMARK INTER + INTRA:         -12.085
REMARK INTER:                 -11.104
REMARK INTRA:                  -0.981
REMARK UNBOUND:                -0.981
REMARK  Name = 
REMARK  7 active torsions:
REMARK  status: ('A' for Active; 'I' for Inactive)
REMARK    1  A    between atoms: C_1  and  C_2
REMARK    2  A    between atoms: C_2  and  N_3
REMARK    3  A    between atoms: C_2  and  C_16
REMARK    4  A    between atoms: C_4  and  C_6
REMARK    5  A    between atoms: C_19  and  C_20
REMARK    6  A    between atoms: C_20  and  N_21
REMARK    7  A    between atoms: C_22  and  C_24
REMARK                            x       y       z     vdW  Elec       q    Type
REMARK                         _______ _______ _______ _____ _____    ______ ____
ROOT
ATOM      1  C   UNL     1      47.915   8.616  12.494  0.00  0.00    +0.000 C 
ATOM      2  C   UNL     1      47.164   7.676  13.439  0.00  0.00    +0.000 C 
ENDROOT
BRANCH   2   3
ATOM      3  C   UNL     1      46.223   6.706  12.754  0.00  0.00    +0.000 A 
ATOM      4  C   UNL     1      46.457   5.330  12.850  0.00  0.00    +0.000 A 
ATOM      5  C   UNL     1      45.619   4.424  12.201  0.00  0.00    +0.000 A 
ATOM      6  C   UNL     1      44.564   4.912  11.439  0.00  0.00    +0.000 A 
ATOM      7  N   UNL     1      44.307   6.240  11.328  0.00  0.00    +0.000 NA
ATOM      8  C   UNL     1      45.141   7.098  11.971  0.00  0.00    +0.000 A 
BRANCH   6   9
ATOM      9  C   UNL     1      43.658   3.959  10.691  0.00  0.00    +0.000 C 
BRANCH   9  10
ATOM     10  N   UNL     1      44.364   3.183   9.693  0.00  0.00    +0.000 N 
ATOM     11  C   UNL     1      45.006   3.771   8.629  0.00  0.00    +0.000 C 
ATOM     12  O   UNL     1      45.032   4.986   8.456  0.00  0.00    +0.000 OA
ATOM     13  H   UNL     1      44.561   2.220   9.927  0.00  0.00    +0.000 HD
BRANCH  11  14
ATOM     14  C   UNL     1      45.719   2.779   7.713  0.00  0.00    +0.000 C 
ATOM     15  C   UNL     1      46.091   1.490   8.455  0.00  0.00    +0.000 C 
ATOM     16  C   UNL     1      46.836   0.543   7.524  0.00  0.00    +0.000 C 
ATOM     17  O   UNL     1      47.997   1.172   6.984  0.00  0.00    +0.000 OA
ATOM     18  C   UNL     1      47.683   2.334   6.220  0.00  0.00    +0.000 C 
ATOM     19  C   UNL     1      46.984   3.377   7.084  0.00  0.00    +0.000 C 
ENDBRANCH  11  14
ENDBRANCH   9  10
ENDBRANCH   6   9
ENDBRANCH   2   3
BRANCH   2  20
ATOM     20  N   UNL     1      48.091   6.939  14.276  0.00  0.00    +0.000 N 
ATOM     21  C   UNL     1      48.565   7.437  15.464  0.00  0.00    +0.000 C 
ATOM     22  O   UNL     1      48.198   8.516  15.918  0.00  0.00    +0.000 OA
ATOM     23  H   UNL     1      48.551   6.135  13.861  0.00  0.00    +0.000 HD
BRANCH  21  24
ATOM     24  C   UNL     1      49.490   6.573  16.203  0.00  0.00    +0.000 A 
ATOM     25  C   UNL     1      50.769   7.022  16.500  0.00  0.00    +0.000 A 
ATOM     26  S   UNL     1      51.702   5.895  17.376  0.00  0.00    +0.000 S 
ATOM     27  C   UNL     1      50.446   4.747  17.342  0.00  0.00    +0.000 A 
ATOM     28  N   UNL     1      50.609   3.515  17.892  0.00  0.00    +0.000 NA
ATOM     29  C   UNL     1      49.589   2.732  17.762  0.00  0.00    +0.000 A 
ATOM     30  N   UNL     1      48.418   3.078  17.143  0.00  0.00    +0.000 N 
ATOM     31  C   UNL     1      48.184   4.331  16.626  0.00  0.00    +0.000 A 
ATOM     32  O   UNL     1      47.086   4.645  16.170  0.00  0.00    +0.000 OA
ATOM     33  C   UNL     1      49.318   5.230  16.706  0.00  0.00    +0.000 A 
ATOM     34  H   UNL     1      47.646   2.426  17.098  0.00  0.00    +0.000 HD
ENDBRANCH  21  24
ENDBRANCH   2  20
TORSDOF 6
ENDMDL
MODEL 2
REMARK VINA RESULT:    -7.873      1.456      1.628
REMARK INTER + INTRA:         -11.615
REMARK INTER:                 -11.421
REMARK INTRA:                  -0.194
REMARK UNBOUND:                -0.981
REMARK  Name = 
REMARK  7 active torsions:
REMARK  status: ('A' for Active; 'I' for Inactive)
REMARK    1  A    between atoms: C_1  and  C_2
REMARK    2  A    between atoms: C_2  and  N_3
REMARK    3  A    between atoms: C_2  and  C_16
REMARK    4  A    between atoms: C_4  and  C_6
REMARK    5  A    between atoms: C_19  and  C_20
REMARK    6  A    between atoms: C_20  and  N_21
REMARK    7  A    between atoms: C_22  and  C_24
REMARK                            x       y       z     vdW  Elec       q    Type
REMARK                         _______ _______ _______ _____ _____    ______ ____
ROOT
ATOM      1  C   UNL     1      48.673   8.913  12.891  0.00  0.00    +0.000 C 
ATOM      2  C   UNL     1      47.392   8.428  13.575  0.00  0.00    +0.000 C 
ENDROOT
BRANCH   2   3
ATOM      3  C   UNL     1      46.470   7.615  12.690  0.00  0.00    +0.000 A 
ATOM      4  C   UNL     1      45.179   8.084  12.421  0.00  0.00    +0.000 A 
ATOM      5  C   UNL     1      44.306   7.336  11.634  0.00  0.00    +0.000 A 
ATOM      6  C   UNL     1      44.730   6.107  11.141  0.00  0.00    +0.000 A 
ATOM      7  N   UNL     1      45.977   5.625  11.379  0.00  0.00    +0.000 NA
ATOM      8  C   UNL     1      46.804   6.377  12.151  0.00  0.00    +0.000 A 
BRANCH   6   9
ATOM      9  C   UNL     1      43.796   5.252  10.313  0.00  0.00    +0.000 C 
BRANCH   9  10
ATOM     10  N   UNL     1      44.484   4.527   9.265  0.00  0.00    +0.000 N 
ATOM     11  C   UNL     1      44.520   3.153   9.228  0.00  0.00    +0.000 C 
ATOM     12  O   UNL     1      43.970   2.450  10.071  0.00  0.00    +0.000 OA
ATOM     13  H   UNL     1      44.739   5.057   8.443  0.00  0.00    +0.000 HD
BRANCH  11  14
ATOM     14  C   UNL     1      45.265   2.587   8.022  0.00  0.00    +0.000 C 
ATOM     15  C   UNL     1      46.170   1.413   8.414  0.00  0.00    +0.000 C 
ATOM     16  C   UNL     1      46.927   0.903   7.195  0.00  0.00    +0.000 C 
ATOM     17  O   UNL     1      47.686   1.951   6.595  0.00  0.00    +0.000 OA
ATOM     18  C   UNL     1      46.870   3.029   6.147  0.00  0.00    +0.000 C 
ATOM     19  C   UNL     1      46.110   3.653   7.311  0.00  0.00    +0.000 C 
ENDBRANCH  11  14
ENDBRANCH   9  10
ENDBRANCH   6   9
ENDBRANCH   2   3
BRANCH   2  20
ATOM     20  N   UNL     1      47.703   7.671  14.772  0.00  0.00    +0.000 N 
ATOM     21  C   UNL     1      48.857   6.939  14.900  0.00  0.00    +0.000 C 
ATOM     22  O   UNL     1      49.722   6.916  14.030  0.00  0.00    +0.000 OA
ATOM     23  H   UNL     1      46.948   7.519  15.433  0.00  0.00    +0.000 HD
BRANCH  21  24
ATOM     24  C   UNL     1      49.035   6.232  16.173  0.00  0.00    +0.000 A 
ATOM     25  C   UNL     1      49.982   6.676  17.084  0.00  0.00    +0.000 A 
ATOM     26  S   UNL     1      50.044   5.745  18.512  0.00  0.00    +0.000 S 
ATOM     27  C   UNL     1      48.842   4.685  17.937  0.00  0.00    +0.000 A 
ATOM     28  N   UNL     1      48.445   3.614  18.673  0.00  0.00    +0.000 NA
ATOM     29  C   UNL     1      47.554   2.873  18.100  0.00  0.00    +0.000 A 
ATOM     30  N   UNL     1      47.016   3.119  16.866  0.00  0.00    +0.000 N 
ATOM     31  C   UNL     1      47.341   4.222  16.111  0.00  0.00    +0.000 A 
ATOM     32  O   UNL     1      46.766   4.472  15.054  0.00  0.00    +0.000 OA
ATOM     33  C   UNL     1      48.373   5.058  16.692  0.00  0.00    +0.000 A 
ATOM     34  H   UNL     1      46.301   2.513  16.484  0.00  0.00    +0.000 HD
ENDBRANCH  21  24
ENDBRANCH   2  20
TORSDOF 6
ENDMDL
MODEL 3
REMARK VINA RESULT:    -7.179      1.833      1.989
REMARK INTER + INTRA:         -10.678
REMARK INTER:                 -10.231
REMARK INTRA:                  -0.447
REMARK UNBOUND:                -0.981
REMARK  Name = 
REMARK  7 active torsions:
REMARK  status: ('A' for Active; 'I' for Inactive)
REMARK    1  A    between atoms: C_1  and  C_2
REMARK    2  A    between atoms: C_2  and  N_3
REMARK    3  A    between atoms: C_2  and  C_16
REMARK    4  A    between atoms: C_4  and  C_6
REMARK    5  A    between atoms: C_19  and  C_20
REMARK    6  A    between atoms: C_20  and  N_21
REMARK    7  A    between atoms: C_22  and  C_24
REMARK                            x       y       z     vdW  Elec       q    Type
REMARK                         _______ _______ _______ _____ _____    ______ ____
ROOT
ATOM      1  C   UNL     1      47.407   8.679  12.221  0.00  0.00    +0.000 C 
ATOM      2  C   UNL     1      46.729   7.815  13.289  0.00  0.00    +0.000 C 
ENDROOT
BRANCH   2   3
ATOM      3  C   UNL     1      45.953   6.632  12.748  0.00  0.00    +0.000 A 
ATOM      4  C   UNL     1      46.427   5.334  12.970  0.00  0.00    +0.000 A 
ATOM      5  C   UNL     1      45.743   4.235  12.454  0.00  0.00    +0.000 A 
ATOM      6  C   UNL     1      44.597   4.451  11.698  0.00  0.00    +0.000 A 
ATOM      7  N   UNL     1      44.108   5.696  11.467  0.00  0.00    +0.000 NA
ATOM      8  C   UNL     1      44.798   6.747  11.981  0.00  0.00    +0.000 A 
BRANCH   6   9
ATOM      9  C   UNL     1      43.850   3.283  11.092  0.00  0.00    +0.000 C 
BRANCH   9  10
ATOM     10  N   UNL     1      44.564   2.675   9.988  0.00  0.00    +0.000 N 
ATOM     11  C   UNL     1      44.735   3.319   8.784  0.00  0.00    +0.000 C 
ATOM     12  O   UNL     1      44.305   4.449   8.567  0.00  0.00    +0.000 OA
ATOM     13  H   UNL     1      45.123   1.863  10.205  0.00  0.00    +0.000 HD
BRANCH  11  14
ATOM     14  C   UNL     1      45.545   2.520   7.767  0.00  0.00    +0.000 C 
ATOM     15  C   UNL     1      46.169   1.269   8.396  0.00  0.00    +0.000 C 
ATOM     16  C   UNL     1      47.003   0.522   7.364  0.00  0.00    +0.000 C 
ATOM     17  O   UNL     1      48.009   1.370   6.815  0.00  0.00    +0.000 OA
ATOM     18  C   UNL     1      47.463   2.508   6.152  0.00  0.00    +0.000 C 
ATOM     19  C   UNL     1      46.654   3.362   7.120  0.00  0.00    +0.000 C 
ENDBRANCH  11  14
ENDBRANCH   9  10
ENDBRANCH   6   9
ENDBRANCH   2   3
BRANCH   2  20
ATOM     20  N   UNL     1      47.695   7.354  14.267  0.00  0.00    +0.000 N 
ATOM     21  C   UNL     1      48.407   8.216  15.061  0.00  0.00    +0.000 C 
ATOM     22  O   UNL     1      48.239   9.432  15.029  0.00  0.00    +0.000 OA
ATOM     23  H   UNL     1      47.991   6.385  14.203  0.00  0.00    +0.000 HD
BRANCH  21  24
ATOM     24  C   UNL     1      49.342   7.601  16.008  0.00  0.00    +0.000 A 
ATOM     25  C   UNL     1      50.457   6.922  15.538  0.00  0.00    +0.000 A 
ATOM     26  S   UNL     1      51.439   6.283  16.778  0.00  0.00    +0.000 S 
ATOM     27  C   UNL     1      50.378   6.848  17.984  0.00  0.00    +0.000 A 
ATOM     28  N   UNL     1      50.616   6.596  19.298  0.00  0.00    +0.000 NA
ATOM     29  C   UNL     1      49.711   7.050  20.101  0.00  0.00    +0.000 A 
ATOM     30  N   UNL     1      48.599   7.745  19.706  0.00  0.00    +0.000 N 
ATOM     31  C   UNL     1      48.347   8.076  18.395  0.00  0.00    +0.000 A 
ATOM     32  O   UNL     1      47.396   8.790  18.082  0.00  0.00    +0.000 OA
ATOM     33  C   UNL     1      49.312   7.546  17.451  0.00  0.00    +0.000 A 
ATOM     34  H   UNL     1      47.941   8.097  20.390  0.00  0.00    +0.000 HD
ENDBRANCH  21  24
ENDBRANCH   2  20
TORSDOF 6
ENDMDL
MODEL 4
REMARK VINA RESULT:    -6.828      5.341      7.638
REMARK INTER + INTRA:         -10.203
REMARK INTER:                  -9.186
REMARK INTRA:                  -1.017
REMARK UNBOUND:                -0.981
REMARK  Name = 
REMARK  7 active torsions:
REMARK  status: ('A' for Active; 'I' for Inactive)
REMARK    1  A    between atoms: C_1  and  C_2
REMARK    2  A    between atoms: C_2  and  N_3
REMARK    3  A    between atoms: C_2  and  C_16
REMARK    4  A    between atoms: C_4  and  C_6
REMARK    5  A    between atoms: C_19  and  C_20
REMARK    6  A    between atoms: C_20  and  N_21
REMARK    7  A    between atoms: C_22  and  C_24
REMARK                            x       y       z     vdW  Elec       q    Type
REMARK                         _______ _______ _______ _____ _____    ______ ____
ROOT
ATOM      1  C   UNL     1      50.848  10.987  11.574  0.00  0.00    +0.000 C 
ATOM      2  C   UNL     1      51.371   9.550  11.655  0.00  0.00    +0.000 C 
ENDROOT
BRANCH   2   3
ATOM      3  C   UNL     1      50.444   8.577  12.354  0.00  0.00    +0.000 A 
ATOM      4  C   UNL     1      49.250   8.193  11.735  0.00  0.00    +0.000 A 
ATOM      5  C   UNL     1      48.370   7.322  12.376  0.00  0.00    +0.000 A 
ATOM      6  C   UNL     1      48.689   6.861  13.648  0.00  0.00    +0.000 A 
ATOM      7  N   UNL     1      49.841   7.210  14.275  0.00  0.00    +0.000 NA
ATOM      8  C   UNL     1      50.677   8.062  13.625  0.00  0.00    +0.000 A 
BRANCH   6   9
ATOM      9  C   UNL     1      47.740   5.944  14.388  0.00  0.00    +0.000 C 
BRANCH   9  10
ATOM     10  N   UNL     1      46.528   5.674  13.643  0.00  0.00    +0.000 N 
ATOM     11  C   UNL     1      46.124   4.393  13.344  0.00  0.00    +0.000 C 
ATOM     12  O   UNL     1      46.753   3.399  13.693  0.00  0.00    +0.000 OA
ATOM     13  H   UNL     1      45.877   6.440  13.548  0.00  0.00    +0.000 HD
BRANCH  11  14
ATOM     14  C   UNL     1      44.802   4.326  12.583  0.00  0.00    +0.000 C 
ATOM     15  C   UNL     1      45.022   4.316  11.066  0.00  0.00    +0.000 C 
ATOM     16  C   UNL     1      43.683   4.290  10.341  0.00  0.00    +0.000 C 
ATOM     17  O   UNL     1      42.875   5.399  10.730  0.00  0.00    +0.000 OA
ATOM     18  C   UNL     1      42.584   5.400  12.125  0.00  0.00    +0.000 C 
ATOM     19  C   UNL     1      43.865   5.486  12.946  0.00  0.00    +0.000 C 
ENDBRANCH  11  14
ENDBRANCH   9  10
ENDBRANCH   6   9
ENDBRANCH   2   3
BRANCH   2  20
ATOM     20  N   UNL     1      51.695   9.046  10.335  0.00  0.00    +0.000 N 
ATOM     21  C   UNL     1      52.950   8.602  10.005  0.00  0.00    +0.000 C 
ATOM     22  O   UNL     1      53.868   8.558  10.819  0.00  0.00    +0.000 OA
ATOM     23  H   UNL     1      51.026   9.228   9.592  0.00  0.00    +0.000 HD
BRANCH  21  24
ATOM     24  C   UNL     1      53.124   8.113   8.633  0.00  0.00    +0.000 A 
ATOM     25  C   UNL     1      52.970   8.984   7.564  0.00  0.00    +0.000 A 
ATOM     26  S   UNL     1      53.221   8.250   6.045  0.00  0.00    +0.000 S 
ATOM     27  C   UNL     1      53.492   6.731   6.763  0.00  0.00    +0.000 A 
ATOM     28  N   UNL     1      53.730   5.630   6.002  0.00  0.00    +0.000 NA
ATOM     29  C   UNL     1      53.880   4.537   6.676  0.00  0.00    +0.000 A 
ATOM     30  N   UNL     1      53.828   4.452   8.041  0.00  0.00    +0.000 N 
ATOM     31  C   UNL     1      53.651   5.547   8.855  0.00  0.00    +0.000 A 
ATOM     32  O   UNL     1      53.713   5.457  10.080  0.00  0.00    +0.000 OA
ATOM     33  C   UNL     1      53.430   6.790   8.142  0.00  0.00    +0.000 A 
ATOM     34  H   UNL     1      53.980   3.568   8.510  0.00  0.00    +0.000 HD
ENDBRANCH  21  24
ENDBRANCH   2  20
TORSDOF 6
ENDMDL
MODEL 5
REMARK VINA RESULT:    -6.665      1.775      2.244
REMARK INTER + INTRA:          -9.984
REMARK INTER:                  -9.115
REMARK INTRA:                  -0.869
REMARK UNBOUND:                -0.981
REMARK  Name = 
REMARK  7 active torsions:
REMARK  status: ('A' for Active; 'I' for Inactive)
REMARK    1  A    between atoms: C_1  and  C_2
REMARK    2  A    between atoms: C_2  and  N_3
REMARK    3  A    between atoms: C_2  and  C_16
REMARK    4  A    between atoms: C_4  and  C_6
REMARK    5  A    between atoms: C_19  and  C_20
REMARK    6  A    between atoms: C_20  and  N_21
REMARK    7  A    between atoms: C_22  and  C_24
REMARK                            x       y       z     vdW  Elec       q    Type
REMARK                         _______ _______ _______ _____ _____    ______ ____
ROOT
ATOM      1  C   UNL     1      47.936  10.637  11.558  0.00  0.00    +0.000 C 
ATOM      2  C   UNL     1      47.587   9.565  12.593  0.00  0.00    +0.000 C 
ENDROOT
BRANCH   2   3
ATOM      3  C   UNL     1      46.700   8.450  12.076  0.00  0.00    +0.000 A 
ATOM      4  C   UNL     1      45.335   8.685  11.883  0.00  0.00    +0.000 A 
ATOM      5  C   UNL     1      44.499   7.663  11.437  0.00  0.00    +0.000 A 
ATOM      6  C   UNL     1      45.040   6.403  11.210  0.00  0.00    +0.000 A 
ATOM      7  N   UNL     1      46.361   6.142  11.382  0.00  0.00    +0.000 NA
ATOM      8  C   UNL     1      47.149   7.158  11.820  0.00  0.00    +0.000 A 
BRANCH   6   9
ATOM      9  C   UNL     1      44.155   5.260  10.761  0.00  0.00    +0.000 C 
BRANCH   9  10
ATOM     10  N   UNL     1      44.644   4.614   9.560  0.00  0.00    +0.000 N 
ATOM     11  C   UNL     1      45.074   3.307   9.557  0.00  0.00    +0.000 C 
ATOM     12  O   UNL     1      45.066   2.602  10.561  0.00  0.00    +0.000 OA
ATOM     13  H   UNL     1      44.446   5.079   8.685  0.00  0.00    +0.000 HD
BRANCH  11  14
ATOM     14  C   UNL     1      45.515   2.807   8.184  0.00  0.00    +0.000 C 
ATOM     15  C   UNL     1      46.298   1.493   8.284  0.00  0.00    +0.000 C 
ATOM     16  C   UNL     1      46.757   1.047   6.902  0.00  0.00    +0.000 C 
ATOM     17  O   UNL     1      47.543   2.061   6.278  0.00  0.00    +0.000 OA
ATOM     18  C   UNL     1      46.823   3.277   6.097  0.00  0.00    +0.000 C 
ATOM     19  C   UNL     1      46.368   3.842   7.437  0.00  0.00    +0.000 C 
ENDBRANCH  11  14
ENDBRANCH   9  10
ENDBRANCH   6   9
ENDBRANCH   2   3
BRANCH   2  20
ATOM     20  N   UNL     1      48.788   8.997  13.172  0.00  0.00    +0.000 N 
ATOM     21  C   UNL     1      48.976   8.900  14.528  0.00  0.00    +0.000 C 
ATOM     22  O   UNL     1      48.120   9.243  15.337  0.00  0.00    +0.000 OA
ATOM     23  H   UNL     1      49.584   8.868  12.555  0.00  0.00    +0.000 HD
BRANCH  21  24
ATOM     24  C   UNL     1      50.240   8.297  14.964  0.00  0.00    +0.000 A 
ATOM     25  C   UNL     1      51.445   8.805  14.502  0.00  0.00    +0.000 A 
ATOM     26  S   UNL     1      52.810   7.992  15.122  0.00  0.00    +0.000 S 
ATOM     27  C   UNL     1      51.833   6.899  15.988  0.00  0.00    +0.000 A 
ATOM     28  N   UNL     1      52.386   5.893  16.716  0.00  0.00    +0.000 NA
ATOM     29  C   UNL     1      51.528   5.116  17.291  0.00  0.00    +0.000 A 
ATOM     30  N   UNL     1      50.169   5.266  17.213  0.00  0.00    +0.000 N 
ATOM     31  C   UNL     1      49.566   6.302  16.539  0.00  0.00    +0.000 A 
ATOM     32  O   UNL     1      48.348   6.471  16.573  0.00  0.00    +0.000 OA
ATOM     33  C   UNL     1      50.488   7.174  15.838  0.00  0.00    +0.000 A 
ATOM     34  H   UNL     1      49.551   4.637  17.709  0.00  0.00    +0.000 HD
ENDBRANCH  21  24
ENDBRANCH   2  20
TORSDOF 6
ENDMDL
MODEL 6
REMARK VINA RESULT:    -6.631      2.234      3.204
REMARK INTER + INTRA:          -9.938
REMARK INTER:                  -8.750
REMARK INTRA:                  -1.187
REMARK UNBOUND:                -0.981
REMARK  Name = 
REMARK  7 active torsions:
REMARK  status: ('A' for Active; 'I' for Inactive)
REMARK    1  A    between atoms: C_1  and  C_2
REMARK    2  A    between atoms: C_2  and  N_3
REMARK    3  A    between atoms: C_2  and  C_16
REMARK    4  A    between atoms: C_4  and  C_6
REMARK    5  A    between atoms: C_19  and  C_20
REMARK    6  A    between atoms: C_20  and  N_21
REMARK    7  A    between atoms: C_22  and  C_24
REMARK                            x       y       z     vdW  Elec       q    Type
REMARK                         _______ _______ _______ _____ _____    ______ ____
ROOT
ATOM      1  C   UNL     1      51.056   8.580  13.079  0.00  0.00    +0.000 C 
ATOM      2  C   UNL     1      49.907   8.288  14.048  0.00  0.00    +0.000 C 
ENDROOT
BRANCH   2   3
ATOM      3  C   UNL     1      48.581   7.976  13.384  0.00  0.00    +0.000 A 
ATOM      4  C   UNL     1      48.522   7.002  12.381  0.00  0.00    +0.000 A 
ATOM      5  C   UNL     1      47.318   6.723  11.738  0.00  0.00    +0.000 A 
ATOM      6  C   UNL     1      46.184   7.443  12.093  0.00  0.00    +0.000 A 
ATOM      7  N   UNL     1      46.205   8.392  13.065  0.00  0.00    +0.000 NA
ATOM      8  C   UNL     1      47.394   8.642  13.672  0.00  0.00    +0.000 A 
BRANCH   6   9
ATOM      9  C   UNL     1      44.868   7.192  11.391  0.00  0.00    +0.000 C 
BRANCH   9  10
ATOM     10  N   UNL     1      44.949   6.123  10.417  0.00  0.00    +0.000 N 
ATOM     11  C   UNL     1      44.261   4.942  10.569  0.00  0.00    +0.000 C 
ATOM     12  O   UNL     1      43.529   4.717  11.529  0.00  0.00    +0.000 OA
ATOM     13  H   UNL     1      45.343   6.361   9.518  0.00  0.00    +0.000 HD
BRANCH  11  14
ATOM     14  C   UNL     1      44.455   3.962   9.415  0.00  0.00    +0.000 C 
ATOM     15  C   UNL     1      44.708   2.536   9.918  0.00  0.00    +0.000 C 
ATOM     16  C   UNL     1      44.938   1.596   8.743  0.00  0.00    +0.000 C 
ATOM     17  O   UNL     1      46.023   2.051   7.936  0.00  0.00    +0.000 OA
ATOM     18  C   UNL     1      45.790   3.345   7.385  0.00  0.00    +0.000 C 
ATOM     19  C   UNL     1      45.606   4.378   8.489  0.00  0.00    +0.000 C 
ENDBRANCH  11  14
ENDBRANCH   9  10
ENDBRANCH   6   9
ENDBRANCH   2   3
BRANCH   2  20
ATOM     20  N   UNL     1      50.258   7.213  14.954  0.00  0.00    +0.000 N 
ATOM     21  C   UNL     1      50.272   7.374  16.317  0.00  0.00    +0.000 C 
ATOM     22  O   UNL     1      49.941   8.424  16.859  0.00  0.00    +0.000 OA
ATOM     23  H   UNL     1      50.704   6.394  14.551  0.00  0.00    +0.000 HD
BRANCH  21  24
ATOM     24  C   UNL     1      50.641   6.192  17.104  0.00  0.00    +0.000 A 
ATOM     25  C   UNL     1      49.689   5.559  17.889  0.00  0.00    +0.000 A 
ATOM     26  S   UNL     1      50.289   4.197  18.723  0.00  0.00    +0.000 S 
ATOM     27  C   UNL     1      51.855   4.440  18.103  0.00  0.00    +0.000 A 
ATOM     28  N   UNL     1      52.884   3.628  18.463  0.00  0.00    +0.000 NA
ATOM     29  C   UNL     1      54.024   3.950  17.948  0.00  0.00    +0.000 A 
ATOM     30  N   UNL     1      54.223   5.002  17.094  0.00  0.00    +0.000 N 
ATOM     31  C   UNL     1      53.204   5.813  16.654  0.00  0.00    +0.000 A 
ATOM     32  O   UNL     1      53.393   6.684  15.807  0.00  0.00    +0.000 OA
ATOM     33  C   UNL     1      51.912   5.520  17.243  0.00  0.00    +0.000 A 
ATOM     34  H   UNL     1      55.139   5.185  16.704  0.00  0.00    +0.000 HD
ENDBRANCH  21  24
ENDBRANCH   2  20
TORSDOF 6
ENDMDL
MODEL 7
REMARK VINA RESULT:    -6.463      5.477      8.017
REMARK INTER + INTRA:          -9.711
REMARK INTER:                  -8.466
REMARK INTRA:                  -1.245
REMARK UNBOUND:                -0.981
REMARK  Name = 
REMARK  7 active torsions:
REMARK  status: ('A' for Active; 'I' for Inactive)
REMARK    1  A    between atoms: C_1  and  C_2
REMARK    2  A    between atoms: C_2  and  N_3
REMARK    3  A    between atoms: C_2  and  C_16
REMARK    4  A    between atoms: C_4  and  C_6
REMARK    5  A    between atoms: C_19  and  C_20
REMARK    6  A    between atoms: C_20  and  N_21
REMARK    7  A    between atoms: C_22  and  C_24
REMARK                            x       y       z     vdW  Elec       q    Type
REMARK                         _______ _______ _______ _____ _____    ______ ____
ROOT
ATOM      1  C   UNL     1      50.922  10.732  11.496  0.00  0.00    +0.000 C 
ATOM      2  C   UNL     1      51.393   9.296  11.737  0.00  0.00    +0.000 C 
ENDROOT
BRANCH   2   3
ATOM      3  C   UNL     1      50.396   8.415  12.462  0.00  0.00    +0.000 A 
ATOM      4  C   UNL     1      49.146   8.164  11.884  0.00  0.00    +0.000 A 
ATOM      5  C   UNL     1      48.205   7.381  12.549  0.00  0.00    +0.000 A 
ATOM      6  C   UNL     1      48.520   6.874  13.805  0.00  0.00    +0.000 A 
ATOM      7  N   UNL     1      49.724   7.094  14.392  0.00  0.00    +0.000 NA
ATOM      8  C   UNL     1      50.619   7.863  13.719  0.00  0.00    +0.000 A 
BRANCH   6   9
ATOM      9  C   UNL     1      47.508   6.051  14.572  0.00  0.00    +0.000 C 
BRANCH   9  10
ATOM     10  N   UNL     1      46.338   5.726  13.783  0.00  0.00    +0.000 N 
ATOM     11  C   UNL     1      46.017   4.430  13.451  0.00  0.00    +0.000 C 
ATOM     12  O   UNL     1      46.690   3.466  13.804  0.00  0.00    +0.000 OA
ATOM     13  H   UNL     1      45.647   6.455  13.679  0.00  0.00    +0.000 HD
BRANCH  11  14
ATOM     14  C   UNL     1      44.726   4.301  12.646  0.00  0.00    +0.000 C 
ATOM     15  C   UNL     1      45.004   4.215  11.140  0.00  0.00    +0.000 C 
ATOM     16  C   UNL     1      43.694   4.130  10.368  0.00  0.00    +0.000 C 
ATOM     17  O   UNL     1      42.857   5.245  10.667  0.00  0.00    +0.000 OA
ATOM     18  C   UNL     1      42.513   5.315  12.049  0.00  0.00    +0.000 C 
ATOM     19  C   UNL     1      43.760   5.464  12.911  0.00  0.00    +0.000 C 
ENDBRANCH  11  14
ENDBRANCH   9  10
ENDBRANCH   6   9
ENDBRANCH   2   3
BRANCH   2  20
ATOM     20  N   UNL     1      51.778   8.665  10.490  0.00  0.00    +0.000 N 
ATOM     21  C   UNL     1      52.894   7.873  10.381  0.00  0.00    +0.000 C 
ATOM     22  O   UNL     1      53.610   7.609  11.342  0.00  0.00    +0.000 OA
ATOM     23  H   UNL     1      51.324   8.995   9.644  0.00  0.00    +0.000 HD
BRANCH  21  24
ATOM     24  C   UNL     1      53.151   7.297   9.057  0.00  0.00    +0.000 A 
ATOM     25  C   UNL     1      53.343   5.930   8.922  0.00  0.00    +0.000 A 
ATOM     26  S   UNL     1      53.615   5.434   7.313  0.00  0.00    +0.000 S 
ATOM     27  C   UNL     1      53.538   7.039   6.749  0.00  0.00    +0.000 A 
ATOM     28  N   UNL     1      53.733   7.329   5.436  0.00  0.00    +0.000 NA
ATOM     29  C   UNL     1      53.684   8.588   5.153  0.00  0.00    +0.000 A 
ATOM     30  N   UNL     1      53.441   9.581   6.065  0.00  0.00    +0.000 N 
ATOM     31  C   UNL     1      53.178   9.332   7.392  0.00  0.00    +0.000 A 
ATOM     32  O   UNL     1      52.861  10.234   8.166  0.00  0.00    +0.000 OA
ATOM     33  C   UNL     1      53.269   7.935   7.766  0.00  0.00    +0.000 A 
ATOM     34  H   UNL     1      53.390  10.548   5.774  0.00  0.00    +0.000 HD
ENDBRANCH  21  24
ENDBRANCH   2  20
TORSDOF 6
ENDMDL
MODEL 8
REMARK VINA RESULT:    -6.427      2.142      2.839
REMARK INTER + INTRA:          -9.663
REMARK INTER:                  -8.627
REMARK INTRA:                  -1.036
REMARK UNBOUND:                -0.981
REMARK  Name = 
REMARK  7 active torsions:
REMARK  status: ('A' for Active; 'I' for Inactive)
REMARK    1  A    between atoms: C_1  and  C_2
REMARK    2  A    between atoms: C_2  and  N_3
REMARK    3  A    between atoms: C_2  and  C_16
REMARK    4  A    between atoms: C_4  and  C_6
REMARK    5  A    between atoms: C_19  and  C_20
REMARK    6  A    between atoms: C_20  and  N_21
REMARK    7  A    between atoms: C_22  and  C_24
REMARK                            x       y       z     vdW  Elec       q    Type
REMARK                         _______ _______ _______ _____ _____    ______ ____
ROOT
ATOM      1  C   UNL     1      51.092   8.476  13.002  0.00  0.00    +0.000 C 
ATOM      2  C   UNL     1      49.937   8.412  14.005  0.00  0.00    +0.000 C 
ENDROOT
BRANCH   2   3
ATOM      3  C   UNL     1      48.585   8.103  13.396  0.00  0.00    +0.000 A 
ATOM      4  C   UNL     1      48.469   7.076  12.452  0.00  0.00    +0.000 A 
ATOM      5  C   UNL     1      47.239   6.798  11.859  0.00  0.00    +0.000 A 
ATOM      6  C   UNL     1      46.137   7.572  12.202  0.00  0.00    +0.000 A 
ATOM      7  N   UNL     1      46.213   8.573  13.117  0.00  0.00    +0.000 NA
ATOM      8  C   UNL     1      47.426   8.820  13.676  0.00  0.00    +0.000 A 
BRANCH   6   9
ATOM      9  C   UNL     1      44.795   7.322  11.551  0.00  0.00    +0.000 C 
BRANCH   9  10
ATOM     10  N   UNL     1      44.839   6.258  10.570  0.00  0.00    +0.000 N 
ATOM     11  C   UNL     1      44.198   5.056  10.764  0.00  0.00    +0.000 C 
ATOM     12  O   UNL     1      43.542   4.808  11.771  0.00  0.00    +0.000 OA
ATOM     13  H   UNL     1      45.163   6.509   9.646  0.00  0.00    +0.000 HD
BRANCH  11  14
ATOM     14  C   UNL     1      44.340   4.085   9.595  0.00  0.00    +0.000 C 
ATOM     15  C   UNL     1      44.571   2.648  10.077  0.00  0.00    +0.000 C 
ATOM     16  C   UNL     1      44.749   1.716   8.886  0.00  0.00    +0.000 C 
ATOM     17  O   UNL     1      45.825   2.154   8.057  0.00  0.00    +0.000 OA
ATOM     18  C   UNL     1      45.610   3.459   7.526  0.00  0.00    +0.000 C 
ATOM     19  C   UNL     1      45.478   4.484   8.646  0.00  0.00    +0.000 C 
ENDBRANCH  11  14
ENDBRANCH   9  10
ENDBRANCH   6   9
ENDBRANCH   2   3
BRANCH   2  20
ATOM     20  N   UNL     1      50.222   7.456  15.057  0.00  0.00    +0.000 N 
ATOM     21  C   UNL     1      50.438   7.837  16.358  0.00  0.00    +0.000 C 
ATOM     22  O   UNL     1      50.357   9.006  16.723  0.00  0.00    +0.000 OA
ATOM     23  H   UNL     1      50.472   6.515  14.772  0.00  0.00    +0.000 HD
BRANCH  21  24
ATOM     24  C   UNL     1      50.708   6.756  17.312  0.00  0.00    +0.000 A 
ATOM     25  C   UNL     1      51.896   6.045  17.233  0.00  0.00    +0.000 A 
ATOM     26  S   UNL     1      52.048   4.836  18.427  0.00  0.00    +0.000 S 
ATOM     27  C   UNL     1      50.506   5.189  19.057  0.00  0.00    +0.000 A 
ATOM     28  N   UNL     1      49.993   4.474  20.093  0.00  0.00    +0.000 NA
ATOM     29  C   UNL     1      48.800   4.824  20.444  0.00  0.00    +0.000 A 
ATOM     30  N   UNL     1      48.082   5.834  19.862  0.00  0.00    +0.000 N 
ATOM     31  C   UNL     1      48.582   6.624  18.852  0.00  0.00    +0.000 A 
ATOM     32  O   UNL     1      47.956   7.590  18.420  0.00  0.00    +0.000 OA
ATOM     33  C   UNL     1      49.901   6.238  18.392  0.00  0.00    +0.000 A 
ATOM     34  H   UNL     1      47.160   6.075  20.202  0.00  0.00    +0.000 HD
ENDBRANCH  21  24
ENDBRANCH   2  20
TORSDOF 6
ENDMDL
MODEL 9
REMARK VINA RESULT:    -6.218      2.959      5.132
REMARK INTER + INTRA:          -9.380
REMARK INTER:                  -8.902
REMARK INTRA:                  -0.478
REMARK UNBOUND:                -0.981
REMARK  Name = 
REMARK  7 active torsions:
REMARK  status: ('A' for Active; 'I' for Inactive)
REMARK    1  A    between atoms: C_1  and  C_2
REMARK    2  A    between atoms: C_2  and  N_3
REMARK    3  A    between atoms: C_2  and  C_16
REMARK    4  A    between atoms: C_4  and  C_6
REMARK    5  A    between atoms: C_19  and  C_20
REMARK    6  A    between atoms: C_20  and  N_21
REMARK    7  A    between atoms: C_22  and  C_24
REMARK                            x       y       z     vdW  Elec       q    Type
REMARK                         _______ _______ _______ _____ _____    ______ ____
ROOT
ATOM      1  C   UNL     1      48.803   6.476  19.709  0.00  0.00    +0.000 C 
ATOM      2  C   UNL     1      48.740   5.250  18.795  0.00  0.00    +0.000 C 
ENDROOT
BRANCH   2   3
ATOM      3  C   UNL     1      48.579   5.565  17.322  0.00  0.00    +0.000 A 
ATOM      4  C   UNL     1      48.900   6.842  16.848  0.00  0.00    +0.000 A 
ATOM      5  C   UNL     1      48.730   7.159  15.502  0.00  0.00    +0.000 A 
ATOM      6  C   UNL     1      48.214   6.195  14.644  0.00  0.00    +0.000 A 
ATOM      7  N   UNL     1      47.897   4.945  15.069  0.00  0.00    +0.000 NA
ATOM      8  C   UNL     1      48.073   4.667  16.387  0.00  0.00    +0.000 A 
BRANCH   6   9
ATOM      9  C   UNL     1      47.982   6.516  13.184  0.00  0.00    +0.000 C 
BRANCH   9  10
ATOM     10  N   UNL     1      46.846   5.808  12.630  0.00  0.00    +0.000 N 
ATOM     11  C   UNL     1      45.798   6.465  12.028  0.00  0.00    +0.000 C 
ATOM     12  O   UNL     1      45.757   7.686  11.911  0.00  0.00    +0.000 OA
ATOM     13  H   UNL     1      46.955   4.813  12.499  0.00  0.00    +0.000 HD
BRANCH  11  14
ATOM     14  C   UNL     1      44.720   5.533  11.479  0.00  0.00    +0.000 C 
ATOM     15  C   UNL     1      44.358   4.433  12.483  0.00  0.00    +0.000 C 
ATOM     16  C   UNL     1      43.312   3.500  11.887  0.00  0.00    +0.000 C 
ATOM     17  O   UNL     1      43.777   2.937  10.660  0.00  0.00    +0.000 OA
ATOM     18  C   UNL     1      44.051   3.928   9.674  0.00  0.00    +0.000 C 
ATOM     19  C   UNL     1      45.137   4.884  10.153  0.00  0.00    +0.000 C 
ENDBRANCH  11  14
ENDBRANCH   9  10
ENDBRANCH   6   9
ENDBRANCH   2   3
BRANCH   2  20
ATOM     20  N   UNL     1      49.904   4.406  18.984  0.00  0.00    +0.000 N 
ATOM     21  C   UNL     1      51.183   4.861  18.780  0.00  0.00    +0.000 C 
ATOM     22  O   UNL     1      51.427   6.024  18.472  0.00  0.00    +0.000 OA
ATOM     23  H   UNL     1      49.744   3.407  19.062  0.00  0.00    +0.000 HD
BRANCH  21  24
ATOM     24  C   UNL     1      52.259   3.893  19.019  0.00  0.00    +0.000 A 
ATOM     25  C   UNL     1      53.273   4.193  19.917  0.00  0.00    +0.000 A 
ATOM     26  S   UNL     1      54.430   2.950  20.079  0.00  0.00    +0.000 S 
ATOM     27  C   UNL     1      53.641   1.990  18.915  0.00  0.00    +0.000 A 
ATOM     28  N   UNL     1      54.146   0.784  18.545  0.00  0.00    +0.000 NA
ATOM     29  C   UNL     1      53.468   0.180  17.626  0.00  0.00    +0.000 A 
ATOM     30  N   UNL     1      52.322   0.669  17.058  0.00  0.00    +0.000 N 
ATOM     31  C   UNL     1      51.740   1.854  17.442  0.00  0.00    +0.000 A 
ATOM     32  O   UNL     1      50.656   2.217  16.989  0.00  0.00    +0.000 OA
ATOM     33  C   UNL     1      52.492   2.591  18.438  0.00  0.00    +0.000 A 
ATOM     34  H   UNL     1      51.823   0.133  16.359  0.00  0.00    +0.000 HD
ENDBRANCH  21  24
ENDBRANCH   2  20
TORSDOF 6
ENDMDL
