MODEL 1
REMARK VINA RESULT:    -7.706      0.000      0.000
REMARK INTER + INTRA:         -10.088
REMARK INTER:                  -9.508
REMARK INTRA:                  -0.581
REMARK UNBOUND:                -0.581
REMARK  Name = 
REMARK  4 active torsions:
REMARK  status: ('A' for Active; 'I' for Inactive)
REMARK    1  A    between atoms: C_5  and  C_6
REMARK    2  A    between atoms: C_6  and  C_7
REMARK    3  A    between atoms: C_7  and  C_8
REMARK    4  A    between atoms: C_12  and  N_13
REMARK                            x       y       z     vdW  Elec       q    Type
REMARK                         _______ _______ _______ _____ _____    ______ ____
ROOT
ATOM      1  C   UNL     1      44.355   3.724  10.684  0.00  0.00    +0.000 A 
ATOM      2  C   UNL     1      43.661   3.122  11.725  0.00  0.00    +0.000 A 
ATOM      3  N   UNL     1      43.680   3.552  13.001  0.00  0.00    +0.000 NA
ATOM      4  C   UNL     1      44.454   4.635  13.259  0.00  0.00    +0.000 A 
ATOM      5  C   UNL     1      45.227   5.332  12.326  0.00  0.00    +0.000 A 
ATOM      6  C   UNL     1      45.148   4.836  11.017  0.00  0.00    +0.000 A 
ENDROOT
BRANCH   5   7
ATOM      7  N   UNL     1      46.030   6.398  12.663  0.00  0.00    +0.000 N 
ATOM      8  C   UNL     1      45.524   7.762  12.876  0.00  0.00    +0.000 C 
ATOM      9  C   UNL     1      46.335   8.749  12.024  0.00  0.00    +0.000 C 
ATOM     10  O   UNL     1      47.745   8.642  12.291  0.00  0.00    +0.000 OA
ATOM     11  C   UNL     1      48.208   7.310  12.010  0.00  0.00    +0.000 C 
ATOM     12  C   UNL     1      47.480   6.260  12.869  0.00  0.00    +0.000 C 
ENDBRANCH   5   7
BRANCH   1  13
ATOM     13  C   UNL     1      44.361   3.189   9.271  0.00  0.00    +0.000 C 
BRANCH  13  14
ATOM     14  C   UNL     1      45.284   1.985   9.038  0.00  0.00    +0.000 C 
BRANCH  14  19
ATOM     15  C   UNL     1      46.909   3.363   5.887  0.00  0.00    +0.000 A 
ATOM     16  C   UNL     1      47.823   2.349   5.655  0.00  0.00    +0.000 A 
ATOM     17  N   UNL     1      47.929   1.245   6.425  0.00  0.00    +0.000 NA
ATOM     18  C   UNL     1      47.094   1.161   7.486  0.00  0.00    +0.000 A 
ATOM     19  C   UNL     1      46.150   2.129   7.816  0.00  0.00    +0.000 A 
ATOM     20  C   UNL     1      46.057   3.245   6.982  0.00  0.00    +0.000 A 
ENDBRANCH  14  19
ENDBRANCH  13  14
ENDBRANCH   1  13
TORSDOF 4
ENDMDL
MODEL 2
REMARK VINA RESULT:    -7.690      1.658      2.132
REMARK INTER + INTRA:         -10.070
REMARK INTER:                  -9.481
REMARK INTRA:                  -0.588
REMARK UNBOUND:                -0.581
REMARK  Name = 
REMARK  4 active torsions:
REMARK  status: ('A' for Active; 'I' for Inactive)
REMARK    1  A    between atoms: C_5  and  C_6
REMARK    2  A    between atoms: C_6  and  C_7
REMARK    3  A    between atoms: C_7  and  C_8
REMARK    4  A    between atoms: C_12  and  N_13
REMARK                            x       y       z     vdW  Elec       q    Type
REMARK                         _______ _______ _______ _____ _____    ______ ____
ROOT
ATOM      1  C   UNL     1      44.249   4.408  10.607  0.00  0.00    +0.000 A 
ATOM      2  C   UNL     1      43.118   4.859  11.274  0.00  0.00    +0.000 A 
ATOM      3  N   UNL     1      43.121   5.355  12.526  0.00  0.00    +0.000 NA
ATOM      4  C   UNL     1      44.320   5.384  13.159  0.00  0.00    +0.000 A 
ATOM      5  C   UNL     1      45.537   4.945  12.631  0.00  0.00    +0.000 A 
ATOM      6  C   UNL     1      45.460   4.454  11.320  0.00  0.00    +0.000 A 
ENDROOT
BRANCH   5   7
ATOM      7  N   UNL     1      46.714   4.958  13.345  0.00  0.00    +0.000 N 
ATOM      8  C   UNL     1      47.062   3.953  14.359  0.00  0.00    +0.000 C 
ATOM      9  C   UNL     1      47.468   4.658  15.662  0.00  0.00    +0.000 C 
ATOM     10  O   UNL     1      48.531   5.601  15.442  0.00  0.00    +0.000 OA
ATOM     11  C   UNL     1      48.124   6.601  14.491  0.00  0.00    +0.000 C 
ATOM     12  C   UNL     1      47.753   5.978  13.133  0.00  0.00    +0.000 C 
ENDBRANCH   5   7
BRANCH   1  13
ATOM     13  C   UNL     1      44.211   3.805   9.222  0.00  0.00    +0.000 C 
BRANCH  13  14
ATOM     14  C   UNL     1      44.866   2.422   9.100  0.00  0.00    +0.000 C 
BRANCH  14  19
ATOM     15  C   UNL     1      47.018   3.283   6.084  0.00  0.00    +0.000 A 
ATOM     16  C   UNL     1      47.806   2.145   6.049  0.00  0.00    +0.000 A 
ATOM     17  N   UNL     1      47.669   1.114   6.910  0.00  0.00    +0.000 NA
ATOM     18  C   UNL     1      46.714   1.235   7.859  0.00  0.00    +0.000 A 
ATOM     19  C   UNL     1      45.879   2.341   7.991  0.00  0.00    +0.000 A 
ATOM     20  C   UNL     1      46.037   3.377   7.068  0.00  0.00    +0.000 A 
ENDBRANCH  14  19
ENDBRANCH  13  14
ENDBRANCH   1  13
TORSDOF 4
ENDMDL
MODEL 3
REMARK VINA RESULT:    -7.180      1.304      1.741
REMARK INTER + INTRA:          -9.440
REMARK INTER:                  -8.829
REMARK INTRA:                  -0.610
REMARK UNBOUND:                -0.581
REMARK  Name = 
REMARK  4 active torsions:
REMARK  status: ('A' for Active; 'I' for Inactive)
REMARK    1  A    between atoms: C_5  and  C_6
REMARK    2  A    between atoms: C_6  and  C_7
REMARK    3  A    between atoms: C_7  and  C_8
REMARK    4  A    between atoms: C_12  and  N_13
REMARK                            x       y       z     vdW  Elec       q    Type
REMARK                         _______ _______ _______ _____ _____    ______ ____
ROOT
ATOM      1  C   UNL     1      44.971   4.465  11.401  0.00  0.00    +0.000 A 
ATOM      2  C   UNL     1      45.060   3.534  12.426  0.00  0.00    +0.000 A 
ATOM      3  N   UNL     1      45.795   3.701  13.543  0.00  0.00    +0.000 NA
ATOM      4  C   UNL     1      46.499   4.856  13.633  0.00  0.00    +0.000 A 
ATOM      5  C   UNL     1      46.530   5.874  12.676  0.00  0.00    +0.000 A 
ATOM      6  C   UNL     1      45.732   5.638  11.547  0.00  0.00    +0.000 A 
ENDROOT
BRANCH   5   7
ATOM      7  N   UNL     1      47.304   7.005  12.807  0.00  0.00    +0.000 N 
ATOM      8  C   UNL     1      46.781   8.299  13.269  0.00  0.00    +0.000 C 
ATOM      9  C   UNL     1      47.177   9.398  12.271  0.00  0.00    +0.000 C 
ATOM     10  O   UNL     1      48.599   9.428  12.056  0.00  0.00    +0.000 OA
ATOM     11  C   UNL     1      49.056   8.163  11.546  0.00  0.00    +0.000 C 
ATOM     12  C   UNL     1      48.746   7.011  12.519  0.00  0.00    +0.000 C 
ENDBRANCH   5   7
BRANCH   1  13
ATOM     13  C   UNL     1      44.183   4.230  10.132  0.00  0.00    +0.000 C 
BRANCH  13  14
ATOM     14  C   UNL     1      44.308   2.818   9.545  0.00  0.00    +0.000 C 
BRANCH  14  19
ATOM     15  C   UNL     1      47.046   1.425   7.302  0.00  0.00    +0.000 A 
ATOM     16  C   UNL     1      47.287   2.550   6.532  0.00  0.00    +0.000 A 
ATOM     17  N   UNL     1      46.650   3.728   6.708  0.00  0.00    +0.000 NA
ATOM     18  C   UNL     1      45.717   3.775   7.685  0.00  0.00    +0.000 A 
ATOM     19  C   UNL     1      45.389   2.700   8.505  0.00  0.00    +0.000 A 
ATOM     20  C   UNL     1      46.085   1.506   8.306  0.00  0.00    +0.000 A 
ENDBRANCH  14  19
ENDBRANCH  13  14
ENDBRANCH   1  13
TORSDOF 4
ENDMDL
MODEL 4
REMARK VINA RESULT:    -6.782      1.953      2.694
REMARK INTER + INTRA:          -8.949
REMARK INTER:                  -8.361
REMARK INTRA:                  -0.587
REMARK UNBOUND:                -0.581
REMARK  Name = 
REMARK  4 active torsions:
REMARK  status: ('A' for Active; 'I' for Inactive)
REMARK    1  A    between atoms: C_5  and  C_6
REMARK    2  A    between atoms: C_6  and  C_7
REMARK    3  A    between atoms: C_7  and  C_8
REMARK    4  A    between atoms: C_12  and  N_13
REMARK                            x       y       z     vdW  Elec       q    Type
REMARK                         _______ _______ _______ _____ _____    ______ ____
ROOT
ATOM      1  C   UNL     1      45.642   5.265  11.866  0.00  0.00    +0.000 A 
ATOM      2  C   UNL     1      45.290   4.171  12.644  0.00  0.00    +0.000 A 
ATOM      3  N   UNL     1      45.862   3.863  13.825  0.00  0.00    +0.000 NA
ATOM      4  C   UNL     1      46.858   4.682  14.243  0.00  0.00    +0.000 A 
ATOM      5  C   UNL     1      47.339   5.803  13.561  0.00  0.00    +0.000 A 
ATOM      6  C   UNL     1      46.689   6.071  12.348  0.00  0.00    +0.000 A 
ENDROOT
BRANCH   5   7
ATOM      7  N   UNL     1      48.388   6.568  14.019  0.00  0.00    +0.000 N 
ATOM      8  C   UNL     1      48.744   6.693  15.440  0.00  0.00    +0.000 C 
ATOM      9  C   UNL     1      48.848   8.179  15.815  0.00  0.00    +0.000 C 
ATOM     10  O   UNL     1      49.769   8.876  14.958  0.00  0.00    +0.000 OA
ATOM     11  C   UNL     1      49.348   8.780  13.586  0.00  0.00    +0.000 C 
ATOM     12  C   UNL     1      49.273   7.316  13.113  0.00  0.00    +0.000 C 
ENDBRANCH   5   7
BRANCH   1  13
ATOM     13  C   UNL     1      45.024   5.559  10.518  0.00  0.00    +0.000 C 
BRANCH  13  14
ATOM     14  C   UNL     1      44.260   4.386   9.887  0.00  0.00    +0.000 C 
BRANCH  14  19
ATOM     15  C   UNL     1      46.674   3.273   7.167  0.00  0.00    +0.000 A 
ATOM     16  C   UNL     1      46.715   1.919   7.456  0.00  0.00    +0.000 A 
ATOM     17  N   UNL     1      45.997   1.343   8.443  0.00  0.00    +0.000 NA
ATOM     18  C   UNL     1      45.219   2.161   9.187  0.00  0.00    +0.000 A 
ATOM     19  C   UNL     1      45.117   3.534   8.990  0.00  0.00    +0.000 A 
ATOM     20  C   UNL     1      45.857   4.089   7.944  0.00  0.00    +0.000 A 
ENDBRANCH  14  19
ENDBRANCH  13  14
ENDBRANCH   1  13
TORSDOF 4
ENDMDL
MODEL 5
REMARK VINA RESULT:    -6.591      2.906      3.918
REMARK INTER + INTRA:          -8.713
REMARK INTER:                  -8.160
REMARK INTRA:                  -0.554
REMARK UNBOUND:                -0.581
REMARK  Name = 
REMARK  4 active torsions:
REMARK  status: ('A' for Active; 'I' for Inactive)
REMARK    1  A    between atoms: C_5  and  C_6
REMARK    2  A    between atoms: C_6  and  C_7
REMARK    3  A    between atoms: C_7  and  C_8
REMARK    4  A    between atoms: C_12  and  N_13
REMARK                            x       y       z     vdW  Elec       q    Type
REMARK                         _______ _______ _______ _____ _____    ______ ____
ROOT
ATOM      1  C   UNL     1      45.528   4.532  12.371  0.00  0.00    +0.000 A 
ATOM      2  C   UNL     1      45.724   5.830  11.920  0.00  0.00    +0.000 A 
ATOM      3  N   UNL     1      46.536   6.726  12.514  0.00  0.00    +0.000 NA
ATOM      4  C   UNL     1      47.172   6.310  13.637  0.00  0.00    +0.000 A 
ATOM      5  C   UNL     1      47.058   5.047  14.224  0.00  0.00    +0.000 A 
ATOM      6  C   UNL     1      46.207   4.163  13.545  0.00  0.00    +0.000 A 
ENDROOT
BRANCH   5   7
ATOM      7  N   UNL     1      47.697   4.702  15.393  0.00  0.00    +0.000 N 
ATOM      8  C   UNL     1      47.699   3.340  15.948  0.00  0.00    +0.000 C 
ATOM      9  C   UNL     1      47.254   3.385  17.418  0.00  0.00    +0.000 C 
ATOM     10  O   UNL     1      48.065   4.290  18.187  0.00  0.00    +0.000 OA
ATOM     11  C   UNL     1      47.985   5.620  17.646  0.00  0.00    +0.000 C 
ATOM     12  C   UNL     1      48.470   5.671  16.185  0.00  0.00    +0.000 C 
ENDBRANCH   5   7
BRANCH   1  13
ATOM     13  C   UNL     1      44.569   3.562  11.718  0.00  0.00    +0.000 C 
BRANCH  13  14
ATOM     14  C   UNL     1      44.144   3.934  10.291  0.00  0.00    +0.000 C 
BRANCH  14  19
ATOM     15  C   UNL     1      46.499   3.549   7.329  0.00  0.00    +0.000 A 
ATOM     16  C   UNL     1      46.700   2.180   7.390  0.00  0.00    +0.000 A 
ATOM     17  N   UNL     1      46.107   1.376   8.298  0.00  0.00    +0.000 NA
ATOM     18  C   UNL     1      45.291   1.972   9.197  0.00  0.00    +0.000 A 
ATOM     19  C   UNL     1      45.032   3.338   9.232  0.00  0.00    +0.000 A 
ATOM     20  C   UNL     1      45.647   4.133   8.263  0.00  0.00    +0.000 A 
ENDBRANCH  14  19
ENDBRANCH  13  14
ENDBRANCH   1  13
TORSDOF 4
ENDMDL
MODEL 6
REMARK VINA RESULT:    -6.186      2.587      6.451
REMARK INTER + INTRA:          -8.213
REMARK INTER:                  -7.614
REMARK INTRA:                  -0.599
REMARK UNBOUND:                -0.581
REMARK  Name = 
REMARK  4 active torsions:
REMARK  status: ('A' for Active; 'I' for Inactive)
REMARK    1  A    between atoms: C_5  and  C_6
REMARK    2  A    between atoms: C_6  and  C_7
REMARK    3  A    between atoms: C_7  and  C_8
REMARK    4  A    between atoms: C_12  and  N_13
REMARK                            x       y       z     vdW  Elec       q    Type
REMARK                         _______ _______ _______ _____ _____    ______ ____
ROOT
ATOM      1  C   UNL     1      44.922   5.023  12.255  0.00  0.00    +0.000 A 
ATOM      2  C   UNL     1      43.946   4.315  12.942  0.00  0.00    +0.000 A 
ATOM      3  N   UNL     1      43.330   3.214  12.469  0.00  0.00    +0.000 NA
ATOM      4  C   UNL     1      43.695   2.807  11.228  0.00  0.00    +0.000 A 
ATOM      5  C   UNL     1      44.640   3.427  10.406  0.00  0.00    +0.000 A 
ATOM      6  C   UNL     1      45.249   4.558  10.968  0.00  0.00    +0.000 A 
ENDROOT
BRANCH   5   7
ATOM      7  N   UNL     1      44.932   2.989   9.134  0.00  0.00    +0.000 N 
ATOM      8  C   UNL     1      45.110   1.573   8.782  0.00  0.00    +0.000 C 
ATOM      9  C   UNL     1      46.440   1.393   8.035  0.00  0.00    +0.000 C 
ATOM     10  O   UNL     1      46.520   2.255   6.886  0.00  0.00    +0.000 OA
ATOM     11  C   UNL     1      46.403   3.632   7.284  0.00  0.00    +0.000 C 
ATOM     12  C   UNL     1      45.066   3.909   7.995  0.00  0.00    +0.000 C 
ENDBRANCH   5   7
BRANCH   1  13
ATOM     13  C   UNL     1      45.558   6.287  12.784  0.00  0.00    +0.000 C 
BRANCH  13  14
ATOM     14  C   UNL     1      46.490   7.006  11.798  0.00  0.00    +0.000 C 
BRANCH  14  19
ATOM     15  C   UNL     1      49.413   7.331  14.209  0.00  0.00    +0.000 A 
ATOM     16  C   UNL     1      50.330   7.923  13.358  0.00  0.00    +0.000 A 
ATOM     17  N   UNL     1      50.060   8.248  12.076  0.00  0.00    +0.000 NA
ATOM     18  C   UNL     1      48.821   7.951  11.621  0.00  0.00    +0.000 A 
ATOM     19  C   UNL     1      47.832   7.344  12.388  0.00  0.00    +0.000 A 
ATOM     20  C   UNL     1      48.143   7.043  13.715  0.00  0.00    +0.000 A 
ENDBRANCH  14  19
ENDBRANCH  13  14
ENDBRANCH   1  13
TORSDOF 4
ENDMDL
MODEL 7
REMARK VINA RESULT:    -6.088      1.815      2.842
REMARK INTER + INTRA:          -8.092
REMARK INTER:                  -7.499
REMARK INTRA:                  -0.594
REMARK UNBOUND:                -0.581
REMARK  Name = 
REMARK  4 active torsions:
REMARK  status: ('A' for Active; 'I' for Inactive)
REMARK    1  A    between atoms: C_5  and  C_6
REMARK    2  A    between atoms: C_6  and  C_7
REMARK    3  A    between atoms: C_7  and  C_8
REMARK    4  A    between atoms: C_12  and  N_13
REMARK                            x       y       z     vdW  Elec       q    Type
REMARK                         _______ _______ _______ _____ _____    ______ ____
ROOT
ATOM      1  C   UNL     1      45.172   5.534  11.621  0.00  0.00    +0.000 A 
ATOM      2  C   UNL     1      44.130   6.443  11.499  0.00  0.00    +0.000 A 
ATOM      3  N   UNL     1      44.277   7.781  11.568  0.00  0.00    +0.000 NA
ATOM      4  C   UNL     1      45.534   8.237  11.793  0.00  0.00    +0.000 A 
ATOM      5  C   UNL     1      46.675   7.449  11.961  0.00  0.00    +0.000 A 
ATOM      6  C   UNL     1      46.450   6.068  11.864  0.00  0.00    +0.000 A 
ENDROOT
BRANCH   5   7
ATOM      7  N   UNL     1      47.918   7.975  12.233  0.00  0.00    +0.000 N 
ATOM      8  C   UNL     1      48.177   9.414  12.382  0.00  0.00    +0.000 C 
ATOM      9  C   UNL     1      49.345   9.822  11.471  0.00  0.00    +0.000 C 
ATOM     10  O   UNL     1      50.516   9.027  11.728  0.00  0.00    +0.000 OA
ATOM     11  C   UNL     1      50.233   7.633  11.510  0.00  0.00    +0.000 C 
ATOM     12  C   UNL     1      49.106   7.130  12.430  0.00  0.00    +0.000 C 
ENDBRANCH   5   7
BRANCH   1  13
ATOM     13  C   UNL     1      44.974   4.036  11.595  0.00  0.00    +0.000 C 
BRANCH  13  14
ATOM     14  C   UNL     1      44.226   3.503  10.365  0.00  0.00    +0.000 C 
BRANCH  14  19
ATOM     15  C   UNL     1      46.387   1.714   7.796  0.00  0.00    +0.000 A 
ATOM     16  C   UNL     1      46.709   2.796   6.995  0.00  0.00    +0.000 A 
ATOM     17  N   UNL     1      46.304   4.059   7.244  0.00  0.00    +0.000 NA
ATOM     18  C   UNL     1      45.524   4.244   8.333  0.00  0.00    +0.000 A 
ATOM     19  C   UNL     1      45.131   3.225   9.195  0.00  0.00    +0.000 A 
ATOM     20  C   UNL     1      45.589   1.936   8.916  0.00  0.00    +0.000 A 
ENDBRANCH  14  19
ENDBRANCH  13  14
ENDBRANCH   1  13
TORSDOF 4
ENDMDL
MODEL 8
REMARK VINA RESULT:    -5.880      3.675      7.120
REMARK INTER + INTRA:          -7.836
REMARK INTER:                  -7.237
REMARK INTRA:                  -0.599
REMARK UNBOUND:                -0.581
REMARK  Name = 
REMARK  4 active torsions:
REMARK  status: ('A' for Active; 'I' for Inactive)
REMARK    1  A    between atoms: C_5  and  C_6
REMARK    2  A    between atoms: C_6  and  C_7
REMARK    3  A    between atoms: C_7  and  C_8
REMARK    4  A    between atoms: C_12  and  N_13
REMARK                            x       y       z     vdW  Elec       q    Type
REMARK                         _______ _______ _______ _____ _____    ______ ____
ROOT
ATOM      1  C   UNL     1      47.796   7.027  12.616  0.00  0.00    +0.000 A 
ATOM      2  C   UNL     1      48.436   6.663  13.792  0.00  0.00    +0.000 A 
ATOM      3  N   UNL     1      48.052   5.641  14.582  0.00  0.00    +0.000 NA
ATOM      4  C   UNL     1      46.950   4.957  14.187  0.00  0.00    +0.000 A 
ATOM      5  C   UNL     1      46.187   5.219  13.046  0.00  0.00    +0.000 A 
ATOM      6  C   UNL     1      46.653   6.286  12.265  0.00  0.00    +0.000 A 
ENDROOT
BRANCH   5   7
ATOM      7  N   UNL     1      45.050   4.514  12.725  0.00  0.00    +0.000 N 
ATOM      8  C   UNL     1      45.067   3.161  12.148  0.00  0.00    +0.000 C 
ATOM      9  C   UNL     1      44.196   3.131  10.883  0.00  0.00    +0.000 C 
ATOM     10  O   UNL     1      42.861   3.594  11.150  0.00  0.00    +0.000 OA
ATOM     11  C   UNL     1      42.889   4.941  11.653  0.00  0.00    +0.000 C 
ATOM     12  C   UNL     1      43.699   5.046  12.958  0.00  0.00    +0.000 C 
ENDBRANCH   5   7
BRANCH   1  13
ATOM     13  C   UNL     1      48.214   8.212  11.776  0.00  0.00    +0.000 C 
BRANCH  13  14
ATOM     14  C   UNL     1      48.005   9.581  12.437  0.00  0.00    +0.000 C 
BRANCH  14  19
ATOM     15  C   UNL     1      45.614  11.958  10.676  0.00  0.00    +0.000 A 
ATOM     16  C   UNL     1      44.416  11.435  11.132  0.00  0.00    +0.000 A 
ATOM     17  N   UNL     1      44.330  10.394  11.987  0.00  0.00    +0.000 NA
ATOM     18  C   UNL     1      45.497   9.839  12.389  0.00  0.00    +0.000 A 
ATOM     19  C   UNL     1      46.752  10.277  11.980  0.00  0.00    +0.000 A 
ATOM     20  C   UNL     1      46.799  11.371  11.113  0.00  0.00    +0.000 A 
ENDBRANCH  14  19
ENDBRANCH  13  14
ENDBRANCH   1  13
TORSDOF 4
ENDMDL
MODEL 9
REMARK VINA RESULT:    -5.792      3.590      7.499
REMARK INTER + INTRA:          -7.727
REMARK INTER:                  -7.063
REMARK INTRA:                  -0.665
REMARK UNBOUND:                -0.581
REMARK  Name = 
REMARK  4 active torsions:
REMARK  status: ('A' for Active; 'I' for Inactive)
REMARK    1  A    between atoms: C_5  and  C_6
REMARK    2  A    between atoms: C_6  and  C_7
REMARK    3  A    between atoms: C_7  and  C_8
REMARK    4  A    between atoms: C_12  and  N_13
REMARK                            x       y       z     vdW  Elec       q    Type
REMARK                         _______ _______ _______ _____ _____    ______ ____
ROOT
ATOM      1  C   UNL     1      47.711   7.143  13.866  0.00  0.00    +0.000 A 
ATOM      2  C   UNL     1      47.059   8.350  13.656  0.00  0.00    +0.000 A 
ATOM      3  N   UNL     1      45.940   8.491  12.919  0.00  0.00    +0.000 NA
ATOM      4  C   UNL     1      45.456   7.366  12.339  0.00  0.00    +0.000 A 
ATOM      5  C   UNL     1      46.012   6.088  12.437  0.00  0.00    +0.000 A 
ATOM      6  C   UNL     1      47.166   6.014  13.230  0.00  0.00    +0.000 A 
ENDROOT
BRANCH   5   7
ATOM      7  N   UNL     1      45.496   4.992  11.784  0.00  0.00    +0.000 N 
ATOM      8  C   UNL     1      45.151   4.984  10.355  0.00  0.00    +0.000 C 
ATOM      9  C   UNL     1      43.713   4.474  10.177  0.00  0.00    +0.000 C 
ATOM     10  O   UNL     1      43.530   3.186  10.790  0.00  0.00    +0.000 OA
ATOM     11  C   UNL     1      43.818   3.255  12.197  0.00  0.00    +0.000 C 
ATOM     12  C   UNL     1      45.266   3.706  12.461  0.00  0.00    +0.000 C 
ENDBRANCH   5   7
BRANCH   1  13
ATOM     13  C   UNL     1      48.996   7.019  14.653  0.00  0.00    +0.000 C 
BRANCH  13  14
ATOM     14  C   UNL     1      48.814   6.848  16.167  0.00  0.00    +0.000 C 
BRANCH  14  19
ATOM     15  C   UNL     1      47.937   3.238  16.981  0.00  0.00    +0.000 A 
ATOM     16  C   UNL     1      49.188   2.798  17.382  0.00  0.00    +0.000 A 
ATOM     17  N   UNL     1      50.279   3.590  17.435  0.00  0.00    +0.000 NA
ATOM     18  C   UNL     1      50.116   4.877  17.051  0.00  0.00    +0.000 A 
ATOM     19  C   UNL     1      48.908   5.416  16.619  0.00  0.00    +0.000 A 
ATOM     20  C   UNL     1      47.798   4.570  16.599  0.00  0.00    +0.000 A 
ENDBRANCH  14  19
ENDBRANCH  13  14
ENDBRANCH   1  13
TORSDOF 4
ENDMDL
