MODEL 1
REMARK VINA RESULT:    -7.962      0.000      0.000
REMARK INTER + INTRA:         -11.882
REMARK INTER:                 -10.755
REMARK INTRA:                  -1.126
REMARK UNBOUND:                -1.126
REMARK  Name = 
REMARK  6 active torsions:
REMARK  status: ('A' for Active; 'I' for Inactive)
REMARK    1  A    between atoms: C_2  and  C_4
REMARK    2  A    between atoms: C_8  and  N_9
REMARK    3  A    between atoms: N_9  and  C_10
REMARK    4  A    between atoms: C_10  and  C_11
REMARK    5  A    between atoms: C_11  and  C_12
REMARK    6  A    between atoms: C_16  and  C_17
REMARK                            x       y       z     vdW  Elec       q    Type
REMARK                         _______ _______ _______ _____ _____    ______ ____
ROOT
ATOM      1  C   UNL     1      44.349   7.507  11.171  0.00  0.00    +0.000 C 
ENDROOT
BRANCH   1   2
ATOM      2  N   UNL     1      44.745   7.786  12.547  0.00  0.00    +0.000 N 
ATOM      3  H   UNL     1      44.026   7.692  13.259  0.00  0.00    +0.000 HD
BRANCH   2   8
ATOM      4  C   UNL     1      46.992   5.307  13.811  0.00  0.00    +0.000 A 
ATOM      5  C   UNL     1      48.151   6.000  14.131  0.00  0.00    +0.000 A 
ATOM      6  C   UNL     1      48.176   7.360  13.880  0.00  0.00    +0.000 A 
ATOM      7  C   UNL     1      47.046   7.969  13.343  0.00  0.00    +0.000 A 
ATOM      8  C   UNL     1      45.915   7.210  13.036  0.00  0.00    +0.000 A 
ATOM      9  N   UNL     1      45.877   5.879  13.260  0.00  0.00    +0.000 NA
BRANCH   4  11
ATOM     10  N   UNL     1      46.209   3.087  13.209  0.00  0.00    +0.000 N 
ATOM     11  C   UNL     1      46.949   3.833  14.083  0.00  0.00    +0.000 C 
ATOM     12  O   UNL     1      47.542   3.315  15.024  0.00  0.00    +0.000 OA
ATOM     13  H   UNL     1      46.141   2.089  13.349  0.00  0.00    +0.000 HD
ATOM     14  H   UNL     1      45.733   3.537  12.438  0.00  0.00    +0.000 HD
ENDBRANCH   4  11
ENDBRANCH   2   8
ENDBRANCH   1   2
BRANCH   1  15
ATOM     15  C   UNL     1      43.088   6.635  11.116  0.00  0.00    +0.000 C 
BRANCH  15  16
ATOM     16  C   UNL     1      43.432   5.180  10.927  0.00  0.00    +0.000 A 
ATOM     17  C   UNL     1      42.935   4.206  11.784  0.00  0.00    +0.000 A 
ATOM     18  N   UNL     1      43.192   2.888  11.655  0.00  0.00    +0.000 NA
ATOM     19  C   UNL     1      43.992   2.518  10.624  0.00  0.00    +0.000 A 
ATOM     20  C   UNL     1      44.558   3.390   9.691  0.00  0.00    +0.000 A 
ATOM     21  C   UNL     1      44.243   4.750   9.866  0.00  0.00    +0.000 A 
BRANCH  20  22
ATOM     22  C   UNL     1      45.446   2.921   8.610  0.00  0.00    +0.000 A 
ATOM     23  C   UNL     1      45.929   3.779   7.609  0.00  0.00    +0.000 A 
ATOM     24  C   UNL     1      46.800   3.310   6.625  0.00  0.00    +0.000 A 
ATOM     25  C   UNL     1      47.167   1.978   6.653  0.00  0.00    +0.000 A 
ATOM     26  N   UNL     1      46.723   1.106   7.578  0.00  0.00    +0.000 NA
ATOM     27  C   UNL     1      45.885   1.596   8.526  0.00  0.00    +0.000 A 
ENDBRANCH  20  22
ENDBRANCH  15  16
ENDBRANCH   1  15
TORSDOF 6
ENDMDL
MODEL 2
REMARK VINA RESULT:    -7.527      2.533      6.713
REMARK INTER + INTRA:         -11.294
REMARK INTER:                 -10.376
REMARK INTRA:                  -0.918
REMARK UNBOUND:                -1.126
REMARK  Name = 
REMARK  6 active torsions:
REMARK  status: ('A' for Active; 'I' for Inactive)
REMARK    1  A    between atoms: C_2  and  C_4
REMARK    2  A    between atoms: C_8  and  N_9
REMARK    3  A    between atoms: N_9  and  C_10
REMARK    4  A    between atoms: C_10  and  C_11
REMARK    5  A    between atoms: C_11  and  C_12
REMARK    6  A    between atoms: C_16  and  C_17
REMARK                            x       y       z     vdW  Elec       q    Type
REMARK                         _______ _______ _______ _____ _____    ______ ____
ROOT
ATOM      1  C   UNL     1      44.431   2.794  12.013  0.00  0.00    +0.000 C 
ENDROOT
BRANCH   1   2
ATOM      2  N   UNL     1      43.963   2.473  10.669  0.00  0.00    +0.000 N 
ATOM      3  H   UNL     1      43.000   2.712  10.449  0.00  0.00    +0.000 HD
BRANCH   2   8
ATOM      4  C   UNL     1      46.292   2.179   7.970  0.00  0.00    +0.000 A 
ATOM      5  C   UNL     1      46.459   3.472   7.496  0.00  0.00    +0.000 A 
ATOM      6  C   UNL     1      45.729   4.478   8.102  0.00  0.00    +0.000 A 
ATOM      7  C   UNL     1      44.883   4.157   9.159  0.00  0.00    +0.000 A 
ATOM      8  C   UNL     1      44.756   2.832   9.581  0.00  0.00    +0.000 A 
ATOM      9  N   UNL     1      45.449   1.834   8.992  0.00  0.00    +0.000 NA
BRANCH   4  11
ATOM     10  N   UNL     1      46.706  -0.194   7.650  0.00  0.00    +0.000 N 
ATOM     11  C   UNL     1      47.082   1.079   7.326  0.00  0.00    +0.000 C 
ATOM     12  O   UNL     1      48.007   1.295   6.549  0.00  0.00    +0.000 OA
ATOM     13  H   UNL     1      47.209  -0.973   7.249  0.00  0.00    +0.000 HD
ATOM     14  H   UNL     1      45.937  -0.346   8.290  0.00  0.00    +0.000 HD
ENDBRANCH   4  11
ENDBRANCH   2   8
ENDBRANCH   1   2
BRANCH   1  15
ATOM     15  C   UNL     1      43.751   4.058  12.556  0.00  0.00    +0.000 C 
BRANCH  15  16
ATOM     16  C   UNL     1      44.738   5.187  12.721  0.00  0.00    +0.000 A 
ATOM     17  C   UNL     1      45.945   4.995  13.380  0.00  0.00    +0.000 A 
ATOM     18  N   UNL     1      46.875   5.959  13.542  0.00  0.00    +0.000 NA
ATOM     19  C   UNL     1      46.587   7.180  13.028  0.00  0.00    +0.000 A 
ATOM     20  C   UNL     1      45.414   7.510  12.345  0.00  0.00    +0.000 A 
ATOM     21  C   UNL     1      44.489   6.462  12.193  0.00  0.00    +0.000 A 
BRANCH  20  22
ATOM     22  C   UNL     1      45.151   8.871  11.838  0.00  0.00    +0.000 A 
ATOM     23  C   UNL     1      44.012   9.184  11.080  0.00  0.00    +0.000 A 
ATOM     24  C   UNL     1      43.775  10.491  10.652  0.00  0.00    +0.000 A 
ATOM     25  C   UNL     1      44.696  11.468  10.982  0.00  0.00    +0.000 A 
ATOM     26  N   UNL     1      45.813  11.223  11.693  0.00  0.00    +0.000 NA
ATOM     27  C   UNL     1      46.009   9.944  12.101  0.00  0.00    +0.000 A 
ENDBRANCH  20  22
ENDBRANCH  15  16
ENDBRANCH   1  15
TORSDOF 6
ENDMDL
MODEL 3
REMARK VINA RESULT:    -7.520      2.381      6.249
REMARK INTER + INTRA:         -11.284
REMARK INTER:                 -10.347
REMARK INTRA:                  -0.937
REMARK UNBOUND:                -1.126
REMARK  Name = 
REMARK  6 active torsions:
REMARK  status: ('A' for Active; 'I' for Inactive)
REMARK    1  A    between atoms: C_2  and  C_4
REMARK    2  A    between atoms: C_8  and  N_9
REMARK    3  A    between atoms: N_9  and  C_10
REMARK    4  A    between atoms: C_10  and  C_11
REMARK    5  A    between atoms: C_11  and  C_12
REMARK    6  A    between atoms: C_16  and  C_17
REMARK                            x       y       z     vdW  Elec       q    Type
REMARK                         _______ _______ _______ _____ _____    ______ ____
ROOT
ATOM      1  C   UNL     1      44.376   2.647  11.898  0.00  0.00    +0.000 C 
ENDROOT
BRANCH   1   2
ATOM      2  N   UNL     1      43.878   2.579  10.529  0.00  0.00    +0.000 N 
ATOM      3  H   UNL     1      42.983   3.025  10.344  0.00  0.00    +0.000 HD
BRANCH   2   8
ATOM      4  C   UNL     1      46.325   2.171   7.952  0.00  0.00    +0.000 A 
ATOM      5  C   UNL     1      46.583   3.455   7.494  0.00  0.00    +0.000 A 
ATOM      6  C   UNL     1      45.877   4.496   8.068  0.00  0.00    +0.000 A 
ATOM      7  C   UNL     1      44.962   4.217   9.078  0.00  0.00    +0.000 A 
ATOM      8  C   UNL     1      44.744   2.899   9.485  0.00  0.00    +0.000 A 
ATOM      9  N   UNL     1      45.413   1.868   8.927  0.00  0.00    +0.000 NA
BRANCH   4  11
ATOM     10  N   UNL     1      46.682  -0.220   7.708  0.00  0.00    +0.000 N 
ATOM     11  C   UNL     1      47.088   1.032   7.343  0.00  0.00    +0.000 C 
ATOM     12  O   UNL     1      48.016   1.202   6.559  0.00  0.00    +0.000 OA
ATOM     13  H   UNL     1      47.167  -1.023   7.332  0.00  0.00    +0.000 HD
ATOM     14  H   UNL     1      45.912  -0.334   8.354  0.00  0.00    +0.000 HD
ENDBRANCH   4  11
ENDBRANCH   2   8
ENDBRANCH   1   2
BRANCH   1  15
ATOM     15  C   UNL     1      43.701   3.778  12.686  0.00  0.00    +0.000 C 
BRANCH  15  16
ATOM     16  C   UNL     1      44.285   5.121  12.330  0.00  0.00    +0.000 A 
ATOM     17  C   UNL     1      43.516   6.097  11.709  0.00  0.00    +0.000 A 
ATOM     18  N   UNL     1      43.976   7.324  11.384  0.00  0.00    +0.000 NA
ATOM     19  C   UNL     1      45.271   7.591  11.685  0.00  0.00    +0.000 A 
ATOM     20  C   UNL     1      46.153   6.705  12.307  0.00  0.00    +0.000 A 
ATOM     21  C   UNL     1      45.614   5.448  12.636  0.00  0.00    +0.000 A 
BRANCH  20  22
ATOM     22  C   UNL     1      47.562   7.052  12.578  0.00  0.00    +0.000 A 
ATOM     23  C   UNL     1      48.340   7.792  11.675  0.00  0.00    +0.000 A 
ATOM     24  C   UNL     1      49.657   8.137  11.982  0.00  0.00    +0.000 A 
ATOM     25  C   UNL     1      50.180   7.721  13.192  0.00  0.00    +0.000 A 
ATOM     26  N   UNL     1      49.486   6.996  14.090  0.00  0.00    +0.000 NA
ATOM     27  C   UNL     1      48.206   6.686  13.764  0.00  0.00    +0.000 A 
ENDBRANCH  20  22
ENDBRANCH  15  16
ENDBRANCH   1  15
TORSDOF 6
ENDMDL
MODEL 4
REMARK VINA RESULT:    -7.101      2.873      7.127
REMARK INTER + INTRA:         -10.718
REMARK INTER:                  -9.959
REMARK INTRA:                  -0.759
REMARK UNBOUND:                -1.126
REMARK  Name = 
REMARK  6 active torsions:
REMARK  status: ('A' for Active; 'I' for Inactive)
REMARK    1  A    between atoms: C_2  and  C_4
REMARK    2  A    between atoms: C_8  and  N_9
REMARK    3  A    between atoms: N_9  and  C_10
REMARK    4  A    between atoms: C_10  and  C_11
REMARK    5  A    between atoms: C_11  and  C_12
REMARK    6  A    between atoms: C_16  and  C_17
REMARK                            x       y       z     vdW  Elec       q    Type
REMARK                         _______ _______ _______ _____ _____    ______ ____
ROOT
ATOM      1  C   UNL     1      43.953   5.038  10.335  0.00  0.00    +0.000 C 
ENDROOT
BRANCH   1   2
ATOM      2  N   UNL     1      44.020   4.609   8.942  0.00  0.00    +0.000 N 
ATOM      3  H   UNL     1      44.187   5.332   8.247  0.00  0.00    +0.000 HD
BRANCH   2   8
ATOM      4  C   UNL     1      46.422   2.589   7.227  0.00  0.00    +0.000 A 
ATOM      5  C   UNL     1      46.331   1.338   7.821  0.00  0.00    +0.000 A 
ATOM      6  C   UNL     1      45.435   1.185   8.863  0.00  0.00    +0.000 A 
ATOM      7  C   UNL     1      44.662   2.274   9.255  0.00  0.00    +0.000 A 
ATOM      8  C   UNL     1      44.811   3.508   8.619  0.00  0.00    +0.000 A 
ATOM      9  N   UNL     1      45.690   3.680   7.609  0.00  0.00    +0.000 NA
BRANCH   4  11
ATOM     10  N   UNL     1      48.707   2.611   6.400  0.00  0.00    +0.000 N 
ATOM     11  C   UNL     1      47.385   2.767   6.091  0.00  0.00    +0.000 C 
ATOM     12  O   UNL     1      47.021   3.031   4.949  0.00  0.00    +0.000 OA
ATOM     13  H   UNL     1      49.399   2.727   5.672  0.00  0.00    +0.000 HD
ATOM     14  H   UNL     1      48.982   2.390   7.348  0.00  0.00    +0.000 HD
ENDBRANCH   4  11
ENDBRANCH   2   8
ENDBRANCH   1   2
BRANCH   1  15
ATOM     15  C   UNL     1      45.119   5.969  10.692  0.00  0.00    +0.000 C 
BRANCH  15  16
ATOM     16  C   UNL     1      45.769   5.564  11.991  0.00  0.00    +0.000 A 
ATOM     17  C   UNL     1      45.326   4.456  12.702  0.00  0.00    +0.000 A 
ATOM     18  N   UNL     1      45.878   4.033  13.858  0.00  0.00    +0.000 NA
ATOM     19  C   UNL     1      46.921   4.755  14.337  0.00  0.00    +0.000 A 
ATOM     20  C   UNL     1      47.466   5.887  13.727  0.00  0.00    +0.000 A 
ATOM     21  C   UNL     1      46.860   6.271  12.517  0.00  0.00    +0.000 A 
BRANCH  20  22
ATOM     22  C   UNL     1      48.585   6.644  14.322  0.00  0.00    +0.000 A 
ATOM     23  C   UNL     1      49.472   7.408  13.546  0.00  0.00    +0.000 A 
ATOM     24  C   UNL     1      50.494   8.144  14.147  0.00  0.00    +0.000 A 
ATOM     25  C   UNL     1      50.619   8.093  15.523  0.00  0.00    +0.000 A 
ATOM     26  N   UNL     1      49.808   7.366  16.315  0.00  0.00    +0.000 NA
ATOM     27  C   UNL     1      48.820   6.669  15.700  0.00  0.00    +0.000 A 
ENDBRANCH  20  22
ENDBRANCH  15  16
ENDBRANCH   1  15
TORSDOF 6
ENDMDL
MODEL 5
REMARK VINA RESULT:    -7.019      1.885      2.396
REMARK INTER + INTRA:         -10.607
REMARK INTER:                  -9.939
REMARK INTRA:                  -0.668
REMARK UNBOUND:                -1.126
REMARK  Name = 
REMARK  6 active torsions:
REMARK  status: ('A' for Active; 'I' for Inactive)
REMARK    1  A    between atoms: C_2  and  C_4
REMARK    2  A    between atoms: C_8  and  N_9
REMARK    3  A    between atoms: N_9  and  C_10
REMARK    4  A    between atoms: C_10  and  C_11
REMARK    5  A    between atoms: C_11  and  C_12
REMARK    6  A    between atoms: C_16  and  C_17
REMARK                            x       y       z     vdW  Elec       q    Type
REMARK                         _______ _______ _______ _____ _____    ______ ____
ROOT
ATOM      1  C   UNL     1      46.491   7.543  13.194  0.00  0.00    +0.000 C 
ENDROOT
BRANCH   1   2
ATOM      2  N   UNL     1      47.788   6.894  13.352  0.00  0.00    +0.000 N 
ATOM      3  H   UNL     1      48.590   7.365  12.942  0.00  0.00    +0.000 HD
BRANCH   2   8
ATOM      4  C   UNL     1      48.048   4.744  16.199  0.00  0.00    +0.000 A 
ATOM      5  C   UNL     1      48.730   5.487  17.151  0.00  0.00    +0.000 A 
ATOM      6  C   UNL     1      49.140   6.760  16.799  0.00  0.00    +0.000 A 
ATOM      7  C   UNL     1      48.840   7.240  15.529  0.00  0.00    +0.000 A 
ATOM      8  C   UNL     1      48.157   6.435  14.615  0.00  0.00    +0.000 A 
ATOM      9  N   UNL     1      47.761   5.184  14.935  0.00  0.00    +0.000 NA
BRANCH   4  11
ATOM     10  N   UNL     1      48.275   2.334  15.985  0.00  0.00    +0.000 N 
ATOM     11  C   UNL     1      47.592   3.363  16.568  0.00  0.00    +0.000 C 
ATOM     12  O   UNL     1      46.668   3.158  17.349  0.00  0.00    +0.000 OA
ATOM     13  H   UNL     1      48.004   1.383  16.195  0.00  0.00    +0.000 HD
ATOM     14  H   UNL     1      49.036   2.529  15.347  0.00  0.00    +0.000 HD
ENDBRANCH   4  11
ENDBRANCH   2   8
ENDBRANCH   1   2
BRANCH   1  15
ATOM     15  C   UNL     1      46.139   7.740  11.714  0.00  0.00    +0.000 C 
BRANCH  15  16
ATOM     16  C   UNL     1      45.311   6.596  11.187  0.00  0.00    +0.000 A 
ATOM     17  C   UNL     1      43.984   6.436  11.564  0.00  0.00    +0.000 A 
ATOM     18  N   UNL     1      43.187   5.445  11.113  0.00  0.00    +0.000 NA
ATOM     19  C   UNL     1      43.742   4.561  10.247  0.00  0.00    +0.000 A 
ATOM     20  C   UNL     1      45.059   4.603   9.787  0.00  0.00    +0.000 A 
ATOM     21  C   UNL     1      45.837   5.666  10.278  0.00  0.00    +0.000 A 
BRANCH  20  22
ATOM     22  C   UNL     1      45.607   3.587   8.866  0.00  0.00    +0.000 A 
ATOM     23  C   UNL     1      46.271   3.930   7.678  0.00  0.00    +0.000 A 
ATOM     24  C   UNL     1      46.812   2.944   6.851  0.00  0.00    +0.000 A 
ATOM     25  C   UNL     1      46.668   1.622   7.225  0.00  0.00    +0.000 A 
ATOM     26  N   UNL     1      46.028   1.233   8.345  0.00  0.00    +0.000 NA
ATOM     27  C   UNL     1      45.522   2.217   9.130  0.00  0.00    +0.000 A 
ENDBRANCH  20  22
ENDBRANCH  15  16
ENDBRANCH   1  15
TORSDOF 6
ENDMDL
MODEL 6
REMARK VINA RESULT:    -6.987      2.354      3.302
REMARK INTER + INTRA:         -10.565
REMARK INTER:                  -9.780
REMARK INTRA:                  -0.785
REMARK UNBOUND:                -1.126
REMARK  Name = 
REMARK  6 active torsions:
REMARK  status: ('A' for Active; 'I' for Inactive)
REMARK    1  A    between atoms: C_2  and  C_4
REMARK    2  A    between atoms: C_8  and  N_9
REMARK    3  A    between atoms: N_9  and  C_10
REMARK    4  A    between atoms: C_10  and  C_11
REMARK    5  A    between atoms: C_11  and  C_12
REMARK    6  A    between atoms: C_16  and  C_17
REMARK                            x       y       z     vdW  Elec       q    Type
REMARK                         _______ _______ _______ _____ _____    ______ ____
ROOT
ATOM      1  C   UNL     1      44.769   6.449  12.659  0.00  0.00    +0.000 C 
ENDROOT
BRANCH   1   2
ATOM      2  N   UNL     1      46.177   6.099  12.813  0.00  0.00    +0.000 N 
ATOM      3  H   UNL     1      46.476   5.215  12.410  0.00  0.00    +0.000 HD
BRANCH   2   8
ATOM      4  C   UNL     1      47.663   9.303  12.250  0.00  0.00    +0.000 A 
ATOM      5  C   UNL     1      48.950   9.030  11.809  0.00  0.00    +0.000 A 
ATOM      6  C   UNL     1      49.334   7.704  11.726  0.00  0.00    +0.000 A 
ATOM      7  C   UNL     1      48.419   6.714  12.067  0.00  0.00    +0.000 A 
ATOM      8  C   UNL     1      47.141   7.058  12.512  0.00  0.00    +0.000 A 
ATOM      9  N   UNL     1      46.753   8.347  12.614  0.00  0.00    +0.000 NA
BRANCH   4  11
ATOM     10  N   UNL     1      45.920  10.983  12.050  0.00  0.00    +0.000 N 
ATOM     11  C   UNL     1      47.232  10.737  12.339  0.00  0.00    +0.000 C 
ATOM     12  O   UNL     1      47.999  11.640  12.657  0.00  0.00    +0.000 OA
ATOM     13  H   UNL     1      45.578  11.933  12.088  0.00  0.00    +0.000 HD
ATOM     14  H   UNL     1      45.306  10.221  11.794  0.00  0.00    +0.000 HD
ENDBRANCH   4  11
ENDBRANCH   2   8
ENDBRANCH   1   2
BRANCH   1  15
ATOM     15  C   UNL     1      44.321   6.344  11.195  0.00  0.00    +0.000 C 
BRANCH  15  16
ATOM     16  C   UNL     1      44.313   4.913  10.722  0.00  0.00    +0.000 A 
ATOM     17  C   UNL     1      43.529   3.953  11.350  0.00  0.00    +0.000 A 
ATOM     18  N   UNL     1      43.464   2.663  10.962  0.00  0.00    +0.000 NA
ATOM     19  C   UNL     1      44.225   2.305   9.898  0.00  0.00    +0.000 A 
ATOM     20  C   UNL     1      45.056   3.165   9.177  0.00  0.00    +0.000 A 
ATOM     21  C   UNL     1      45.071   4.501   9.617  0.00  0.00    +0.000 A 
BRANCH  20  22
ATOM     22  C   UNL     1      45.882   2.700   8.045  0.00  0.00    +0.000 A 
ATOM     23  C   UNL     1      46.181   3.521   6.946  0.00  0.00    +0.000 A 
ATOM     24  C   UNL     1      46.999   3.061   5.913  0.00  0.00    +0.000 A 
ATOM     25  C   UNL     1      47.498   1.775   5.992  0.00  0.00    +0.000 A 
ATOM     26  N   UNL     1      47.232   0.938   7.014  0.00  0.00    +0.000 NA
ATOM     27  C   UNL     1      46.441   1.419   8.006  0.00  0.00    +0.000 A 
ENDBRANCH  20  22
ENDBRANCH  15  16
ENDBRANCH   1  15
TORSDOF 6
ENDMDL
MODEL 7
REMARK VINA RESULT:    -6.859      2.578      3.516
REMARK INTER + INTRA:         -10.391
REMARK INTER:                  -9.815
REMARK INTRA:                  -0.576
REMARK UNBOUND:                -1.126
REMARK  Name = 
REMARK  6 active torsions:
REMARK  status: ('A' for Active; 'I' for Inactive)
REMARK    1  A    between atoms: C_2  and  C_4
REMARK    2  A    between atoms: C_8  and  N_9
REMARK    3  A    between atoms: N_9  and  C_10
REMARK    4  A    between atoms: C_10  and  C_11
REMARK    5  A    between atoms: C_11  and  C_12
REMARK    6  A    between atoms: C_16  and  C_17
REMARK                            x       y       z     vdW  Elec       q    Type
REMARK                         _______ _______ _______ _____ _____    ______ ____
ROOT
ATOM      1  C   UNL     1      46.642   4.981  13.778  0.00  0.00    +0.000 C 
ENDROOT
BRANCH   1   2
ATOM      2  N   UNL     1      46.582   3.979  14.837  0.00  0.00    +0.000 N 
ATOM      3  H   UNL     1      46.627   3.005  14.550  0.00  0.00    +0.000 HD
BRANCH   2   8
ATOM      4  C   UNL     1      49.190   5.233  16.938  0.00  0.00    +0.000 A 
ATOM      5  C   UNL     1      49.147   4.441  18.077  0.00  0.00    +0.000 A 
ATOM      6  C   UNL     1      48.175   3.460  18.142  0.00  0.00    +0.000 A 
ATOM      7  C   UNL     1      47.304   3.300  17.069  0.00  0.00    +0.000 A 
ATOM      8  C   UNL     1      47.397   4.139  15.955  0.00  0.00    +0.000 A 
ATOM      9  N   UNL     1      48.331   5.111  15.880  0.00  0.00    +0.000 NA
BRANCH   4  11
ATOM     10  N   UNL     1      49.817   7.577  17.066  0.00  0.00    +0.000 N 
ATOM     11  C   UNL     1      50.244   6.297  16.852  0.00  0.00    +0.000 C 
ATOM     12  O   UNL     1      51.421   6.045  16.612  0.00  0.00    +0.000 OA
ATOM     13  H   UNL     1      50.485   8.333  17.013  0.00  0.00    +0.000 HD
ATOM     14  H   UNL     1      48.843   7.758  17.266  0.00  0.00    +0.000 HD
ENDBRANCH   4  11
ENDBRANCH   2   8
ENDBRANCH   1   2
BRANCH   1  15
ATOM     15  C   UNL     1      45.243   5.331  13.256  0.00  0.00    +0.000 C 
BRANCH  15  16
ATOM     16  C   UNL     1      44.745   4.297  12.278  0.00  0.00    +0.000 A 
ATOM     17  C   UNL     1      43.621   3.529  12.554  0.00  0.00    +0.000 A 
ATOM     18  N   UNL     1      43.116   2.603  11.712  0.00  0.00    +0.000 NA
ATOM     19  C   UNL     1      43.768   2.425  10.537  0.00  0.00    +0.000 A 
ATOM     20  C   UNL     1      44.907   3.126  10.133  0.00  0.00    +0.000 A 
ATOM     21  C   UNL     1      45.378   4.089  11.044  0.00  0.00    +0.000 A 
BRANCH  20  22
ATOM     22  C   UNL     1      45.585   2.859   8.850  0.00  0.00    +0.000 A 
ATOM     23  C   UNL     1      45.868   3.875   7.923  0.00  0.00    +0.000 A 
ATOM     24  C   UNL     1      46.547   3.592   6.738  0.00  0.00    +0.000 A 
ATOM     25  C   UNL     1      46.924   2.286   6.492  0.00  0.00    +0.000 A 
ATOM     26  N   UNL     1      46.666   1.269   7.336  0.00  0.00    +0.000 NA
ATOM     27  C   UNL     1      46.012   1.579   8.483  0.00  0.00    +0.000 A 
ENDBRANCH  20  22
ENDBRANCH  15  16
ENDBRANCH   1  15
TORSDOF 6
ENDMDL
MODEL 8
REMARK VINA RESULT:    -6.833      2.921      7.276
REMARK INTER + INTRA:         -10.356
REMARK INTER:                  -9.768
REMARK INTRA:                  -0.587
REMARK UNBOUND:                -1.126
REMARK  Name = 
REMARK  6 active torsions:
REMARK  status: ('A' for Active; 'I' for Inactive)
REMARK    1  A    between atoms: C_2  and  C_4
REMARK    2  A    between atoms: C_8  and  N_9
REMARK    3  A    between atoms: N_9  and  C_10
REMARK    4  A    between atoms: C_10  and  C_11
REMARK    5  A    between atoms: C_11  and  C_12
REMARK    6  A    between atoms: C_16  and  C_17
REMARK                            x       y       z     vdW  Elec       q    Type
REMARK                         _______ _______ _______ _____ _____    ______ ____
ROOT
ATOM      1  C   UNL     1      44.960   5.650  10.993  0.00  0.00    +0.000 C 
ENDROOT
BRANCH   1   2
ATOM      2  N   UNL     1      44.945   5.407   9.555  0.00  0.00    +0.000 N 
ATOM      3  H   UNL     1      45.391   6.107   8.968  0.00  0.00    +0.000 HD
BRANCH   2   8
ATOM      4  C   UNL     1      46.428   2.903   7.475  0.00  0.00    +0.000 A 
ATOM      5  C   UNL     1      45.998   1.695   8.004  0.00  0.00    +0.000 A 
ATOM      6  C   UNL     1      45.194   1.735   9.129  0.00  0.00    +0.000 A 
ATOM      7  C   UNL     1      44.841   2.970   9.663  0.00  0.00    +0.000 A 
ATOM      8  C   UNL     1      45.317   4.149   9.085  0.00  0.00    +0.000 A 
ATOM      9  N   UNL     1      46.115   4.129   7.997  0.00  0.00    +0.000 NA
BRANCH   4  11
ATOM     10  N   UNL     1      48.572   2.423   6.437  0.00  0.00    +0.000 N 
ATOM     11  C   UNL     1      47.296   2.875   6.252  0.00  0.00    +0.000 C 
ATOM     12  O   UNL     1      46.895   3.227   5.147  0.00  0.00    +0.000 OA
ATOM     13  H   UNL     1      49.201   2.389   5.647  0.00  0.00    +0.000 HD
ATOM     14  H   UNL     1      48.878   2.135   7.358  0.00  0.00    +0.000 HD
ENDBRANCH   4  11
ENDBRANCH   2   8
ENDBRANCH   1   2
BRANCH   1  15
ATOM     15  C   UNL     1      45.445   7.069  11.318  0.00  0.00    +0.000 C 
BRANCH  15  16
ATOM     16  C   UNL     1      46.646   7.045  12.231  0.00  0.00    +0.000 A 
ATOM     17  C   UNL     1      47.746   7.857  11.991  0.00  0.00    +0.000 A 
ATOM     18  N   UNL     1      48.840   7.895  12.781  0.00  0.00    +0.000 NA
ATOM     19  C   UNL     1      48.843   7.075  13.861  0.00  0.00    +0.000 A 
ATOM     20  C   UNL     1      47.806   6.210  14.219  0.00  0.00    +0.000 A 
ATOM     21  C   UNL     1      46.686   6.225  13.368  0.00  0.00    +0.000 A 
BRANCH  20  22
ATOM     22  C   UNL     1      47.889   5.321  15.394  0.00  0.00    +0.000 A 
ATOM     23  C   UNL     1      48.754   5.576  16.470  0.00  0.00    +0.000 A 
ATOM     24  C   UNL     1      48.776   4.736  17.583  0.00  0.00    +0.000 A 
ATOM     25  C   UNL     1      47.935   3.639  17.596  0.00  0.00    +0.000 A 
ATOM     26  N   UNL     1      47.097   3.336  16.587  0.00  0.00    +0.000 NA
ATOM     27  C   UNL     1      47.093   4.178  15.523  0.00  0.00    +0.000 A 
ENDBRANCH  20  22
ENDBRANCH  15  16
ENDBRANCH   1  15
TORSDOF 6
ENDMDL
MODEL 9
REMARK VINA RESULT:    -6.618      2.451      2.964
REMARK INTER + INTRA:         -10.065
REMARK INTER:                  -9.451
REMARK INTRA:                  -0.614
REMARK UNBOUND:                -1.126
REMARK  Name = 
REMARK  6 active torsions:
REMARK  status: ('A' for Active; 'I' for Inactive)
REMARK    1  A    between atoms: C_2  and  C_4
REMARK    2  A    between atoms: C_8  and  N_9
REMARK    3  A    between atoms: N_9  and  C_10
REMARK    4  A    between atoms: C_10  and  C_11
REMARK    5  A    between atoms: C_11  and  C_12
REMARK    6  A    between atoms: C_16  and  C_17
REMARK                            x       y       z     vdW  Elec       q    Type
REMARK                         _______ _______ _______ _____ _____    ______ ____
ROOT
ATOM      1  C   UNL     1      45.898   6.055  13.054  0.00  0.00    +0.000 C 
ENDROOT
BRANCH   1   2
ATOM      2  N   UNL     1      46.504   7.337  13.396  0.00  0.00    +0.000 N 
ATOM      3  H   UNL     1      46.346   7.682  14.339  0.00  0.00    +0.000 HD
BRANCH   2   8
ATOM      4  C   UNL     1      49.997   7.974  13.828  0.00  0.00    +0.000 A 
ATOM      5  C   UNL     1      50.502   8.103  12.542  0.00  0.00    +0.000 A 
ATOM      6  C   UNL     1      49.622   7.941  11.487  0.00  0.00    +0.000 A 
ATOM      7  C   UNL     1      48.284   7.675  11.758  0.00  0.00    +0.000 A 
ATOM      8  C   UNL     1      47.844   7.549  13.078  0.00  0.00    +0.000 A 
ATOM      9  N   UNL     1      48.691   7.689  14.120  0.00  0.00    +0.000 NA
BRANCH   4  11
ATOM     10  N   UNL     1      51.366   7.005  15.587  0.00  0.00    +0.000 N 
ATOM     11  C   UNL     1      50.939   8.153  14.981  0.00  0.00    +0.000 C 
ATOM     12  O   UNL     1      51.315   9.257  15.363  0.00  0.00    +0.000 OA
ATOM     13  H   UNL     1      51.997   7.069  16.374  0.00  0.00    +0.000 HD
ATOM     14  H   UNL     1      51.044   6.107  15.251  0.00  0.00    +0.000 HD
ENDBRANCH   4  11
ENDBRANCH   2   8
ENDBRANCH   1   2
BRANCH   1  15
ATOM     15  C   UNL     1      44.862   6.205  11.932  0.00  0.00    +0.000 C 
BRANCH  15  16
ATOM     16  C   UNL     1      44.581   4.885  11.262  0.00  0.00    +0.000 A 
ATOM     17  C   UNL     1      43.593   4.032  11.738  0.00  0.00    +0.000 A 
ATOM     18  N   UNL     1      43.282   2.849  11.171  0.00  0.00    +0.000 NA
ATOM     19  C   UNL     1      43.997   2.489  10.076  0.00  0.00    +0.000 A 
ATOM     20  C   UNL     1      45.014   3.248   9.493  0.00  0.00    +0.000 A 
ATOM     21  C   UNL     1      45.283   4.479  10.118  0.00  0.00    +0.000 A 
BRANCH  20  22
ATOM     22  C   UNL     1      45.773   2.780   8.316  0.00  0.00    +0.000 A 
ATOM     23  C   UNL     1      46.078   3.622   7.235  0.00  0.00    +0.000 A 
ATOM     24  C   UNL     1      46.833   3.157   6.158  0.00  0.00    +0.000 A 
ATOM     25  C   UNL     1      47.263   1.843   6.175  0.00  0.00    +0.000 A 
ATOM     26  N   UNL     1      46.987   0.986   7.177  0.00  0.00    +0.000 NA
ATOM     27  C   UNL     1      46.259   1.473   8.213  0.00  0.00    +0.000 A 
ENDBRANCH  20  22
ENDBRANCH  15  16
ENDBRANCH   1  15
TORSDOF 6
ENDMDL
