MODEL 1
REMARK VINA RESULT:    -7.980      0.000      0.000
REMARK INTER + INTRA:         -10.451
REMARK INTER:                  -9.846
REMARK INTRA:                  -0.605
REMARK UNBOUND:                -0.605
REMARK  Name = 
REMARK  4 active torsions:
REMARK  status: ('A' for Active; 'I' for Inactive)
REMARK    1  A    between atoms: C_6  and  N_7
REMARK    2  A    between atoms: N_7  and  C_8
REMARK    3  A    between atoms: C_8  and  C_9
REMARK    4  A    between atoms: C_13  and  C_14
REMARK                            x       y       z     vdW  Elec       q    Type
REMARK                         _______ _______ _______ _____ _____    ______ ____
ROOT
ATOM      1  C   UNL     1      44.034   4.700  11.412  0.00  0.00    +0.000 C 
ATOM      2  C   UNL     1      42.880   4.786  12.414  0.00  0.00    +0.000 C 
ATOM      3  C   UNL     1      43.035   5.848  11.381  0.00  0.00    +0.000 C 
ENDROOT
BRANCH   1   4
ATOM      4  C   UNL     1      45.418   5.018  11.963  0.00  0.00    +0.000 A 
ATOM      5  C   UNL     1      46.021   4.255  12.957  0.00  0.00    +0.000 A 
ATOM      6  N   UNL     1      47.146   4.608  13.628  0.00  0.00    +0.000 NA
ATOM      7  C   UNL     1      47.680   5.814  13.308  0.00  0.00    +0.000 A 
ATOM      8  C   UNL     1      47.198   6.666  12.318  0.00  0.00    +0.000 A 
ATOM      9  C   UNL     1      46.087   6.199  11.601  0.00  0.00    +0.000 A 
BRANCH   8  10
ATOM     10  C   UNL     1      47.712   8.032  12.111  0.00  0.00    +0.000 A 
ATOM     11  C   UNL     1      49.036   8.275  11.729  0.00  0.00    +0.000 A 
ATOM     12  C   UNL     1      49.435   9.578  11.459  0.00  0.00    +0.000 A 
ATOM     13  N   UNL     1      48.619  10.646  11.549  0.00  0.00    +0.000 NA
ATOM     14  C   UNL     1      47.347  10.405  11.919  0.00  0.00    +0.000 A 
ATOM     15  C   UNL     1      46.856   9.139  12.207  0.00  0.00    +0.000 A 
ENDBRANCH   8  10
ENDBRANCH   1   4
BRANCH   1  16
ATOM     16  N   UNL     1      43.961   3.520  10.543  0.00  0.00    +0.000 N 
ATOM     17  H   UNL     1      43.575   2.683  10.972  0.00  0.00    +0.000 HD
BRANCH  16  23
ATOM     18 CL   UNL     1      46.825   0.333   7.612  0.00  0.00    +0.000 Cl
ATOM     19  C   UNL     1      46.137   1.857   8.005  0.00  0.00    +0.000 A 
ATOM     20  C   UNL     1      46.419   2.971   7.230  0.00  0.00    +0.000 A 
ATOM     21  N   UNL     1      45.925   4.200   7.486  0.00  0.00    +0.000 NA
ATOM     22  C   UNL     1      45.111   4.296   8.569  0.00  0.00    +0.000 A 
ATOM     23  C   UNL     1      44.740   3.236   9.410  0.00  0.00    +0.000 A 
ATOM     24  C   UNL     1      45.296   1.994   9.114  0.00  0.00    +0.000 A 
ENDBRANCH  16  23
ENDBRANCH   1  16
TORSDOF 4
ENDMDL
MODEL 2
REMARK VINA RESULT:    -7.856      3.039      6.792
REMARK INTER + INTRA:         -10.298
REMARK INTER:                  -9.643
REMARK INTRA:                  -0.656
REMARK UNBOUND:                -0.605
REMARK  Name = 
REMARK  4 active torsions:
REMARK  status: ('A' for Active; 'I' for Inactive)
REMARK    1  A    between atoms: C_6  and  N_7
REMARK    2  A    between atoms: N_7  and  C_8
REMARK    3  A    between atoms: C_8  and  C_9
REMARK    4  A    between atoms: C_13  and  C_14
REMARK                            x       y       z     vdW  Elec       q    Type
REMARK                         _______ _______ _______ _____ _____    ______ ____
ROOT
ATOM      1  C   UNL     1      45.408   5.956  11.995  0.00  0.00    +0.000 C 
ATOM      2  C   UNL     1      45.055   7.358  11.492  0.00  0.00    +0.000 C 
ATOM      3  C   UNL     1      44.429   6.849  12.745  0.00  0.00    +0.000 C 
ENDROOT
BRANCH   1   4
ATOM      4  C   UNL     1      44.806   4.797  11.209  0.00  0.00    +0.000 A 
ATOM      5  C   UNL     1      43.829   3.962  11.739  0.00  0.00    +0.000 A 
ATOM      6  N   UNL     1      43.413   2.801  11.173  0.00  0.00    +0.000 NA
ATOM      7  C   UNL     1      44.039   2.438  10.025  0.00  0.00    +0.000 A 
ATOM      8  C   UNL     1      45.012   3.189   9.371  0.00  0.00    +0.000 A 
ATOM      9  C   UNL     1      45.329   4.421   9.962  0.00  0.00    +0.000 A 
BRANCH   8  10
ATOM     10  C   UNL     1      45.775   2.685   8.215  0.00  0.00    +0.000 A 
ATOM     11  C   UNL     1      46.137   3.515   7.148  0.00  0.00    +0.000 A 
ATOM     12  C   UNL     1      46.936   3.005   6.133  0.00  0.00    +0.000 A 
ATOM     13  N   UNL     1      47.389   1.737   6.102  0.00  0.00    +0.000 NA
ATOM     14  C   UNL     1      47.035   0.943   7.131  0.00  0.00    +0.000 A 
ATOM     15  C   UNL     1      46.244   1.364   8.190  0.00  0.00    +0.000 A 
ENDBRANCH   8  10
ENDBRANCH   1   4
BRANCH   1  16
ATOM     16  N   UNL     1      46.823   5.805  12.349  0.00  0.00    +0.000 N 
ATOM     17  H   UNL     1      47.428   5.469  11.605  0.00  0.00    +0.000 HD
BRANCH  16  23
ATOM     18 CL   UNL     1      47.033   3.393  16.942  0.00  0.00    +0.000 Cl
ATOM     19  C   UNL     1      47.520   4.591  15.811  0.00  0.00    +0.000 A 
ATOM     20  C   UNL     1      48.469   5.539  16.163  0.00  0.00    +0.000 A 
ATOM     21  N   UNL     1      48.889   6.515  15.330  0.00  0.00    +0.000 NA
ATOM     22  C   UNL     1      48.325   6.522  14.095  0.00  0.00    +0.000 A 
ATOM     23  C   UNL     1      47.375   5.603  13.625  0.00  0.00    +0.000 A 
ATOM     24  C   UNL     1      46.960   4.631  14.530  0.00  0.00    +0.000 A 
ENDBRANCH  16  23
ENDBRANCH   1  16
TORSDOF 4
ENDMDL
MODEL 3
REMARK VINA RESULT:    -7.597      3.494      7.107
REMARK INTER + INTRA:          -9.978
REMARK INTER:                  -9.509
REMARK INTRA:                  -0.469
REMARK UNBOUND:                -0.605
REMARK  Name = 
REMARK  4 active torsions:
REMARK  status: ('A' for Active; 'I' for Inactive)
REMARK    1  A    between atoms: C_6  and  N_7
REMARK    2  A    between atoms: N_7  and  C_8
REMARK    3  A    between atoms: C_8  and  C_9
REMARK    4  A    between atoms: C_13  and  C_14
REMARK                            x       y       z     vdW  Elec       q    Type
REMARK                         _______ _______ _______ _____ _____    ______ ____
ROOT
ATOM      1  C   UNL     1      45.341   6.493  11.624  0.00  0.00    +0.000 C 
ATOM      2  C   UNL     1      46.327   6.219  12.762  0.00  0.00    +0.000 C 
ATOM      3  C   UNL     1      46.837   6.718  11.454  0.00  0.00    +0.000 C 
ENDROOT
BRANCH   1   4
ATOM      4  C   UNL     1      44.757   5.262  10.941  0.00  0.00    +0.000 A 
ATOM      5  C   UNL     1      43.736   4.507  11.507  0.00  0.00    +0.000 A 
ATOM      6  N   UNL     1      43.326   3.296  11.052  0.00  0.00    +0.000 NA
ATOM      7  C   UNL     1      44.003   2.797   9.987  0.00  0.00    +0.000 A 
ATOM      8  C   UNL     1      45.025   3.455   9.308  0.00  0.00    +0.000 A 
ATOM      9  C   UNL     1      45.336   4.740   9.774  0.00  0.00    +0.000 A 
BRANCH   8  10
ATOM     10  C   UNL     1      45.836   2.813   8.258  0.00  0.00    +0.000 A 
ATOM     11  C   UNL     1      46.426   3.549   7.224  0.00  0.00    +0.000 A 
ATOM     12  C   UNL     1      47.256   2.901   6.318  0.00  0.00    +0.000 A 
ATOM     13  N   UNL     1      47.532   1.583   6.365  0.00  0.00    +0.000 NA
ATOM     14  C   UNL     1      46.959   0.881   7.361  0.00  0.00    +0.000 A 
ATOM     15  C   UNL     1      46.119   1.441   8.313  0.00  0.00    +0.000 A 
ENDBRANCH   8  10
ENDBRANCH   1   4
BRANCH   1  16
ATOM     16  N   UNL     1      44.378   7.555  11.933  0.00  0.00    +0.000 N 
ATOM     17  H   UNL     1      43.456   7.240  12.223  0.00  0.00    +0.000 HD
BRANCH  16  23
ATOM     18 CL   UNL     1      46.192  12.419  11.843  0.00  0.00    +0.000 Cl
ATOM     19  C   UNL     1      45.096  11.177  11.383  0.00  0.00    +0.000 A 
ATOM     20  C   UNL     1      44.026  11.464  10.550  0.00  0.00    +0.000 A 
ATOM     21  N   UNL     1      43.120  10.543  10.159  0.00  0.00    +0.000 NA
ATOM     22  C   UNL     1      43.315   9.285  10.630  0.00  0.00    +0.000 A 
ATOM     23  C   UNL     1      44.371   8.877  11.459  0.00  0.00    +0.000 A 
ATOM     24  C   UNL     1      45.264   9.871  11.851  0.00  0.00    +0.000 A 
ENDBRANCH  16  23
ENDBRANCH   1  16
TORSDOF 4
ENDMDL
MODEL 4
REMARK VINA RESULT:    -7.551      2.947      6.835
REMARK INTER + INTRA:          -9.921
REMARK INTER:                  -9.575
REMARK INTRA:                  -0.346
REMARK UNBOUND:                -0.605
REMARK  Name = 
REMARK  4 active torsions:
REMARK  status: ('A' for Active; 'I' for Inactive)
REMARK    1  A    between atoms: C_6  and  N_7
REMARK    2  A    between atoms: N_7  and  C_8
REMARK    3  A    between atoms: C_8  and  C_9
REMARK    4  A    between atoms: C_13  and  C_14
REMARK                            x       y       z     vdW  Elec       q    Type
REMARK                         _______ _______ _______ _____ _____    ______ ____
ROOT
ATOM      1  C   UNL     1      45.298   6.217  11.461  0.00  0.00    +0.000 C 
ATOM      2  C   UNL     1      44.375   7.436  11.396  0.00  0.00    +0.000 C 
ATOM      3  C   UNL     1      44.497   6.675  12.671  0.00  0.00    +0.000 C 
ENDROOT
BRANCH   1   4
ATOM      4  C   UNL     1      44.798   4.966  10.749  0.00  0.00    +0.000 A 
ATOM      5  C   UNL     1      43.845   4.120  11.305  0.00  0.00    +0.000 A 
ATOM      6  N   UNL     1      43.520   2.896  10.819  0.00  0.00    +0.000 NA
ATOM      7  C   UNL     1      44.217   2.479   9.732  0.00  0.00    +0.000 A 
ATOM      8  C   UNL     1      45.177   3.231   9.060  0.00  0.00    +0.000 A 
ATOM      9  C   UNL     1      45.398   4.522   9.560  0.00  0.00    +0.000 A 
BRANCH   8  10
ATOM     10  C   UNL     1      46.020   2.682   7.982  0.00  0.00    +0.000 A 
ATOM     11  C   UNL     1      46.474   3.474   6.921  0.00  0.00    +0.000 A 
ATOM     12  C   UNL     1      47.342   2.922   5.987  0.00  0.00    +0.000 A 
ATOM     13  N   UNL     1      47.778   1.649   6.030  0.00  0.00    +0.000 NA
ATOM     14  C   UNL     1      47.335   0.892   7.052  0.00  0.00    +0.000 A 
ATOM     15  C   UNL     1      46.470   1.355   8.033  0.00  0.00    +0.000 A 
ENDBRANCH   8  10
ENDBRANCH   1   4
BRANCH   1  16
ATOM     16  N   UNL     1      46.710   6.545  11.235  0.00  0.00    +0.000 N 
ATOM     17  H   UNL     1      47.121   6.154  10.391  0.00  0.00    +0.000 HD
BRANCH  16  23
ATOM     18 CL   UNL     1      50.861   9.246  12.792  0.00  0.00    +0.000 Cl
ATOM     19  C   UNL     1      49.634   8.060  12.993  0.00  0.00    +0.000 A 
ATOM     20  C   UNL     1      49.600   7.279  14.138  0.00  0.00    +0.000 A 
ATOM     21  N   UNL     1      48.674   6.322  14.357  0.00  0.00    +0.000 NA
ATOM     22  C   UNL     1      47.749   6.158  13.377  0.00  0.00    +0.000 A 
ATOM     23  C   UNL     1      47.675   6.902  12.190  0.00  0.00    +0.000 A 
ATOM     24  C   UNL     1      48.667   7.861  12.003  0.00  0.00    +0.000 A 
ENDBRANCH  16  23
ENDBRANCH   1  16
TORSDOF 4
ENDMDL
MODEL 5
REMARK VINA RESULT:    -6.976      1.681      2.210
REMARK INTER + INTRA:          -9.211
REMARK INTER:                  -9.280
REMARK INTRA:                   0.068
REMARK UNBOUND:                -0.605
REMARK  Name = 
REMARK  4 active torsions:
REMARK  status: ('A' for Active; 'I' for Inactive)
REMARK    1  A    between atoms: C_6  and  N_7
REMARK    2  A    between atoms: N_7  and  C_8
REMARK    3  A    between atoms: C_8  and  C_9
REMARK    4  A    between atoms: C_13  and  C_14
REMARK                            x       y       z     vdW  Elec       q    Type
REMARK                         _______ _______ _______ _____ _____    ______ ____
ROOT
ATOM      1  C   UNL     1      44.282   4.102  11.554  0.00  0.00    +0.000 C 
ATOM      2  C   UNL     1      45.089   3.018  12.273  0.00  0.00    +0.000 C 
ATOM      3  C   UNL     1      43.710   3.336  12.739  0.00  0.00    +0.000 C 
ENDROOT
BRANCH   1   4
ATOM      4  C   UNL     1      44.715   5.539  11.819  0.00  0.00    +0.000 A 
ATOM      5  C   UNL     1      43.944   6.633  11.444  0.00  0.00    +0.000 A 
ATOM      6  N   UNL     1      44.368   7.922  11.462  0.00  0.00    +0.000 NA
ATOM      7  C   UNL     1      45.655   8.122  11.846  0.00  0.00    +0.000 A 
ATOM      8  C   UNL     1      46.528   7.124  12.271  0.00  0.00    +0.000 A 
ATOM      9  C   UNL     1      45.997   5.828  12.315  0.00  0.00    +0.000 A 
BRANCH   8  10
ATOM     10  C   UNL     1      47.960   7.364  12.528  0.00  0.00    +0.000 A 
ATOM     11  C   UNL     1      48.837   7.765  11.514  0.00  0.00    +0.000 A 
ATOM     12  C   UNL     1      50.154   8.066  11.836  0.00  0.00    +0.000 A 
ATOM     13  N   UNL     1      50.656   7.990  13.084  0.00  0.00    +0.000 NA
ATOM     14  C   UNL     1      49.807   7.602  14.055  0.00  0.00    +0.000 A 
ATOM     15  C   UNL     1      48.475   7.283  13.829  0.00  0.00    +0.000 A 
ENDBRANCH   8  10
ENDBRANCH   1   4
BRANCH   1  16
ATOM     16  N   UNL     1      43.998   3.781  10.152  0.00  0.00    +0.000 N 
ATOM     17  H   UNL     1      43.054   3.457   9.958  0.00  0.00    +0.000 HD
BRANCH  16  23
ATOM     18 CL   UNL     1      46.836   0.273   7.584  0.00  0.00    +0.000 Cl
ATOM     19  C   UNL     1      46.316   1.874   7.932  0.00  0.00    +0.000 A 
ATOM     20  C   UNL     1      46.884   2.951   7.270  0.00  0.00    +0.000 A 
ATOM     21  N   UNL     1      46.533   4.234   7.501  0.00  0.00    +0.000 NA
ATOM     22  C   UNL     1      45.568   4.424   8.437  0.00  0.00    +0.000 A 
ATOM     23  C   UNL     1      44.911   3.411   9.151  0.00  0.00    +0.000 A 
ATOM     24  C   UNL     1      45.326   2.107   8.891  0.00  0.00    +0.000 A 
ENDBRANCH  16  23
ENDBRANCH   1  16
TORSDOF 4
ENDMDL
MODEL 6
REMARK VINA RESULT:    -6.614      1.973      3.642
REMARK INTER + INTRA:          -8.766
REMARK INTER:                  -9.041
REMARK INTRA:                   0.276
REMARK UNBOUND:                -0.605
REMARK  Name = 
REMARK  4 active torsions:
REMARK  status: ('A' for Active; 'I' for Inactive)
REMARK    1  A    between atoms: C_6  and  N_7
REMARK    2  A    between atoms: N_7  and  C_8
REMARK    3  A    between atoms: C_8  and  C_9
REMARK    4  A    between atoms: C_13  and  C_14
REMARK                            x       y       z     vdW  Elec       q    Type
REMARK                         _______ _______ _______ _____ _____    ______ ____
ROOT
ATOM      1  C   UNL     1      44.269   4.203  10.914  0.00  0.00    +0.000 C 
ATOM      2  C   UNL     1      44.120   2.814  11.539  0.00  0.00    +0.000 C 
ATOM      3  C   UNL     1      43.043   3.825  11.732  0.00  0.00    +0.000 C 
ENDROOT
BRANCH   1   4
ATOM      4  C   UNL     1      45.275   5.130  11.586  0.00  0.00    +0.000 A 
ATOM      5  C   UNL     1      45.923   6.153  10.902  0.00  0.00    +0.000 A 
ATOM      6  N   UNL     1      46.970   6.866  11.386  0.00  0.00    +0.000 NA
ATOM      7  C   UNL     1      47.419   6.509  12.617  0.00  0.00    +0.000 A 
ATOM      8  C   UNL     1      46.850   5.525  13.422  0.00  0.00    +0.000 A 
ATOM      9  C   UNL     1      45.715   4.891  12.898  0.00  0.00    +0.000 A 
BRANCH   8  10
ATOM     10  C   UNL     1      47.462   5.063  14.681  0.00  0.00    +0.000 A 
ATOM     11  C   UNL     1      48.253   5.903  15.472  0.00  0.00    +0.000 A 
ATOM     12  C   UNL     1      48.724   5.439  16.694  0.00  0.00    +0.000 A 
ATOM     13  N   UNL     1      48.472   4.206  17.174  0.00  0.00    +0.000 NA
ATOM     14  C   UNL     1      47.711   3.402  16.407  0.00  0.00    +0.000 A 
ATOM     15  C   UNL     1      47.194   3.778  15.175  0.00  0.00    +0.000 A 
ENDBRANCH   8  10
ENDBRANCH   1   4
BRANCH   1  16
ATOM     16  N   UNL     1      44.322   4.178   9.448  0.00  0.00    +0.000 N 
ATOM     17  H   UNL     1      43.442   4.362   8.974  0.00  0.00    +0.000 HD
BRANCH  16  23
ATOM     18 CL   UNL     1      46.717  -0.119   7.791  0.00  0.00    +0.000 Cl
ATOM     19  C   UNL     1      46.460   1.579   7.832  0.00  0.00    +0.000 A 
ATOM     20  C   UNL     1      47.270   2.426   7.090  0.00  0.00    +0.000 A 
ATOM     21  N   UNL     1      47.133   3.768   7.084  0.00  0.00    +0.000 NA
ATOM     22  C   UNL     1      46.134   4.265   7.858  0.00  0.00    +0.000 A 
ATOM     23  C   UNL     1      45.244   3.504   8.631  0.00  0.00    +0.000 A 
ATOM     24  C   UNL     1      45.443   2.126   8.619  0.00  0.00    +0.000 A 
ENDBRANCH  16  23
ENDBRANCH   1  16
TORSDOF 4
ENDMDL
MODEL 7
REMARK VINA RESULT:    -6.419      2.037      2.616
REMARK INTER + INTRA:          -8.525
REMARK INTER:                  -8.804
REMARK INTRA:                   0.280
REMARK UNBOUND:                -0.605
REMARK  Name = 
REMARK  4 active torsions:
REMARK  status: ('A' for Active; 'I' for Inactive)
REMARK    1  A    between atoms: C_6  and  N_7
REMARK    2  A    between atoms: N_7  and  C_8
REMARK    3  A    between atoms: C_8  and  C_9
REMARK    4  A    between atoms: C_13  and  C_14
REMARK                            x       y       z     vdW  Elec       q    Type
REMARK                         _______ _______ _______ _____ _____    ______ ____
ROOT
ATOM      1  C   UNL     1      44.221   4.474  10.899  0.00  0.00    +0.000 C 
ATOM      2  C   UNL     1      44.399   3.121  11.590  0.00  0.00    +0.000 C 
ATOM      3  C   UNL     1      43.143   3.892  11.802  0.00  0.00    +0.000 C 
ENDROOT
BRANCH   1   4
ATOM      4  C   UNL     1      45.038   5.626  11.472  0.00  0.00    +0.000 A 
ATOM      5  C   UNL     1      45.918   5.461  12.536  0.00  0.00    +0.000 A 
ATOM      6  N   UNL     1      46.507   6.476  13.218  0.00  0.00    +0.000 NA
ATOM      7  C   UNL     1      46.166   7.732  12.832  0.00  0.00    +0.000 A 
ATOM      8  C   UNL     1      45.321   8.042  11.769  0.00  0.00    +0.000 A 
ATOM      9  C   UNL     1      44.820   6.948  11.051  0.00  0.00    +0.000 A 
BRANCH   8  10
ATOM     10  C   UNL     1      44.856   9.412  11.485  0.00  0.00    +0.000 A 
ATOM     11  C   UNL     1      43.597   9.665  10.930  0.00  0.00    +0.000 A 
ATOM     12  C   UNL     1      43.177  10.980  10.772  0.00  0.00    +0.000 A 
ATOM     13  N   UNL     1      43.920  12.050  11.118  0.00  0.00    +0.000 NA
ATOM     14  C   UNL     1      45.131  11.798  11.650  0.00  0.00    +0.000 A 
ATOM     15  C   UNL     1      45.634  10.520  11.848  0.00  0.00    +0.000 A 
ENDBRANCH   8  10
ENDBRANCH   1   4
BRANCH   1  16
ATOM     16  N   UNL     1      44.208   4.382   9.435  0.00  0.00    +0.000 N 
ATOM     17  H   UNL     1      43.291   4.433   9.001  0.00  0.00    +0.000 HD
BRANCH  16  23
ATOM     18 CL   UNL     1      46.787   0.266   7.603  0.00  0.00    +0.000 Cl
ATOM     19  C   UNL     1      46.467   1.950   7.726  0.00  0.00    +0.000 A 
ATOM     20  C   UNL     1      47.257   2.862   7.044  0.00  0.00    +0.000 A 
ATOM     21  N   UNL     1      47.071   4.197   7.105  0.00  0.00    +0.000 NA
ATOM     22  C   UNL     1      46.042   4.617   7.885  0.00  0.00    +0.000 A 
ATOM     23  C   UNL     1      45.168   3.785   8.601  0.00  0.00    +0.000 A 
ATOM     24  C   UNL     1      45.417   2.418   8.523  0.00  0.00    +0.000 A 
ENDBRANCH  16  23
ENDBRANCH   1  16
TORSDOF 4
ENDMDL
MODEL 8
REMARK VINA RESULT:    -6.290      3.590      7.250
REMARK INTER + INTRA:          -8.366
REMARK INTER:                  -7.717
REMARK INTRA:                  -0.649
REMARK UNBOUND:                -0.605
REMARK  Name = 
REMARK  4 active torsions:
REMARK  status: ('A' for Active; 'I' for Inactive)
REMARK    1  A    between atoms: C_6  and  N_7
REMARK    2  A    between atoms: N_7  and  C_8
REMARK    3  A    between atoms: C_8  and  C_9
REMARK    4  A    between atoms: C_13  and  C_14
REMARK                            x       y       z     vdW  Elec       q    Type
REMARK                         _______ _______ _______ _____ _____    ______ ____
ROOT
ATOM      1  C   UNL     1      48.043   7.716  14.108  0.00  0.00    +0.000 C 
ATOM      2  C   UNL     1      49.155   8.757  13.960  0.00  0.00    +0.000 C 
ATOM      3  C   UNL     1      48.116   8.938  15.013  0.00  0.00    +0.000 C 
ENDROOT
BRANCH   1   4
ATOM      4  C   UNL     1      46.968   7.735  13.027  0.00  0.00    +0.000 A 
ATOM      5  C   UNL     1      46.136   8.829  12.818  0.00  0.00    +0.000 A 
ATOM      6  N   UNL     1      45.037   8.825  12.024  0.00  0.00    +0.000 NA
ATOM      7  C   UNL     1      44.733   7.643  11.429  0.00  0.00    +0.000 A 
ATOM      8  C   UNL     1      45.490   6.479  11.528  0.00  0.00    +0.000 A 
ATOM      9  C   UNL     1      46.662   6.578  12.291  0.00  0.00    +0.000 A 
BRANCH   8  10
ATOM     10  C   UNL     1      45.041   5.179  10.996  0.00  0.00    +0.000 A 
ATOM     11  C   UNL     1      44.330   4.264  11.780  0.00  0.00    +0.000 A 
ATOM     12  C   UNL     1      43.853   3.098  11.196  0.00  0.00    +0.000 A 
ATOM     13  N   UNL     1      44.039   2.778   9.900  0.00  0.00    +0.000 NA
ATOM     14  C   UNL     1      44.726   3.663   9.153  0.00  0.00    +0.000 A 
ATOM     15  C   UNL     1      45.239   4.854   9.647  0.00  0.00    +0.000 A 
ENDBRANCH   8  10
ENDBRANCH   1   4
BRANCH   1  16
ATOM     16  N   UNL     1      48.537   6.386  14.477  0.00  0.00    +0.000 N 
ATOM     17  H   UNL     1      48.948   5.845  13.721  0.00  0.00    +0.000 HD
BRANCH  16  23
ATOM     18 CL   UNL     1      48.637   4.983  19.475  0.00  0.00    +0.000 Cl
ATOM     19  C   UNL     1      48.142   4.809  17.838  0.00  0.00    +0.000 A 
ATOM     20  C   UNL     1      47.345   3.740  17.460  0.00  0.00    +0.000 A 
ATOM     21  N   UNL     1      46.929   3.534  16.193  0.00  0.00    +0.000 NA
ATOM     22  C   UNL     1      47.338   4.453  15.280  0.00  0.00    +0.000 A 
ATOM     23  C   UNL     1      48.125   5.581  15.553  0.00  0.00    +0.000 A 
ATOM     24  C   UNL     1      48.545   5.734  16.871  0.00  0.00    +0.000 A 
ENDBRANCH  16  23
ENDBRANCH   1  16
TORSDOF 4
ENDMDL
MODEL 9
REMARK VINA RESULT:    -6.170      5.261      8.867
REMARK INTER + INTRA:          -8.217
REMARK INTER:                  -7.780
REMARK INTRA:                  -0.437
REMARK UNBOUND:                -0.605
REMARK  Name = 
REMARK  4 active torsions:
REMARK  status: ('A' for Active; 'I' for Inactive)
REMARK    1  A    between atoms: C_6  and  N_7
REMARK    2  A    between atoms: N_7  and  C_8
REMARK    3  A    between atoms: C_8  and  C_9
REMARK    4  A    between atoms: C_13  and  C_14
REMARK                            x       y       z     vdW  Elec       q    Type
REMARK                         _______ _______ _______ _____ _____    ______ ____
ROOT
ATOM      1  C   UNL     1      47.703   4.354  17.268  0.00  0.00    +0.000 C 
ATOM      2  C   UNL     1      47.551   2.849  17.502  0.00  0.00    +0.000 C 
ATOM      3  C   UNL     1      48.891   3.482  17.652  0.00  0.00    +0.000 C 
ENDROOT
BRANCH   1   4
ATOM      4  C   UNL     1      47.637   4.810  15.815  0.00  0.00    +0.000 A 
ATOM      5  C   UNL     1      48.443   5.826  15.313  0.00  0.00    +0.000 A 
ATOM      6  N   UNL     1      48.283   6.412  14.100  0.00  0.00    +0.000 NA
ATOM      7  C   UNL     1      47.232   5.978  13.359  0.00  0.00    +0.000 A 
ATOM      8  C   UNL     1      46.364   4.953  13.726  0.00  0.00    +0.000 A 
ATOM      9  C   UNL     1      46.641   4.329  14.951  0.00  0.00    +0.000 A 
BRANCH   8  10
ATOM     10  C   UNL     1      45.145   4.620  12.966  0.00  0.00    +0.000 A 
ATOM     11  C   UNL     1      44.037   5.474  12.933  0.00  0.00    +0.000 A 
ATOM     12  C   UNL     1      42.955   5.150  12.124  0.00  0.00    +0.000 A 
ATOM     13  N   UNL     1      42.897   4.043  11.359  0.00  0.00    +0.000 NA
ATOM     14  C   UNL     1      43.966   3.225  11.397  0.00  0.00    +0.000 A 
ATOM     15  C   UNL     1      45.092   3.466  12.171  0.00  0.00    +0.000 A 
ENDBRANCH   8  10
ENDBRANCH   1   4
BRANCH   1  16
ATOM     16  N   UNL     1      46.939   5.170  18.216  0.00  0.00    +0.000 N 
ATOM     17  H   UNL     1      45.947   5.265  18.014  0.00  0.00    +0.000 HD
BRANCH  16  23
ATOM     18 CL   UNL     1      49.575   9.557  19.090  0.00  0.00    +0.000 Cl
ATOM     19  C   UNL     1      48.666   8.185  19.584  0.00  0.00    +0.000 A 
ATOM     20  C   UNL     1      48.434   7.949  20.930  0.00  0.00    +0.000 A 
ATOM     21  N   UNL     1      47.740   6.887  21.390  0.00  0.00    +0.000 NA
ATOM     22  C   UNL     1      47.262   6.038  20.444  0.00  0.00    +0.000 A 
ATOM     23  C   UNL     1      47.417   6.188  19.058  0.00  0.00    +0.000 A 
ATOM     24  C   UNL     1      48.161   7.288  18.638  0.00  0.00    +0.000 A 
ENDBRANCH  16  23
ENDBRANCH   1  16
TORSDOF 4
ENDMDL
