MODEL 1
REMARK VINA RESULT:    -8.022      0.000      0.000
REMARK INTER + INTRA:         -13.128
REMARK INTER:                 -12.008
REMARK INTRA:                  -1.120
REMARK UNBOUND:                -1.120
REMARK  Name = 
REMARK  9 active torsions:
REMARK  status: ('A' for Active; 'I' for Inactive)
REMARK    1  A    between atoms: N_1  and  C_2
REMARK    2  A    between atoms: C_2  and  C_3
REMARK    3  A    between atoms: C_8  and  C_9
REMARK    4  A    between atoms: N_11  and  C_12
REMARK    5  A    between atoms: C_12  and  C_13
REMARK    6  A    between atoms: C_16  and  C_17
REMARK    7  A    between atoms: C_17  and  C_18
REMARK    8  A    between atoms: C_18  and  N_19
REMARK    9  A    between atoms: N_19  and  C_20
REMARK                            x       y       z     vdW  Elec       q    Type
REMARK                         _______ _______ _______ _____ _____    ______ ____
ROOT
ATOM      1  C   UNL     1      49.230   6.466  16.122  0.00  0.00    +0.000 C 
ATOM      2  O   UNL     1      50.397   6.530  15.749  0.00  0.00    +0.000 OA
ATOM      3  N   UNL     1      48.171   6.581  15.256  0.00  0.00    +0.000 N 
ATOM      4  H   UNL     1      47.267   6.251  15.563  0.00  0.00    +0.000 HD
ENDROOT
BRANCH   1  10
ATOM      5  C   UNL     1      47.763   6.939  20.909  0.00  0.00    +0.000 A 
ATOM      6  N   UNL     1      47.357   8.240  20.889  0.00  0.00    +0.000 NA
ATOM      7  C   UNL     1      47.420   8.940  19.736  0.00  0.00    +0.000 A 
ATOM      8  C   UNL     1      47.876   8.441  18.529  0.00  0.00    +0.000 A 
ATOM      9  C   UNL     1      48.296   7.100  18.507  0.00  0.00    +0.000 A 
ATOM     10  C   UNL     1      48.867   6.222  17.516  0.00  0.00    +0.000 A 
ATOM     11  C   UNL     1      49.099   5.015  18.154  0.00  0.00    +0.000 A 
ATOM     12  N   UNL     1      48.717   5.125  19.459  0.00  0.00    +0.000 N 
ATOM     13  C   UNL     1      48.222   6.385  19.705  0.00  0.00    +0.000 A 
ATOM     14  H   UNL     1      48.826   4.414  20.173  0.00  0.00    +0.000 HD
BRANCH   5  15
ATOM     15  C   UNL     1      47.725   6.196  22.222  0.00  0.00    +0.000 C 
BRANCH  15  16
ATOM     16  N   UNL     1      46.995   4.925  22.125  0.00  0.00    +0.000 NA
ATOM     17  H   UNL     1      46.005   5.133  22.004  0.00  0.00    +0.000 HD
ATOM     18  H   UNL     1      47.064   4.465  23.035  0.00  0.00    +0.000 HD
ENDBRANCH  15  16
ENDBRANCH   5  15
ENDBRANCH   1  10
BRANCH   3  19
ATOM     19  C   UNL     1      48.389   6.769  13.842  0.00  0.00    +0.000 C 
BRANCH  19  20
ATOM     20  C   UNL     1      47.232   6.202  13.065  0.00  0.00    +0.000 A 
ATOM     21  C   UNL     1      46.685   6.913  11.992  0.00  0.00    +0.000 A 
ATOM     22  C   UNL     1      45.541   6.446  11.345  0.00  0.00    +0.000 A 
ATOM     23  C   UNL     1      44.925   5.250  11.745  0.00  0.00    +0.000 A 
ATOM     24  C   UNL     1      45.485   4.529  12.806  0.00  0.00    +0.000 A 
ATOM     25  C   UNL     1      46.624   5.004  13.464  0.00  0.00    +0.000 A 
BRANCH  23  26
ATOM     26  C   UNL     1      43.682   4.754  11.033  0.00  0.00    +0.000 C 
BRANCH  26  27
ATOM     27  C   UNL     1      44.045   3.707   9.970  0.00  0.00    +0.000 C 
BRANCH  27  28
ATOM     28  N   UNL     1      44.541   4.289   8.715  0.00  0.00    +0.000 NA
ATOM     29  H   UNL     1      45.231   5.014   8.926  0.00  0.00    +0.000 HD
BRANCH  28  30
ATOM     30  C   UNL     1      45.166   3.264   7.853  0.00  0.00    +0.000 C 
ATOM     31  C   UNL     1      45.604   2.071   8.723  0.00  0.00    +0.000 C 
ATOM     32  C   UNL     1      46.330   1.001   7.906  0.00  0.00    +0.000 C 
ATOM     33  C   UNL     1      47.516   1.584   7.144  0.00  0.00    +0.000 C 
ATOM     34  C   UNL     1      47.079   2.738   6.255  0.00  0.00    +0.000 C 
ATOM     35  C   UNL     1      46.362   3.818   7.056  0.00  0.00    +0.000 C 
ENDBRANCH  28  30
ENDBRANCH  27  28
ENDBRANCH  26  27
ENDBRANCH  23  26
ENDBRANCH  19  20
ENDBRANCH   3  19
TORSDOF 9
ENDMDL
MODEL 2
REMARK VINA RESULT:    -7.924      1.490      2.189
REMARK INTER + INTRA:         -12.981
REMARK INTER:                 -11.877
REMARK INTRA:                  -1.103
REMARK UNBOUND:                -1.120
REMARK  Name = 
REMARK  9 active torsions:
REMARK  status: ('A' for Active; 'I' for Inactive)
REMARK    1  A    between atoms: N_1  and  C_2
REMARK    2  A    between atoms: C_2  and  C_3
REMARK    3  A    between atoms: C_8  and  C_9
REMARK    4  A    between atoms: N_11  and  C_12
REMARK    5  A    between atoms: C_12  and  C_13
REMARK    6  A    between atoms: C_16  and  C_17
REMARK    7  A    between atoms: C_17  and  C_18
REMARK    8  A    between atoms: C_18  and  N_19
REMARK    9  A    between atoms: N_19  and  C_20
REMARK                            x       y       z     vdW  Elec       q    Type
REMARK                         _______ _______ _______ _____ _____    ______ ____
ROOT
ATOM      1  C   UNL     1      48.979   7.337  15.042  0.00  0.00    +0.000 C 
ATOM      2  O   UNL     1      49.935   7.418  14.276  0.00  0.00    +0.000 OA
ATOM      3  N   UNL     1      47.706   7.694  14.674  0.00  0.00    +0.000 N 
ATOM      4  H   UNL     1      46.936   7.353  15.232  0.00  0.00    +0.000 HD
ENDROOT
BRANCH   1  10
ATOM      5  C   UNL     1      48.715   4.537  19.211  0.00  0.00    +0.000 A 
ATOM      6  N   UNL     1      48.152   3.412  18.687  0.00  0.00    +0.000 NA
ATOM      7  C   UNL     1      47.887   3.354  17.364  0.00  0.00    +0.000 A 
ATOM      8  C   UNL     1      48.143   4.367  16.458  0.00  0.00    +0.000 A 
ATOM      9  C   UNL     1      48.731   5.541  16.960  0.00  0.00    +0.000 A 
ATOM     10  C   UNL     1      49.109   6.816  16.401  0.00  0.00    +0.000 A 
ATOM     11  C   UNL     1      49.606   7.569  17.452  0.00  0.00    +0.000 A 
ATOM     12  N   UNL     1      49.533   6.830  18.596  0.00  0.00    +0.000 N 
ATOM     13  C   UNL     1      49.005   5.588  18.328  0.00  0.00    +0.000 A 
ATOM     14  H   UNL     1      49.774   7.150  19.527  0.00  0.00    +0.000 HD
BRANCH   5  15
ATOM     15  C   UNL     1      48.958   4.591  20.699  0.00  0.00    +0.000 C 
BRANCH  15  16
ATOM     16  N   UNL     1      47.707   4.652  21.468  0.00  0.00    +0.000 NA
ATOM     17  H   UNL     1      46.942   4.377  20.855  0.00  0.00    +0.000 HD
ATOM     18  H   UNL     1      47.535   5.634  21.691  0.00  0.00    +0.000 HD
ENDBRANCH  15  16
ENDBRANCH   5  15
ENDBRANCH   1  10
BRANCH   3  19
ATOM     19  C   UNL     1      47.428   8.172  13.341  0.00  0.00    +0.000 C 
BRANCH  19  20
ATOM     20  C   UNL     1      46.445   7.256  12.663  0.00  0.00    +0.000 A 
ATOM     21  C   UNL     1      45.326   7.781  12.009  0.00  0.00    +0.000 A 
ATOM     22  C   UNL     1      44.353   6.932  11.481  0.00  0.00    +0.000 A 
ATOM     23  C   UNL     1      44.484   5.538  11.579  0.00  0.00    +0.000 A 
ATOM     24  C   UNL     1      45.615   5.013  12.216  0.00  0.00    +0.000 A 
ATOM     25  C   UNL     1      46.583   5.865  12.758  0.00  0.00    +0.000 A 
BRANCH  23  26
ATOM     26  C   UNL     1      43.421   4.626  11.000  0.00  0.00    +0.000 C 
BRANCH  26  27
ATOM     27  C   UNL     1      44.038   3.630  10.009  0.00  0.00    +0.000 C 
BRANCH  27  28
ATOM     28  N   UNL     1      44.537   4.256   8.778  0.00  0.00    +0.000 NA
ATOM     29  H   UNL     1      45.213   4.986   9.016  0.00  0.00    +0.000 HD
BRANCH  28  30
ATOM     30  C   UNL     1      45.188   3.268   7.892  0.00  0.00    +0.000 C 
ATOM     31  C   UNL     1      45.624   2.050   8.729  0.00  0.00    +0.000 C 
ATOM     32  C   UNL     1      46.375   1.016   7.889  0.00  0.00    +0.000 C 
ATOM     33  C   UNL     1      47.567   1.636   7.167  0.00  0.00    +0.000 C 
ATOM     34  C   UNL     1      47.132   2.815   6.310  0.00  0.00    +0.000 C 
ATOM     35  C   UNL     1      46.390   3.860   7.135  0.00  0.00    +0.000 C 
ENDBRANCH  28  30
ENDBRANCH  27  28
ENDBRANCH  26  27
ENDBRANCH  23  26
ENDBRANCH  19  20
ENDBRANCH   3  19
TORSDOF 9
ENDMDL
MODEL 3
REMARK VINA RESULT:    -7.458      2.485      3.648
REMARK INTER + INTRA:         -12.284
REMARK INTER:                 -11.258
REMARK INTRA:                  -1.025
REMARK UNBOUND:                -1.120
REMARK  Name = 
REMARK  9 active torsions:
REMARK  status: ('A' for Active; 'I' for Inactive)
REMARK    1  A    between atoms: N_1  and  C_2
REMARK    2  A    between atoms: C_2  and  C_3
REMARK    3  A    between atoms: C_8  and  C_9
REMARK    4  A    between atoms: N_11  and  C_12
REMARK    5  A    between atoms: C_12  and  C_13
REMARK    6  A    between atoms: C_16  and  C_17
REMARK    7  A    between atoms: C_17  and  C_18
REMARK    8  A    between atoms: C_18  and  N_19
REMARK    9  A    between atoms: N_19  and  C_20
REMARK                            x       y       z     vdW  Elec       q    Type
REMARK                         _______ _______ _______ _____ _____    ______ ____
ROOT
ATOM      1  C   UNL     1      49.034   6.302  16.772  0.00  0.00    +0.000 C 
ATOM      2  O   UNL     1      48.317   6.988  17.493  0.00  0.00    +0.000 OA
ATOM      3  N   UNL     1      49.110   6.488  15.414  0.00  0.00    +0.000 N 
ATOM      4  H   UNL     1      49.900   6.096  14.923  0.00  0.00    +0.000 HD
ENDROOT
BRANCH   1  10
ATOM      5  C   UNL     1      52.961   3.407  17.992  0.00  0.00    +0.000 A 
ATOM      6  N   UNL     1      53.971   4.203  17.543  0.00  0.00    +0.000 NA
ATOM      7  C   UNL     1      53.681   5.404  16.998  0.00  0.00    +0.000 A 
ATOM      8  C   UNL     1      52.407   5.920  16.847  0.00  0.00    +0.000 A 
ATOM      9  C   UNL     1      51.338   5.131  17.306  0.00  0.00    +0.000 A 
ATOM     10  C   UNL     1      49.901   5.252  17.303  0.00  0.00    +0.000 A 
ATOM     11  C   UNL     1      49.412   4.092  17.878  0.00  0.00    +0.000 A 
ATOM     12  N   UNL     1      50.462   3.286  18.207  0.00  0.00    +0.000 N 
ATOM     13  C   UNL     1      51.651   3.893  17.872  0.00  0.00    +0.000 A 
ATOM     14  H   UNL     1      50.397   2.351  18.591  0.00  0.00    +0.000 HD
BRANCH   5  15
ATOM     15  C   UNL     1      53.312   2.051  18.554  0.00  0.00    +0.000 C 
BRANCH  15  16
ATOM     16  N   UNL     1      52.358   1.011  18.145  0.00  0.00    +0.000 NA
ATOM     17  H   UNL     1      51.552   1.467  17.721  0.00  0.00    +0.000 HD
ATOM     18  H   UNL     1      52.002   0.574  18.997  0.00  0.00    +0.000 HD
ENDBRANCH  15  16
ENDBRANCH   5  15
ENDBRANCH   1  10
BRANCH   3  19
ATOM     19  C   UNL     1      48.348   7.529  14.767  0.00  0.00    +0.000 C 
BRANCH  19  20
ATOM     20  C   UNL     1      47.504   6.939  13.669  0.00  0.00    +0.000 A 
ATOM     21  C   UNL     1      46.983   7.757  12.662  0.00  0.00    +0.000 A 
ATOM     22  C   UNL     1      46.106   7.235  11.711  0.00  0.00    +0.000 A 
ATOM     23  C   UNL     1      45.743   5.880  11.734  0.00  0.00    +0.000 A 
ATOM     24  C   UNL     1      46.281   5.057  12.730  0.00  0.00    +0.000 A 
ATOM     25  C   UNL     1      47.149   5.584  13.692  0.00  0.00    +0.000 A 
BRANCH  23  26
ATOM     26  C   UNL     1      44.790   5.325  10.693  0.00  0.00    +0.000 C 
BRANCH  26  27
ATOM     27  C   UNL     1      45.559   4.818   9.466  0.00  0.00    +0.000 C 
BRANCH  27  28
ATOM     28  N   UNL     1      44.690   4.387   8.363  0.00  0.00    +0.000 NA
ATOM     29  H   UNL     1      44.551   5.166   7.715  0.00  0.00    +0.000 HD
BRANCH  28  30
ATOM     30  C   UNL     1      45.274   3.246   7.626  0.00  0.00    +0.000 C 
ATOM     31  C   UNL     1      45.699   2.160   8.633  0.00  0.00    +0.000 C 
ATOM     32  C   UNL     1      46.384   0.978   7.945  0.00  0.00    +0.000 C 
ATOM     33  C   UNL     1      47.569   1.429   7.098  0.00  0.00    +0.000 C 
ATOM     34  C   UNL     1      47.144   2.474   6.078  0.00  0.00    +0.000 C 
ATOM     35  C   UNL     1      46.468   3.664   6.748  0.00  0.00    +0.000 C 
ENDBRANCH  28  30
ENDBRANCH  27  28
ENDBRANCH  26  27
ENDBRANCH  23  26
ENDBRANCH  19  20
ENDBRANCH   3  19
TORSDOF 9
ENDMDL
MODEL 4
REMARK VINA RESULT:    -7.096      5.291      9.078
REMARK INTER + INTRA:         -11.741
REMARK INTER:                 -10.757
REMARK INTRA:                  -0.984
REMARK UNBOUND:                -1.120
REMARK  Name = 
REMARK  9 active torsions:
REMARK  status: ('A' for Active; 'I' for Inactive)
REMARK    1  A    between atoms: N_1  and  C_2
REMARK    2  A    between atoms: C_2  and  C_3
REMARK    3  A    between atoms: C_8  and  C_9
REMARK    4  A    between atoms: N_11  and  C_12
REMARK    5  A    between atoms: C_12  and  C_13
REMARK    6  A    between atoms: C_16  and  C_17
REMARK    7  A    between atoms: C_17  and  C_18
REMARK    8  A    between atoms: C_18  and  N_19
REMARK    9  A    between atoms: N_19  and  C_20
REMARK                            x       y       z     vdW  Elec       q    Type
REMARK                         _______ _______ _______ _____ _____    ______ ____
ROOT
ATOM      1  C   UNL     1      45.166  10.972  11.244  0.00  0.00    +0.000 C 
ATOM      2  O   UNL     1      44.332  11.504  11.971  0.00  0.00    +0.000 OA
ATOM      3  N   UNL     1      45.787   9.793  11.573  0.00  0.00    +0.000 N 
ATOM      4  H   UNL     1      46.240   9.272  10.836  0.00  0.00    +0.000 HD
ENDROOT
BRANCH   1  10
ATOM      5  C   UNL     1      45.415  12.157   6.364  0.00  0.00    +0.000 A 
ATOM      6  N   UNL     1      44.261  11.575   5.935  0.00  0.00    +0.000 NA
ATOM      7  C   UNL     1      43.459  10.952   6.824  0.00  0.00    +0.000 A 
ATOM      8  C   UNL     1      43.709  10.847   8.180  0.00  0.00    +0.000 A 
ATOM      9  C   UNL     1      44.887  11.442   8.663  0.00  0.00    +0.000 A 
ATOM     10  C   UNL     1      45.539  11.528   9.946  0.00  0.00    +0.000 A 
ATOM     11  C   UNL     1      46.714  12.231   9.738  0.00  0.00    +0.000 A 
ATOM     12  N   UNL     1      46.807  12.553   8.416  0.00  0.00    +0.000 N 
ATOM     13  C   UNL     1      45.707  12.087   7.734  0.00  0.00    +0.000 A 
ATOM     14  H   UNL     1      47.590  13.018   7.970  0.00  0.00    +0.000 HD
BRANCH   5  15
ATOM     15  C   UNL     1      46.315  12.805   5.340  0.00  0.00    +0.000 C 
BRANCH  15  16
ATOM     16  N   UNL     1      46.524  11.955   4.160  0.00  0.00    +0.000 NA
ATOM     17  H   UNL     1      47.300  12.338   3.623  0.00  0.00    +0.000 HD
ATOM     18  H   UNL     1      45.704  12.062   3.560  0.00  0.00    +0.000 HD
ENDBRANCH  15  16
ENDBRANCH   5  15
ENDBRANCH   1  10
BRANCH   3  19
ATOM     19  C   UNL     1      45.469   9.107  12.802  0.00  0.00    +0.000 C 
BRANCH  19  20
ATOM     20  C   UNL     1      45.320   7.632  12.543  0.00  0.00    +0.000 A 
ATOM     21  C   UNL     1      46.174   6.716  13.164  0.00  0.00    +0.000 A 
ATOM     22  C   UNL     1      46.115   5.361  12.836  0.00  0.00    +0.000 A 
ATOM     23  C   UNL     1      45.190   4.888  11.893  0.00  0.00    +0.000 A 
ATOM     24  C   UNL     1      44.321   5.804  11.287  0.00  0.00    +0.000 A 
ATOM     25  C   UNL     1      44.390   7.164  11.606  0.00  0.00    +0.000 A 
BRANCH  23  26
ATOM     26  C   UNL     1      45.135   3.413  11.548  0.00  0.00    +0.000 C 
BRANCH  26  27
ATOM     27  C   UNL     1      44.197   3.167  10.358  0.00  0.00    +0.000 C 
BRANCH  27  28
ATOM     28  N   UNL     1      44.569   2.001   9.546  0.00  0.00    +0.000 NA
ATOM     29  H   UNL     1      43.793   1.756   8.926  0.00  0.00    +0.000 HD
BRANCH  28  30
ATOM     30  C   UNL     1      45.771   2.270   8.730  0.00  0.00    +0.000 C 
ATOM     31  C   UNL     1      45.446   3.370   7.701  0.00  0.00    +0.000 C 
ATOM     32  C   UNL     1      46.626   3.648   6.768  0.00  0.00    +0.000 C 
ATOM     33  C   UNL     1      47.106   2.377   6.074  0.00  0.00    +0.000 C 
ATOM     34  C   UNL     1      47.463   1.303   7.090  0.00  0.00    +0.000 C 
ATOM     35  C   UNL     1      46.295   1.007   8.022  0.00  0.00    +0.000 C 
ENDBRANCH  28  30
ENDBRANCH  27  28
ENDBRANCH  26  27
ENDBRANCH  23  26
ENDBRANCH  19  20
ENDBRANCH   3  19
TORSDOF 9
ENDMDL
MODEL 5
REMARK VINA RESULT:    -7.093      3.331      8.787
REMARK INTER + INTRA:         -11.736
REMARK INTER:                  -9.563
REMARK INTRA:                  -2.173
REMARK UNBOUND:                -1.120
REMARK  Name = 
REMARK  9 active torsions:
REMARK  status: ('A' for Active; 'I' for Inactive)
REMARK    1  A    between atoms: N_1  and  C_2
REMARK    2  A    between atoms: C_2  and  C_3
REMARK    3  A    between atoms: C_8  and  C_9
REMARK    4  A    between atoms: N_11  and  C_12
REMARK    5  A    between atoms: C_12  and  C_13
REMARK    6  A    between atoms: C_16  and  C_17
REMARK    7  A    between atoms: C_17  and  C_18
REMARK    8  A    between atoms: C_18  and  N_19
REMARK    9  A    between atoms: N_19  and  C_20
REMARK                            x       y       z     vdW  Elec       q    Type
REMARK                         _______ _______ _______ _____ _____    ______ ____
ROOT
ATOM      1  C   UNL     1      46.894   8.364  13.254  0.00  0.00    +0.000 C 
ATOM      2  O   UNL     1      47.203   9.326  12.556  0.00  0.00    +0.000 OA
ATOM      3  N   UNL     1      47.409   8.169  14.511  0.00  0.00    +0.000 N 
ATOM      4  H   UNL     1      46.924   7.536  15.131  0.00  0.00    +0.000 HD
ENDROOT
BRANCH   1  10
ATOM      5  C   UNL     1      44.504   4.086  12.125  0.00  0.00    +0.000 A 
ATOM      6  N   UNL     1      45.389   3.193  12.649  0.00  0.00    +0.000 NA
ATOM      7  C   UNL     1      46.498   3.643  13.274  0.00  0.00    +0.000 A 
ATOM      8  C   UNL     1      46.832   4.975  13.436  0.00  0.00    +0.000 A 
ATOM      9  C   UNL     1      45.940   5.927  12.916  0.00  0.00    +0.000 A 
ATOM     10  C   UNL     1      45.919   7.366  12.821  0.00  0.00    +0.000 A 
ATOM     11  C   UNL     1      44.757   7.694  12.142  0.00  0.00    +0.000 A 
ATOM     12  N   UNL     1      44.098   6.545  11.816  0.00  0.00    +0.000 N 
ATOM     13  C   UNL     1      44.794   5.450  12.275  0.00  0.00    +0.000 A 
ATOM     14  H   UNL     1      43.249   6.482  11.267  0.00  0.00    +0.000 HD
BRANCH   5  15
ATOM     15  C   UNL     1      43.297   3.554  11.391  0.00  0.00    +0.000 C 
BRANCH  15  16
ATOM     16  N   UNL     1      43.031   2.143  11.702  0.00  0.00    +0.000 NA
ATOM     17  H   UNL     1      43.920   1.685  11.896  0.00  0.00    +0.000 HD
ATOM     18  H   UNL     1      42.684   1.704  10.847  0.00  0.00    +0.000 HD
ENDBRANCH  15  16
ENDBRANCH   5  15
ENDBRANCH   1  10
BRANCH   3  19
ATOM     19  C   UNL     1      48.340   9.110  15.083  0.00  0.00    +0.000 C 
BRANCH  19  20
ATOM     20  C   UNL     1      49.367   8.380  15.907  0.00  0.00    +0.000 A 
ATOM     21  C   UNL     1      49.972   7.220  15.415  0.00  0.00    +0.000 A 
ATOM     22  C   UNL     1      50.835   6.477  16.221  0.00  0.00    +0.000 A 
ATOM     23  C   UNL     1      51.126   6.885  17.532  0.00  0.00    +0.000 A 
ATOM     24  C   UNL     1      50.535   8.058  18.017  0.00  0.00    +0.000 A 
ATOM     25  C   UNL     1      49.659   8.795  17.213  0.00  0.00    +0.000 A 
BRANCH  23  26
ATOM     26  C   UNL     1      52.067   6.070  18.397  0.00  0.00    +0.000 C 
BRANCH  26  27
ATOM     27  C   UNL     1      51.619   4.603  18.456  0.00  0.00    +0.000 C 
BRANCH  27  28
ATOM     28  N   UNL     1      50.649   4.326  19.524  0.00  0.00    +0.000 NA
ATOM     29  H   UNL     1      50.561   5.148  20.126  0.00  0.00    +0.000 HD
BRANCH  28  30
ATOM     30  C   UNL     1      49.319   3.987  18.974  0.00  0.00    +0.000 C 
ATOM     31  C   UNL     1      49.498   3.332  17.591  0.00  0.00    +0.000 C 
ATOM     32  C   UNL     1      48.156   3.022  16.926  0.00  0.00    +0.000 C 
ATOM     33  C   UNL     1      47.275   4.264  16.831  0.00  0.00    +0.000 C 
ATOM     34  C   UNL     1      47.067   4.890  18.201  0.00  0.00    +0.000 C 
ATOM     35  C   UNL     1      48.395   5.214  18.874  0.00  0.00    +0.000 C 
ENDBRANCH  28  30
ENDBRANCH  27  28
ENDBRANCH  26  27
ENDBRANCH  23  26
ENDBRANCH  19  20
ENDBRANCH   3  19
TORSDOF 9
ENDMDL
MODEL 6
REMARK VINA RESULT:    -6.888      2.902     10.028
REMARK INTER + INTRA:         -11.430
REMARK INTER:                 -10.122
REMARK INTRA:                  -1.307
REMARK UNBOUND:                -1.120
REMARK  Name = 
REMARK  9 active torsions:
REMARK  status: ('A' for Active; 'I' for Inactive)
REMARK    1  A    between atoms: N_1  and  C_2
REMARK    2  A    between atoms: C_2  and  C_3
REMARK    3  A    between atoms: C_8  and  C_9
REMARK    4  A    between atoms: N_11  and  C_12
REMARK    5  A    between atoms: C_12  and  C_13
REMARK    6  A    between atoms: C_16  and  C_17
REMARK    7  A    between atoms: C_17  and  C_18
REMARK    8  A    between atoms: C_18  and  N_19
REMARK    9  A    between atoms: N_19  and  C_20
REMARK                            x       y       z     vdW  Elec       q    Type
REMARK                         _______ _______ _______ _____ _____    ______ ____
ROOT
ATOM      1  C   UNL     1      44.333   4.792  10.174  0.00  0.00    +0.000 C 
ATOM      2  O   UNL     1      43.144   4.968  10.420  0.00  0.00    +0.000 OA
ATOM      3  N   UNL     1      45.297   5.715  10.497  0.00  0.00    +0.000 N 
ATOM      4  H   UNL     1      46.259   5.408  10.527  0.00  0.00    +0.000 HD
ENDROOT
BRANCH   1  10
ATOM      5  C   UNL     1      46.633   1.441   7.214  0.00  0.00    +0.000 A 
ATOM      6  N   UNL     1      47.392   2.290   6.466  0.00  0.00    +0.000 NA
ATOM      7  C   UNL     1      47.350   3.616   6.715  0.00  0.00    +0.000 A 
ATOM      8  C   UNL     1      46.578   4.215   7.694  0.00  0.00    +0.000 A 
ATOM      9  C   UNL     1      45.787   3.371   8.492  0.00  0.00    +0.000 A 
ATOM     10  C   UNL     1      44.831   3.567   9.554  0.00  0.00    +0.000 A 
ATOM     11  C   UNL     1      44.364   2.308   9.893  0.00  0.00    +0.000 A 
ATOM     12  N   UNL     1      44.968   1.383   9.093  0.00  0.00    +0.000 N 
ATOM     13  C   UNL     1      45.843   2.001   8.228  0.00  0.00    +0.000 A 
ATOM     14  H   UNL     1      44.774   0.389   9.081  0.00  0.00    +0.000 HD
BRANCH   5  15
ATOM     15  C   UNL     1      46.666  -0.031   6.883  0.00  0.00    +0.000 C 
BRANCH  15  16
ATOM     16  N   UNL     1      47.185  -0.843   7.992  0.00  0.00    +0.000 NA
ATOM     17  H   UNL     1      47.698  -0.231   8.623  0.00  0.00    +0.000 HD
ATOM     18  H   UNL     1      47.886  -1.477   7.602  0.00  0.00    +0.000 HD
ENDBRANCH  15  16
ENDBRANCH   5  15
ENDBRANCH   1  10
BRANCH   3  19
ATOM     19  C   UNL     1      44.949   6.946  11.165  0.00  0.00    +0.000 C 
BRANCH  19  20
ATOM     20  C   UNL     1      46.025   7.318  12.149  0.00  0.00    +0.000 A 
ATOM     21  C   UNL     1      45.874   8.438  12.971  0.00  0.00    +0.000 A 
ATOM     22  C   UNL     1      46.918   8.853  13.799  0.00  0.00    +0.000 A 
ATOM     23  C   UNL     1      48.130   8.148  13.837  0.00  0.00    +0.000 A 
ATOM     24  C   UNL     1      48.273   7.014  13.028  0.00  0.00    +0.000 A 
ATOM     25  C   UNL     1      47.232   6.607  12.188  0.00  0.00    +0.000 A 
BRANCH  23  26
ATOM     26  C   UNL     1      49.256   8.608  14.742  0.00  0.00    +0.000 C 
BRANCH  26  27
ATOM     27  C   UNL     1      49.651   7.500  15.727  0.00  0.00    +0.000 C 
BRANCH  27  28
ATOM     28  N   UNL     1      48.530   7.006  16.539  0.00  0.00    +0.000 NA
ATOM     29  H   UNL     1      47.651   7.184  16.049  0.00  0.00    +0.000 HD
BRANCH  28  30
ATOM     30  C   UNL     1      48.650   5.557  16.803  0.00  0.00    +0.000 C 
ATOM     31  C   UNL     1      47.690   4.793  15.871  0.00  0.00    +0.000 C 
ATOM     32  C   UNL     1      47.705   3.288  16.142  0.00  0.00    +0.000 C 
ATOM     33  C   UNL     1      47.405   2.977  17.605  0.00  0.00    +0.000 C 
ATOM     34  C   UNL     1      48.375   3.700  18.526  0.00  0.00    +0.000 C 
ATOM     35  C   UNL     1      48.366   5.204  18.275  0.00  0.00    +0.000 C 
ENDBRANCH  28  30
ENDBRANCH  27  28
ENDBRANCH  26  27
ENDBRANCH  23  26
ENDBRANCH  19  20
ENDBRANCH   3  19
TORSDOF 9
ENDMDL
MODEL 7
REMARK VINA RESULT:    -6.510      4.095      5.575
REMARK INTER + INTRA:         -10.864
REMARK INTER:                  -9.835
REMARK INTRA:                  -1.029
REMARK UNBOUND:                -1.120
REMARK  Name = 
REMARK  9 active torsions:
REMARK  status: ('A' for Active; 'I' for Inactive)
REMARK    1  A    between atoms: N_1  and  C_2
REMARK    2  A    between atoms: C_2  and  C_3
REMARK    3  A    between atoms: C_8  and  C_9
REMARK    4  A    between atoms: N_11  and  C_12
REMARK    5  A    between atoms: C_12  and  C_13
REMARK    6  A    between atoms: C_16  and  C_17
REMARK    7  A    between atoms: C_17  and  C_18
REMARK    8  A    between atoms: C_18  and  N_19
REMARK    9  A    between atoms: N_19  and  C_20
REMARK                            x       y       z     vdW  Elec       q    Type
REMARK                         _______ _______ _______ _____ _____    ______ ____
ROOT
ATOM      1  C   UNL     1      48.315   8.554  13.831  0.00  0.00    +0.000 C 
ATOM      2  O   UNL     1      47.744   8.917  14.855  0.00  0.00    +0.000 OA
ATOM      3  N   UNL     1      47.639   8.264  12.673  0.00  0.00    +0.000 N 
ATOM      4  H   UNL     1      48.163   8.243  11.809  0.00  0.00    +0.000 HD
ENDROOT
BRANCH   1  10
ATOM      5  C   UNL     1      53.114   8.675  12.333  0.00  0.00    +0.000 A 
ATOM      6  N   UNL     1      52.966   9.371  11.171  0.00  0.00    +0.000 NA
ATOM      7  C   UNL     1      51.741   9.807  10.807  0.00  0.00    +0.000 A 
ATOM      8  C   UNL     1      50.580   9.605  11.531  0.00  0.00    +0.000 A 
ATOM      9  C   UNL     1      50.693   8.899  12.740  0.00  0.00    +0.000 A 
ATOM     10  C   UNL     1      49.769   8.438  13.747  0.00  0.00    +0.000 A 
ATOM     11  C   UNL     1      50.525   7.752  14.683  0.00  0.00    +0.000 A 
ATOM     12  N   UNL     1      51.831   7.763  14.289  0.00  0.00    +0.000 N 
ATOM     13  C   UNL     1      51.966   8.456  13.108  0.00  0.00    +0.000 A 
ATOM     14  H   UNL     1      52.596   7.289  14.753  0.00  0.00    +0.000 HD
BRANCH   5  15
ATOM     15  C   UNL     1      54.487   8.160  12.691  0.00  0.00    +0.000 C 
BRANCH  15  16
ATOM     16  N   UNL     1      55.050   8.837  13.867  0.00  0.00    +0.000 NA
ATOM     17  H   UNL     1      55.425   8.128  14.494  0.00  0.00    +0.000 HD
ATOM     18  H   UNL     1      54.271   9.261  14.375  0.00  0.00    +0.000 HD
ENDBRANCH  15  16
ENDBRANCH   5  15
ENDBRANCH   1  10
BRANCH   3  19
ATOM     19  C   UNL     1      46.204   8.392  12.601  0.00  0.00    +0.000 C 
BRANCH  19  20
ATOM     20  C   UNL     1      45.593   7.083  12.179  0.00  0.00    +0.000 A 
ATOM     21  C   UNL     1      44.344   7.057  11.549  0.00  0.00    +0.000 A 
ATOM     22  C   UNL     1      43.723   5.842  11.262  0.00  0.00    +0.000 A 
ATOM     23  C   UNL     1      44.342   4.624  11.583  0.00  0.00    +0.000 A 
ATOM     24  C   UNL     1      45.600   4.651  12.195  0.00  0.00    +0.000 A 
ATOM     25  C   UNL     1      46.217   5.870  12.495  0.00  0.00    +0.000 A 
BRANCH  23  26
ATOM     26  C   UNL     1      43.656   3.310  11.265  0.00  0.00    +0.000 C 
BRANCH  26  27
ATOM     27  C   UNL     1      44.362   2.593  10.106  0.00  0.00    +0.000 C 
BRANCH  27  28
ATOM     28  N   UNL     1      44.311   3.332   8.837  0.00  0.00    +0.000 NA
ATOM     29  H   UNL     1      44.615   4.296   8.992  0.00  0.00    +0.000 HD
BRANCH  28  30
ATOM     30  C   UNL     1      45.179   2.712   7.814  0.00  0.00    +0.000 C 
ATOM     31  C   UNL     1      45.860   1.468   8.416  0.00  0.00    +0.000 C 
ATOM     32  C   UNL     1      46.835   0.817   7.433  0.00  0.00    +0.000 C 
ATOM     33  C   UNL     1      47.871   1.814   6.925  0.00  0.00    +0.000 C 
ATOM     34  C   UNL     1      47.200   3.025   6.296  0.00  0.00    +0.000 C 
ATOM     35  C   UNL     1      46.232   3.692   7.266  0.00  0.00    +0.000 C 
ENDBRANCH  28  30
ENDBRANCH  27  28
ENDBRANCH  26  27
ENDBRANCH  23  26
ENDBRANCH  19  20
ENDBRANCH   3  19
TORSDOF 9
ENDMDL
MODEL 8
REMARK VINA RESULT:    -6.455      3.383      8.667
REMARK INTER + INTRA:         -10.782
REMARK INTER:                  -8.943
REMARK INTRA:                  -1.839
REMARK UNBOUND:                -1.120
REMARK  Name = 
REMARK  9 active torsions:
REMARK  status: ('A' for Active; 'I' for Inactive)
REMARK    1  A    between atoms: N_1  and  C_2
REMARK    2  A    between atoms: C_2  and  C_3
REMARK    3  A    between atoms: C_8  and  C_9
REMARK    4  A    between atoms: N_11  and  C_12
REMARK    5  A    between atoms: C_12  and  C_13
REMARK    6  A    between atoms: C_16  and  C_17
REMARK    7  A    between atoms: C_17  and  C_18
REMARK    8  A    between atoms: C_18  and  N_19
REMARK    9  A    between atoms: N_19  and  C_20
REMARK                            x       y       z     vdW  Elec       q    Type
REMARK                         _______ _______ _______ _____ _____    ______ ____
ROOT
ATOM      1  C   UNL     1      46.578   8.431  12.550  0.00  0.00    +0.000 C 
ATOM      2  O   UNL     1      46.082   9.497  12.904  0.00  0.00    +0.000 OA
ATOM      3  N   UNL     1      47.934   8.245  12.451  0.00  0.00    +0.000 N 
ATOM      4  H   UNL     1      48.284   7.298  12.428  0.00  0.00    +0.000 HD
ENDROOT
BRANCH   1  10
ATOM      5  C   UNL     1      44.769   3.758  12.130  0.00  0.00    +0.000 A 
ATOM      6  N   UNL     1      45.657   3.104  12.931  0.00  0.00    +0.000 NA
ATOM      7  C   UNL     1      46.627   3.802  13.560  0.00  0.00    +0.000 A 
ATOM      8  C   UNL     1      46.810   5.169  13.462  0.00  0.00    +0.000 A 
ATOM      9  C   UNL     1      45.909   5.880  12.651  0.00  0.00    +0.000 A 
ATOM     10  C   UNL     1      45.766   7.256  12.242  0.00  0.00    +0.000 A 
ATOM     11  C   UNL     1      44.679   7.296  11.385  0.00  0.00    +0.000 A 
ATOM     12  N   UNL     1      44.179   6.034  11.249  0.00  0.00    +0.000 N 
ATOM     13  C   UNL     1      44.908   5.148  12.010  0.00  0.00    +0.000 A 
ATOM     14  H   UNL     1      43.420   5.758  10.638  0.00  0.00    +0.000 HD
BRANCH   5  15
ATOM     15  C   UNL     1      43.725   2.945  11.404  0.00  0.00    +0.000 C 
BRANCH  15  16
ATOM     16  N   UNL     1      43.979   2.870   9.959  0.00  0.00    +0.000 NA
ATOM     17  H   UNL     1      44.420   1.974   9.759  0.00  0.00    +0.000 HD
ATOM     18  H   UNL     1      44.687   3.573   9.738  0.00  0.00    +0.000 HD
ENDBRANCH  15  16
ENDBRANCH   5  15
ENDBRANCH   1  10
BRANCH   3  19
ATOM     19  C   UNL     1      48.852   9.308  12.781  0.00  0.00    +0.000 C 
BRANCH  19  20
ATOM     20  C   UNL     1      49.524   9.016  14.096  0.00  0.00    +0.000 A 
ATOM     21  C   UNL     1      50.635   8.168  14.149  0.00  0.00    +0.000 A 
ATOM     22  C   UNL     1      51.187   7.804  15.377  0.00  0.00    +0.000 A 
ATOM     23  C   UNL     1      50.652   8.290  16.580  0.00  0.00    +0.000 A 
ATOM     24  C   UNL     1      49.552   9.155  16.524  0.00  0.00    +0.000 A 
ATOM     25  C   UNL     1      48.991   9.510  15.293  0.00  0.00    +0.000 A 
BRANCH  23  26
ATOM     26  C   UNL     1      51.262   7.887  17.908  0.00  0.00    +0.000 C 
BRANCH  26  27
ATOM     27  C   UNL     1      50.398   6.827  18.605  0.00  0.00    +0.000 C 
BRANCH  27  28
ATOM     28  N   UNL     1      50.780   5.447  18.276  0.00  0.00    +0.000 NA
ATOM     29  H   UNL     1      50.945   4.924  19.139  0.00  0.00    +0.000 HD
BRANCH  28  30
ATOM     30  C   UNL     1      49.726   4.765  17.494  0.00  0.00    +0.000 C 
ATOM     31  C   UNL     1      48.346   5.204  18.018  0.00  0.00    +0.000 C 
ATOM     32  C   UNL     1      47.205   4.478  17.304  0.00  0.00    +0.000 C 
ATOM     33  C   UNL     1      47.362   2.964  17.388  0.00  0.00    +0.000 C 
ATOM     34  C   UNL     1      48.709   2.524  16.836  0.00  0.00    +0.000 C 
ATOM     35  C   UNL     1      49.859   3.232  17.544  0.00  0.00    +0.000 C 
ENDBRANCH  28  30
ENDBRANCH  27  28
ENDBRANCH  26  27
ENDBRANCH  23  26
ENDBRANCH  19  20
ENDBRANCH   3  19
TORSDOF 9
ENDMDL
MODEL 9
REMARK VINA RESULT:    -6.328      5.049      6.966
REMARK INTER + INTRA:         -10.593
REMARK INTER:                  -9.653
REMARK INTRA:                  -0.939
REMARK UNBOUND:                -1.120
REMARK  Name = 
REMARK  9 active torsions:
REMARK  status: ('A' for Active; 'I' for Inactive)
REMARK    1  A    between atoms: N_1  and  C_2
REMARK    2  A    between atoms: C_2  and  C_3
REMARK    3  A    between atoms: C_8  and  C_9
REMARK    4  A    between atoms: N_11  and  C_12
REMARK    5  A    between atoms: C_12  and  C_13
REMARK    6  A    between atoms: C_16  and  C_17
REMARK    7  A    between atoms: C_17  and  C_18
REMARK    8  A    between atoms: C_18  and  N_19
REMARK    9  A    between atoms: N_19  and  C_20
REMARK                            x       y       z     vdW  Elec       q    Type
REMARK                         _______ _______ _______ _____ _____    ______ ____
ROOT
ATOM      1  C   UNL     1      48.583   9.103  12.680  0.00  0.00    +0.000 C 
ATOM      2  O   UNL     1      48.486   9.323  13.884  0.00  0.00    +0.000 OA
ATOM      3  N   UNL     1      47.503   8.773  11.901  0.00  0.00    +0.000 N 
ATOM      4  H   UNL     1      47.589   8.876  10.899  0.00  0.00    +0.000 HD
ENDROOT
BRANCH   1  10
ATOM      5  C   UNL     1      52.305  10.454   9.580  0.00  0.00    +0.000 A 
ATOM      6  N   UNL     1      51.743  11.567   9.030  0.00  0.00    +0.000 NA
ATOM      7  C   UNL     1      50.520  11.966   9.439  0.00  0.00    +0.000 A 
ATOM      8  C   UNL     1      49.756  11.327  10.399  0.00  0.00    +0.000 A 
ATOM      9  C   UNL     1      50.305  10.179  10.995  0.00  0.00    +0.000 A 
ATOM     10  C   UNL     1      49.853   9.213  11.965  0.00  0.00    +0.000 A 
ATOM     11  C   UNL     1      50.870   8.282  12.091  0.00  0.00    +0.000 A 
ATOM     12  N   UNL     1      51.887   8.624  11.248  0.00  0.00    +0.000 N 
ATOM     13  C   UNL     1      51.573   9.778  10.567  0.00  0.00    +0.000 A 
ATOM     14  H   UNL     1      52.734   8.091  11.090  0.00  0.00    +0.000 HD
BRANCH   5  15
ATOM     15  C   UNL     1      53.653  10.005   9.070  0.00  0.00    +0.000 C 
BRANCH  15  16
ATOM     16  N   UNL     1      53.543   8.956   8.047  0.00  0.00    +0.000 NA
ATOM     17  H   UNL     1      52.634   9.044   7.596  0.00  0.00    +0.000 HD
ATOM     18  H   UNL     1      53.517   8.058   8.534  0.00  0.00    +0.000 HD
ENDBRANCH  15  16
ENDBRANCH   5  15
ENDBRANCH   1  10
BRANCH   3  19
ATOM     19  C   UNL     1      46.180   8.685  12.469  0.00  0.00    +0.000 C 
BRANCH  19  20
ATOM     20  C   UNL     1      45.570   7.348  12.146  0.00  0.00    +0.000 A 
ATOM     21  C   UNL     1      44.295   7.272  11.576  0.00  0.00    +0.000 A 
ATOM     22  C   UNL     1      43.680   6.035  11.383  0.00  0.00    +0.000 A 
ATOM     23  C   UNL     1      44.331   4.844  11.740  0.00  0.00    +0.000 A 
ATOM     24  C   UNL     1      45.615   4.920  12.292  0.00  0.00    +0.000 A 
ATOM     25  C   UNL     1      46.226   6.162  12.498  0.00  0.00    +0.000 A 
BRANCH  23  26
ATOM     26  C   UNL     1      43.652   3.506  11.524  0.00  0.00    +0.000 C 
BRANCH  26  27
ATOM     27  C   UNL     1      44.294   2.752  10.351  0.00  0.00    +0.000 C 
BRANCH  27  28
ATOM     28  N   UNL     1      44.335   3.527   9.104  0.00  0.00    +0.000 NA
ATOM     29  H   UNL     1      44.773   4.434   9.281  0.00  0.00    +0.000 HD
BRANCH  28  30
ATOM     30  C   UNL     1      45.097   2.821   8.052  0.00  0.00    +0.000 C 
ATOM     31  C   UNL     1      45.785   1.589   8.669  0.00  0.00    +0.000 C 
ATOM     32  C   UNL     1      46.655   0.850   7.651  0.00  0.00    +0.000 C 
ATOM     33  C   UNL     1      47.678   1.779   7.006  0.00  0.00    +0.000 C 
ATOM     34  C   UNL     1      46.997   2.978   6.364  0.00  0.00    +0.000 C 
ATOM     35  C   UNL     1      46.133   3.731   7.367  0.00  0.00    +0.000 C 
ENDBRANCH  28  30
ENDBRANCH  27  28
ENDBRANCH  26  27
ENDBRANCH  23  26
ENDBRANCH  19  20
ENDBRANCH   3  19
TORSDOF 9
ENDMDL
