MODEL 1
REMARK VINA RESULT:    -8.469      0.000      0.000
REMARK INTER + INTRA:         -13.358
REMARK INTER:                 -12.429
REMARK INTRA:                  -0.928
REMARK UNBOUND:                -0.928
REMARK  Name = 
REMARK  9 active torsions:
REMARK  status: ('A' for Active; 'I' for Inactive)
REMARK    1  A    between atoms: C_1  and  C_2
REMARK    2  A    between atoms: C_2  and  C_3
REMARK    3  A    between atoms: C_2  and  N_10
REMARK    4  A    between atoms: C_3  and  C_4
REMARK    5  A    between atoms: N_10  and  C_11
REMARK    6  A    between atoms: C_11  and  C_12
REMARK    7  A    between atoms: C_15  and  C_16
REMARK    8  A    between atoms: C_16  and  N_17
REMARK    9  A    between atoms: C_18  and  C_20
REMARK                            x       y       z     vdW  Elec       q    Type
REMARK                         _______ _______ _______ _____ _____    ______ ____
ROOT
ATOM      1  C   UNL     1      46.616   4.157  13.437  0.00  0.00    +0.000 A 
ATOM      2  C   UNL     1      46.944   5.431  12.999  0.00  0.00    +0.000 A 
ATOM      3  C   UNL     1      47.690   6.247  13.836  0.00  0.00    +0.000 A 
ATOM      4  C   UNL     1      48.058   5.759  15.081  0.00  0.00    +0.000 A 
ATOM      5  N   UNL     1      47.725   4.510  15.480  0.00  0.00    +0.000 NA
ATOM      6  N   UNL     1      46.999   3.703  14.653  0.00  0.00    +0.000 NA
ENDROOT
BRANCH   1   7
ATOM      7  C   UNL     1      45.842   3.210  12.557  0.00  0.00    +0.000 C 
BRANCH   7   8
ATOM      8  N   UNL     1      44.453   3.614  12.281  0.00  0.00    +0.000 NA
ATOM      9  H   UNL     1      43.860   2.783  12.313  0.00  0.00    +0.000 HD
BRANCH   8  11
ATOM     10  C   UNL     1      43.198   5.334  11.089  0.00  0.00    +0.000 C 
ATOM     11  C   UNL     1      44.281   4.255  10.963  0.00  0.00    +0.000 C 
BRANCH  11  12
ATOM     12  C   UNL     1      43.996   3.291   9.783  0.00  0.00    +0.000 C 
BRANCH  12  13
ATOM     13  C   UNL     1      45.145   2.974   8.848  0.00  0.00    +0.000 A 
ATOM     14  C   UNL     1      45.617   1.661   8.723  0.00  0.00    +0.000 A 
ATOM     15  C   UNL     1      46.616   1.350   7.796  0.00  0.00    +0.000 A 
ATOM     16  C   UNL     1      47.167   2.349   6.997  0.00  0.00    +0.000 A 
ATOM     17  C   UNL     1      46.726   3.662   7.127  0.00  0.00    +0.000 A 
ATOM     18  C   UNL     1      45.717   3.969   8.042  0.00  0.00    +0.000 A 
ENDBRANCH  12  13
ENDBRANCH  11  12
ENDBRANCH   8  11
ENDBRANCH   7   8
ENDBRANCH   1   7
BRANCH   4  19
ATOM     19  C   UNL     1      48.872   6.596  16.029  0.00  0.00    +0.000 C 
BRANCH  19  20
ATOM     20  N   UNL     1      49.986   5.864  16.591  0.00  0.00    +0.000 N 
ATOM     21  C   UNL     1      49.931   5.265  17.821  0.00  0.00    +0.000 C 
ATOM     22  O   UNL     1      48.926   5.315  18.521  0.00  0.00    +0.000 OA
ATOM     23  H   UNL     1      50.884   5.997  16.133  0.00  0.00    +0.000 HD
BRANCH  21  24
ATOM     24  C   UNL     1      51.116   4.499  18.232  0.00  0.00    +0.000 A 
ATOM     25  C   UNL     1      52.096   5.114  19.001  0.00  0.00    +0.000 A 
ATOM     26  S   UNL     1      53.384   4.082  19.427  0.00  0.00    +0.000 S 
ATOM     27  C   UNL     1      52.705   2.786  18.558  0.00  0.00    +0.000 A 
ATOM     28  N   UNL     1      53.337   1.584  18.487  0.00  0.00    +0.000 NA
ATOM     29  C   UNL     1      52.729   0.703  17.767  0.00  0.00    +0.000 A 
ATOM     30  N   UNL     1      51.538   0.911  17.120  0.00  0.00    +0.000 N 
ATOM     31  C   UNL     1      50.835   2.089  17.211  0.00  0.00    +0.000 A 
ATOM     32  O   UNL     1      49.726   2.210  16.703  0.00  0.00    +0.000 OA
ATOM     33  C   UNL     1      51.496   3.128  17.976  0.00  0.00    +0.000 A 
ATOM     34  H   UNL     1      51.100   0.171  16.591  0.00  0.00    +0.000 HD
ENDBRANCH  21  24
ENDBRANCH  19  20
ENDBRANCH   4  19
TORSDOF 8
ENDMDL
MODEL 2
REMARK VINA RESULT:    -8.450      2.880      3.446
REMARK INTER + INTRA:         -13.331
REMARK INTER:                 -12.136
REMARK INTRA:                  -1.195
REMARK UNBOUND:                -0.928
REMARK  Name = 
REMARK  9 active torsions:
REMARK  status: ('A' for Active; 'I' for Inactive)
REMARK    1  A    between atoms: C_1  and  C_2
REMARK    2  A    between atoms: C_2  and  C_3
REMARK    3  A    between atoms: C_2  and  N_10
REMARK    4  A    between atoms: C_3  and  C_4
REMARK    5  A    between atoms: N_10  and  C_11
REMARK    6  A    between atoms: C_11  and  C_12
REMARK    7  A    between atoms: C_15  and  C_16
REMARK    8  A    between atoms: C_16  and  N_17
REMARK    9  A    between atoms: C_18  and  C_20
REMARK                            x       y       z     vdW  Elec       q    Type
REMARK                         _______ _______ _______ _____ _____    ______ ____
ROOT
ATOM      1  C   UNL     1      45.634   4.837  13.359  0.00  0.00    +0.000 A 
ATOM      2  C   UNL     1      45.858   6.120  12.880  0.00  0.00    +0.000 A 
ATOM      3  C   UNL     1      46.985   6.801  13.315  0.00  0.00    +0.000 A 
ATOM      4  C   UNL     1      47.828   6.178  14.224  0.00  0.00    +0.000 A 
ATOM      5  N   UNL     1      47.584   4.924  14.671  0.00  0.00    +0.000 NA
ATOM      6  N   UNL     1      46.480   4.250  14.237  0.00  0.00    +0.000 NA
ENDROOT
BRANCH   1   7
ATOM      7  C   UNL     1      44.450   4.032  12.893  0.00  0.00    +0.000 C 
BRANCH   7   8
ATOM      8  N   UNL     1      44.768   2.964  11.929  0.00  0.00    +0.000 NA
ATOM      9  H   UNL     1      45.701   2.605  12.138  0.00  0.00    +0.000 HD
BRANCH   8  11
ATOM     10  C   UNL     1      43.641   4.467  10.373  0.00  0.00    +0.000 C 
ATOM     11  C   UNL     1      44.750   3.419  10.526  0.00  0.00    +0.000 C 
BRANCH  11  12
ATOM     12  C   UNL     1      44.630   2.298   9.461  0.00  0.00    +0.000 C 
BRANCH  12  13
ATOM     13  C   UNL     1      45.612   2.322   8.307  0.00  0.00    +0.000 A 
ATOM     14  C   UNL     1      45.747   3.468   7.514  0.00  0.00    +0.000 A 
ATOM     15  C   UNL     1      46.713   3.525   6.506  0.00  0.00    +0.000 A 
ATOM     16  C   UNL     1      47.543   2.432   6.266  0.00  0.00    +0.000 A 
ATOM     17  C   UNL     1      47.404   1.277   7.030  0.00  0.00    +0.000 A 
ATOM     18  C   UNL     1      46.449   1.227   8.047  0.00  0.00    +0.000 A 
ENDBRANCH  12  13
ENDBRANCH  11  12
ENDBRANCH   8  11
ENDBRANCH   7   8
ENDBRANCH   1   7
BRANCH   4  19
ATOM     19  C   UNL     1      49.067   6.864  14.726  0.00  0.00    +0.000 C 
BRANCH  19  20
ATOM     20  N   UNL     1      49.083   6.986  16.167  0.00  0.00    +0.000 N 
ATOM     21  C   UNL     1      50.030   6.380  16.949  0.00  0.00    +0.000 C 
ATOM     22  O   UNL     1      50.924   5.694  16.468  0.00  0.00    +0.000 OA
ATOM     23  H   UNL     1      48.239   7.360  16.593  0.00  0.00    +0.000 HD
BRANCH  21  24
ATOM     24  C   UNL     1      49.960   6.650  18.393  0.00  0.00    +0.000 A 
ATOM     25  C   UNL     1      51.019   7.293  19.021  0.00  0.00    +0.000 A 
ATOM     26  S   UNL     1      50.767   7.566  20.684  0.00  0.00    +0.000 S 
ATOM     27  C   UNL     1      49.254   6.790  20.638  0.00  0.00    +0.000 A 
ATOM     28  N   UNL     1      48.506   6.649  21.766  0.00  0.00    +0.000 NA
ATOM     29  C   UNL     1      47.397   6.010  21.594  0.00  0.00    +0.000 A 
ATOM     30  N   UNL     1      46.963   5.510  20.393  0.00  0.00    +0.000 N 
ATOM     31  C   UNL     1      47.657   5.680  19.219  0.00  0.00    +0.000 A 
ATOM     32  O   UNL     1      47.195   5.308  18.146  0.00  0.00    +0.000 OA
ATOM     33  C   UNL     1      48.932   6.356  19.364  0.00  0.00    +0.000 A 
ATOM     34  H   UNL     1      46.072   5.040  20.320  0.00  0.00    +0.000 HD
ENDBRANCH  21  24
ENDBRANCH  19  20
ENDBRANCH   4  19
TORSDOF 8
ENDMDL
MODEL 3
REMARK VINA RESULT:    -8.071      2.669      3.286
REMARK INTER + INTRA:         -12.774
REMARK INTER:                 -11.724
REMARK INTRA:                  -1.050
REMARK UNBOUND:                -0.928
REMARK  Name = 
REMARK  9 active torsions:
REMARK  status: ('A' for Active; 'I' for Inactive)
REMARK    1  A    between atoms: C_1  and  C_2
REMARK    2  A    between atoms: C_2  and  C_3
REMARK    3  A    between atoms: C_2  and  N_10
REMARK    4  A    between atoms: C_3  and  C_4
REMARK    5  A    between atoms: N_10  and  C_11
REMARK    6  A    between atoms: C_11  and  C_12
REMARK    7  A    between atoms: C_15  and  C_16
REMARK    8  A    between atoms: C_16  and  N_17
REMARK    9  A    between atoms: C_18  and  C_20
REMARK                            x       y       z     vdW  Elec       q    Type
REMARK                         _______ _______ _______ _____ _____    ______ ____
ROOT
ATOM      1  C   UNL     1      44.471   6.221  11.717  0.00  0.00    +0.000 A 
ATOM      2  C   UNL     1      44.642   7.579  11.494  0.00  0.00    +0.000 A 
ATOM      3  C   UNL     1      45.713   8.219  12.099  0.00  0.00    +0.000 A 
ATOM      4  C   UNL     1      46.554   7.477  12.916  0.00  0.00    +0.000 A 
ATOM      5  N   UNL     1      46.363   6.152  13.112  0.00  0.00    +0.000 NA
ATOM      6  N   UNL     1      45.314   5.520  12.509  0.00  0.00    +0.000 NA
ENDROOT
BRANCH   1   7
ATOM      7  C   UNL     1      43.351   5.462  11.054  0.00  0.00    +0.000 C 
BRANCH   7   8
ATOM      8  N   UNL     1      43.722   4.774   9.806  0.00  0.00    +0.000 NA
ATOM      9  H   UNL     1      42.976   4.915   9.123  0.00  0.00    +0.000 HD
BRANCH   8  11
ATOM     10  C   UNL     1      43.299   2.903  11.313  0.00  0.00    +0.000 C 
ATOM     11  C   UNL     1      43.924   3.322   9.977  0.00  0.00    +0.000 C 
BRANCH  11  12
ATOM     12  C   UNL     1      45.389   2.832   9.850  0.00  0.00    +0.000 C 
BRANCH  12  13
ATOM     13  C   UNL     1      45.932   2.605   8.454  0.00  0.00    +0.000 A 
ATOM     14  C   UNL     1      45.988   3.660   7.534  0.00  0.00    +0.000 A 
ATOM     15  C   UNL     1      46.569   3.477   6.277  0.00  0.00    +0.000 A 
ATOM     16  C   UNL     1      47.084   2.233   5.916  0.00  0.00    +0.000 A 
ATOM     17  C   UNL     1      47.013   1.169   6.810  0.00  0.00    +0.000 A 
ATOM     18  C   UNL     1      46.447   1.357   8.071  0.00  0.00    +0.000 A 
ENDBRANCH  12  13
ENDBRANCH  11  12
ENDBRANCH   8  11
ENDBRANCH   7   8
ENDBRANCH   1   7
BRANCH   4  19
ATOM     19  C   UNL     1      47.734   8.115  13.594  0.00  0.00    +0.000 C 
BRANCH  19  20
ATOM     20  N   UNL     1      48.046   7.490  14.860  0.00  0.00    +0.000 N 
ATOM     21  C   UNL     1      49.324   7.174  15.234  0.00  0.00    +0.000 C 
ATOM     22  O   UNL     1      50.286   7.403  14.508  0.00  0.00    +0.000 OA
ATOM     23  H   UNL     1      47.259   7.098  15.370  0.00  0.00    +0.000 HD
BRANCH  21  24
ATOM     24  C   UNL     1      49.495   6.605  16.578  0.00  0.00    +0.000 A 
ATOM     25  C   UNL     1      50.255   7.289  17.519  0.00  0.00    +0.000 A 
ATOM     26  S   UNL     1      50.323   6.519  19.038  0.00  0.00    +0.000 S 
ATOM     27  C   UNL     1      49.379   5.217  18.481  0.00  0.00    +0.000 A 
ATOM     28  N   UNL     1      49.083   4.169  19.296  0.00  0.00    +0.000 NA
ATOM     29  C   UNL     1      48.390   3.236  18.734  0.00  0.00    +0.000 A 
ATOM     30  N   UNL     1      47.957   3.261  17.434  0.00  0.00    +0.000 N 
ATOM     31  C   UNL     1      48.182   4.325  16.593  0.00  0.00    +0.000 A 
ATOM     32  O   UNL     1      47.696   4.361  15.467  0.00  0.00    +0.000 OA
ATOM     33  C   UNL     1      48.992   5.383  17.162  0.00  0.00    +0.000 A 
ATOM     34  H   UNL     1      47.396   2.509  17.061  0.00  0.00    +0.000 HD
ENDBRANCH  21  24
ENDBRANCH  19  20
ENDBRANCH   4  19
TORSDOF 8
ENDMDL
MODEL 4
REMARK VINA RESULT:    -8.019      1.730      2.728
REMARK INTER + INTRA:         -12.698
REMARK INTER:                 -11.548
REMARK INTRA:                  -1.150
REMARK UNBOUND:                -0.928
REMARK  Name = 
REMARK  9 active torsions:
REMARK  status: ('A' for Active; 'I' for Inactive)
REMARK    1  A    between atoms: C_1  and  C_2
REMARK    2  A    between atoms: C_2  and  C_3
REMARK    3  A    between atoms: C_2  and  N_10
REMARK    4  A    between atoms: C_3  and  C_4
REMARK    5  A    between atoms: N_10  and  C_11
REMARK    6  A    between atoms: C_11  and  C_12
REMARK    7  A    between atoms: C_15  and  C_16
REMARK    8  A    between atoms: C_16  and  N_17
REMARK    9  A    between atoms: C_18  and  C_20
REMARK                            x       y       z     vdW  Elec       q    Type
REMARK                         _______ _______ _______ _____ _____    ______ ____
ROOT
ATOM      1  C   UNL     1      46.856   4.499  13.928  0.00  0.00    +0.000 A 
ATOM      2  C   UNL     1      46.968   5.324  15.037  0.00  0.00    +0.000 A 
ATOM      3  C   UNL     1      47.435   4.779  16.224  0.00  0.00    +0.000 A 
ATOM      4  C   UNL     1      47.750   3.428  16.254  0.00  0.00    +0.000 A 
ATOM      5  N   UNL     1      47.632   2.648  15.154  0.00  0.00    +0.000 NA
ATOM      6  N   UNL     1      47.182   3.187  13.983  0.00  0.00    +0.000 NA
ENDROOT
BRANCH   1   7
ATOM      7  C   UNL     1      46.395   5.042  12.601  0.00  0.00    +0.000 C 
BRANCH   7   8
ATOM      8  N   UNL     1      45.521   4.140  11.831  0.00  0.00    +0.000 NA
ATOM      9  H   UNL     1      46.086   3.366  11.477  0.00  0.00    +0.000 HD
BRANCH   8  11
ATOM     10  C   UNL     1      43.766   5.722  11.224  0.00  0.00    +0.000 C 
ATOM     11  C   UNL     1      44.866   4.798  10.685  0.00  0.00    +0.000 C 
BRANCH  11  12
ATOM     12  C   UNL     1      44.328   3.846   9.586  0.00  0.00    +0.000 C 
BRANCH  12  13
ATOM     13  C   UNL     1      45.344   3.175   8.684  0.00  0.00    +0.000 A 
ATOM     14  C   UNL     1      45.561   1.793   8.764  0.00  0.00    +0.000 A 
ATOM     15  C   UNL     1      46.431   1.158   7.874  0.00  0.00    +0.000 A 
ATOM     16  C   UNL     1      47.109   1.897   6.907  0.00  0.00    +0.000 A 
ATOM     17  C   UNL     1      46.923   3.274   6.832  0.00  0.00    +0.000 A 
ATOM     18  C   UNL     1      46.041   3.905   7.711  0.00  0.00    +0.000 A 
ENDBRANCH  12  13
ENDBRANCH  11  12
ENDBRANCH   8  11
ENDBRANCH   7   8
ENDBRANCH   1   7
BRANCH   4  19
ATOM     19  C   UNL     1      48.265   2.782  17.509  0.00  0.00    +0.000 C 
BRANCH  19  20
ATOM     20  N   UNL     1      49.611   3.203  17.833  0.00  0.00    +0.000 N 
ATOM     21  C   UNL     1      50.721   2.562  17.352  0.00  0.00    +0.000 C 
ATOM     22  O   UNL     1      50.636   1.585  16.615  0.00  0.00    +0.000 OA
ATOM     23  H   UNL     1      49.700   3.859  18.604  0.00  0.00    +0.000 HD
BRANCH  21  24
ATOM     24  C   UNL     1      52.022   3.144  17.710  0.00  0.00    +0.000 A 
ATOM     25  C   UNL     1      53.000   2.336  18.278  0.00  0.00    +0.000 A 
ATOM     26  S   UNL     1      54.462   3.151  18.599  0.00  0.00    +0.000 S 
ATOM     27  C   UNL     1      53.828   4.625  18.035  0.00  0.00    +0.000 A 
ATOM     28  N   UNL     1      54.573   5.763  18.062  0.00  0.00    +0.000 NA
ATOM     29  C   UNL     1      53.956   6.815  17.638  0.00  0.00    +0.000 A 
ATOM     30  N   UNL     1      52.665   6.829  17.177  0.00  0.00    +0.000 N 
ATOM     31  C   UNL     1      51.896   5.695  17.077  0.00  0.00    +0.000 A 
ATOM     32  O   UNL     1      50.780   5.724  16.569  0.00  0.00    +0.000 OA
ATOM     33  C   UNL     1      52.527   4.491  17.580  0.00  0.00    +0.000 A 
ATOM     34  H   UNL     1      52.247   7.683  16.835  0.00  0.00    +0.000 HD
ENDBRANCH  21  24
ENDBRANCH  19  20
ENDBRANCH   4  19
TORSDOF 8
ENDMDL
MODEL 5
REMARK VINA RESULT:    -7.820      1.850      2.320
REMARK INTER + INTRA:         -12.406
REMARK INTER:                 -11.430
REMARK INTRA:                  -0.975
REMARK UNBOUND:                -0.928
REMARK  Name = 
REMARK  9 active torsions:
REMARK  status: ('A' for Active; 'I' for Inactive)
REMARK    1  A    between atoms: C_1  and  C_2
REMARK    2  A    between atoms: C_2  and  C_3
REMARK    3  A    between atoms: C_2  and  N_10
REMARK    4  A    between atoms: C_3  and  C_4
REMARK    5  A    between atoms: N_10  and  C_11
REMARK    6  A    between atoms: C_11  and  C_12
REMARK    7  A    between atoms: C_15  and  C_16
REMARK    8  A    between atoms: C_16  and  N_17
REMARK    9  A    between atoms: C_18  and  C_20
REMARK                            x       y       z     vdW  Elec       q    Type
REMARK                         _______ _______ _______ _____ _____    ______ ____
ROOT
ATOM      1  C   UNL     1      45.656   5.075  13.138  0.00  0.00    +0.000 A 
ATOM      2  C   UNL     1      46.772   4.616  13.822  0.00  0.00    +0.000 A 
ATOM      3  C   UNL     1      47.768   5.523  14.149  0.00  0.00    +0.000 A 
ATOM      4  C   UNL     1      47.613   6.846  13.762  0.00  0.00    +0.000 A 
ATOM      5  N   UNL     1      46.511   7.265  13.097  0.00  0.00    +0.000 NA
ATOM      6  N   UNL     1      45.526   6.374  12.783  0.00  0.00    +0.000 NA
ENDROOT
BRANCH   1   7
ATOM      7  C   UNL     1      44.523   4.145  12.791  0.00  0.00    +0.000 C 
BRANCH   7   8
ATOM      8  N   UNL     1      44.863   3.086  11.825  0.00  0.00    +0.000 NA
ATOM      9  H   UNL     1      45.829   2.795  11.990  0.00  0.00    +0.000 HD
BRANCH   8  11
ATOM     10  C   UNL     1      43.568   4.498  10.315  0.00  0.00    +0.000 C 
ATOM     11  C   UNL     1      44.742   3.517  10.419  0.00  0.00    +0.000 C 
BRANCH  11  12
ATOM     12  C   UNL     1      44.629   2.374   9.378  0.00  0.00    +0.000 C 
BRANCH  12  13
ATOM     13  C   UNL     1      45.629   2.365   8.240  0.00  0.00    +0.000 A 
ATOM     14  C   UNL     1      45.756   3.476   7.397  0.00  0.00    +0.000 A 
ATOM     15  C   UNL     1      46.737   3.506   6.402  0.00  0.00    +0.000 A 
ATOM     16  C   UNL     1      47.591   2.419   6.226  0.00  0.00    +0.000 A 
ATOM     17  C   UNL     1      47.460   1.297   7.039  0.00  0.00    +0.000 A 
ATOM     18  C   UNL     1      46.491   1.275   8.042  0.00  0.00    +0.000 A 
ENDBRANCH  12  13
ENDBRANCH  11  12
ENDBRANCH   8  11
ENDBRANCH   7   8
ENDBRANCH   1   7
BRANCH   4  19
ATOM     19  C   UNL     1      48.656   7.876  14.093  0.00  0.00    +0.000 C 
BRANCH  19  20
ATOM     20  N   UNL     1      49.848   7.289  14.664  0.00  0.00    +0.000 N 
ATOM     21  C   UNL     1      50.072   7.237  16.014  0.00  0.00    +0.000 C 
ATOM     22  O   UNL     1      49.269   7.691  16.821  0.00  0.00    +0.000 OA
ATOM     23  H   UNL     1      50.612   7.111  14.018  0.00  0.00    +0.000 HD
BRANCH  21  24
ATOM     24  C   UNL     1      51.296   6.549  16.450  0.00  0.00    +0.000 A 
ATOM     25  C   UNL     1      52.532   7.142  16.227  0.00  0.00    +0.000 A 
ATOM     26  S   UNL     1      53.846   6.238  16.826  0.00  0.00    +0.000 S 
ATOM     27  C   UNL     1      52.816   4.995  17.364  0.00  0.00    +0.000 A 
ATOM     28  N   UNL     1      53.319   3.879  17.957  0.00  0.00    +0.000 NA
ATOM     29  C   UNL     1      52.429   3.002  18.284  0.00  0.00    +0.000 A 
ATOM     30  N   UNL     1      51.080   3.146  18.081  0.00  0.00    +0.000 N 
ATOM     31  C   UNL     1      50.525   4.280  17.540  0.00  0.00    +0.000 A 
ATOM     32  O   UNL     1      49.308   4.420  17.463  0.00  0.00    +0.000 OA
ATOM     33  C   UNL     1      51.485   5.281  17.117  0.00  0.00    +0.000 A 
ATOM     34  H   UNL     1      50.433   2.432  18.382  0.00  0.00    +0.000 HD
ENDBRANCH  21  24
ENDBRANCH  19  20
ENDBRANCH   4  19
TORSDOF 8
ENDMDL
MODEL 6
REMARK VINA RESULT:    -7.739      2.549      3.110
REMARK INTER + INTRA:         -12.287
REMARK INTER:                 -11.216
REMARK INTRA:                  -1.071
REMARK UNBOUND:                -0.928
REMARK  Name = 
REMARK  9 active torsions:
REMARK  status: ('A' for Active; 'I' for Inactive)
REMARK    1  A    between atoms: C_1  and  C_2
REMARK    2  A    between atoms: C_2  and  C_3
REMARK    3  A    between atoms: C_2  and  N_10
REMARK    4  A    between atoms: C_3  and  C_4
REMARK    5  A    between atoms: N_10  and  C_11
REMARK    6  A    between atoms: C_11  and  C_12
REMARK    7  A    between atoms: C_15  and  C_16
REMARK    8  A    between atoms: C_16  and  N_17
REMARK    9  A    between atoms: C_18  and  C_20
REMARK                            x       y       z     vdW  Elec       q    Type
REMARK                         _______ _______ _______ _____ _____    ______ ____
ROOT
ATOM      1  C   UNL     1      45.889   4.806  13.492  0.00  0.00    +0.000 A 
ATOM      2  C   UNL     1      46.382   5.988  12.959  0.00  0.00    +0.000 A 
ATOM      3  C   UNL     1      47.471   6.587  13.572  0.00  0.00    +0.000 A 
ATOM      4  C   UNL     1      48.008   5.988  14.703  0.00  0.00    +0.000 A 
ATOM      5  N   UNL     1      47.507   4.833  15.198  0.00  0.00    +0.000 NA
ATOM      6  N   UNL     1      46.440   4.238  14.589  0.00  0.00    +0.000 NA
ENDROOT
BRANCH   1   7
ATOM      7  C   UNL     1      44.734   4.086  12.845  0.00  0.00    +0.000 C 
BRANCH   7   8
ATOM      8  N   UNL     1      45.115   3.084  11.835  0.00  0.00    +0.000 NA
ATOM      9  H   UNL     1      46.109   2.874  11.945  0.00  0.00    +0.000 HD
BRANCH   8  11
ATOM     10  C   UNL     1      43.691   4.496  10.445  0.00  0.00    +0.000 C 
ATOM     11  C   UNL     1      44.887   3.536  10.449  0.00  0.00    +0.000 C 
BRANCH  11  12
ATOM     12  C   UNL     1      44.722   2.409   9.397  0.00  0.00    +0.000 C 
BRANCH  12  13
ATOM     13  C   UNL     1      45.727   2.358   8.264  0.00  0.00    +0.000 A 
ATOM     14  C   UNL     1      46.418   1.174   7.980  0.00  0.00    +0.000 A 
ATOM     15  C   UNL     1      47.278   1.098   6.882  0.00  0.00    +0.000 A 
ATOM     16  C   UNL     1      47.473   2.210   6.065  0.00  0.00    +0.000 A 
ATOM     17  C   UNL     1      46.812   3.402   6.349  0.00  0.00    +0.000 A 
ATOM     18  C   UNL     1      45.941   3.471   7.437  0.00  0.00    +0.000 A 
ENDBRANCH  12  13
ENDBRANCH  11  12
ENDBRANCH   8  11
ENDBRANCH   7   8
ENDBRANCH   1   7
BRANCH   4  19
ATOM     19  C   UNL     1      49.192   6.589  15.407  0.00  0.00    +0.000 C 
BRANCH  19  20
ATOM     20  N   UNL     1      49.152   6.371  16.836  0.00  0.00    +0.000 N 
ATOM     21  C   UNL     1      48.902   7.377  17.730  0.00  0.00    +0.000 C 
ATOM     22  O   UNL     1      48.698   8.530  17.367  0.00  0.00    +0.000 OA
ATOM     23  H   UNL     1      49.530   5.486  17.164  0.00  0.00    +0.000 HD
BRANCH  21  24
ATOM     24  C   UNL     1      48.824   6.993  19.147  0.00  0.00    +0.000 A 
ATOM     25  C   UNL     1      47.780   7.471  19.929  0.00  0.00    +0.000 A 
ATOM     26  S   UNL     1      47.811   6.904  21.536  0.00  0.00    +0.000 S 
ATOM     27  C   UNL     1      49.248   6.036  21.260  0.00  0.00    +0.000 A 
ATOM     28  N   UNL     1      49.843   5.333  22.261  0.00  0.00    +0.000 NA
ATOM     29  C   UNL     1      50.945   4.752  21.922  0.00  0.00    +0.000 A 
ATOM     30  N   UNL     1      51.499   4.800  20.669  0.00  0.00    +0.000 N 
ATOM     31  C   UNL     1      50.902   5.447  19.614  0.00  0.00    +0.000 A 
ATOM     32  O   UNL     1      51.372   5.388  18.482  0.00  0.00    +0.000 OA
ATOM     33  C   UNL     1      49.682   6.153  19.951  0.00  0.00    +0.000 A 
ATOM     34  H   UNL     1      52.352   4.301  20.461  0.00  0.00    +0.000 HD
ENDBRANCH  21  24
ENDBRANCH  19  20
ENDBRANCH   4  19
TORSDOF 8
ENDMDL
MODEL 7
REMARK VINA RESULT:    -7.560      3.761      9.905
REMARK INTER + INTRA:         -12.024
REMARK INTER:                 -10.026
REMARK INTRA:                  -1.998
REMARK UNBOUND:                -0.928
REMARK  Name = 
REMARK  9 active torsions:
REMARK  status: ('A' for Active; 'I' for Inactive)
REMARK    1  A    between atoms: C_1  and  C_2
REMARK    2  A    between atoms: C_2  and  C_3
REMARK    3  A    between atoms: C_2  and  N_10
REMARK    4  A    between atoms: C_3  and  C_4
REMARK    5  A    between atoms: N_10  and  C_11
REMARK    6  A    between atoms: C_11  and  C_12
REMARK    7  A    between atoms: C_15  and  C_16
REMARK    8  A    between atoms: C_16  and  N_17
REMARK    9  A    between atoms: C_18  and  C_20
REMARK                            x       y       z     vdW  Elec       q    Type
REMARK                         _______ _______ _______ _____ _____    ______ ____
ROOT
ATOM      1  C   UNL     1      51.407   4.058  17.482  0.00  0.00    +0.000 A 
ATOM      2  C   UNL     1      50.857   2.811  17.741  0.00  0.00    +0.000 A 
ATOM      3  C   UNL     1      49.505   2.621  17.501  0.00  0.00    +0.000 A 
ATOM      4  C   UNL     1      48.758   3.692  17.030  0.00  0.00    +0.000 A 
ATOM      5  N   UNL     1      49.324   4.896  16.784  0.00  0.00    +0.000 NA
ATOM      6  N   UNL     1      50.657   5.081  17.012  0.00  0.00    +0.000 NA
ENDROOT
BRANCH   1   7
ATOM      7  C   UNL     1      52.878   4.313  17.685  0.00  0.00    +0.000 C 
BRANCH   7   8
ATOM      8  N   UNL     1      53.352   4.140  19.069  0.00  0.00    +0.000 NA
ATOM      9  H   UNL     1      52.937   3.288  19.450  0.00  0.00    +0.000 HD
BRANCH   8  11
ATOM     10  C   UNL     1      54.266   5.734  20.673  0.00  0.00    +0.000 C 
ATOM     11  C   UNL     1      52.996   5.265  19.954  0.00  0.00    +0.000 C 
BRANCH  11  12
ATOM     12  C   UNL     1      51.840   4.991  20.951  0.00  0.00    +0.000 C 
BRANCH  12  13
ATOM     13  C   UNL     1      50.472   5.543  20.604  0.00  0.00    +0.000 A 
ATOM     14  C   UNL     1      50.338   6.841  20.095  0.00  0.00    +0.000 A 
ATOM     15  C   UNL     1      49.090   7.321  19.692  0.00  0.00    +0.000 A 
ATOM     16  C   UNL     1      47.958   6.517  19.808  0.00  0.00    +0.000 A 
ATOM     17  C   UNL     1      48.071   5.234  20.335  0.00  0.00    +0.000 A 
ATOM     18  C   UNL     1      49.321   4.750  20.723  0.00  0.00    +0.000 A 
ENDBRANCH  12  13
ENDBRANCH  11  12
ENDBRANCH   8  11
ENDBRANCH   7   8
ENDBRANCH   1   7
BRANCH   4  19
ATOM     19  C   UNL     1      47.290   3.544  16.745  0.00  0.00    +0.000 C 
BRANCH  19  20
ATOM     20  N   UNL     1      46.819   4.502  15.769  0.00  0.00    +0.000 N 
ATOM     21  C   UNL     1      46.842   4.255  14.422  0.00  0.00    +0.000 C 
ATOM     22  O   UNL     1      47.268   3.200  13.964  0.00  0.00    +0.000 OA
ATOM     23  H   UNL     1      46.673   5.449  16.106  0.00  0.00    +0.000 HD
BRANCH  21  24
ATOM     24  C   UNL     1      46.268   5.293  13.554  0.00  0.00    +0.000 A 
ATOM     25  C   UNL     1      46.979   6.465  13.328  0.00  0.00    +0.000 A 
ATOM     26  S   UNL     1      46.196   7.549  12.270  0.00  0.00    +0.000 S 
ATOM     27  C   UNL     1      44.856   6.513  12.113  0.00  0.00    +0.000 A 
ATOM     28  N   UNL     1      43.786   6.865  11.350  0.00  0.00    +0.000 NA
ATOM     29  C   UNL     1      42.826   6.003  11.348  0.00  0.00    +0.000 A 
ATOM     30  N   UNL     1      42.843   4.814  12.030  0.00  0.00    +0.000 N 
ATOM     31  C   UNL     1      43.926   4.391  12.764  0.00  0.00    +0.000 A 
ATOM     32  O   UNL     1      43.950   3.279  13.281  0.00  0.00    +0.000 OA
ATOM     33  C   UNL     1      45.017   5.343  12.834  0.00  0.00    +0.000 A 
ATOM     34  H   UNL     1      42.068   4.169  11.968  0.00  0.00    +0.000 HD
ENDBRANCH  21  24
ENDBRANCH  19  20
ENDBRANCH   4  19
TORSDOF 8
ENDMDL
MODEL 8
REMARK VINA RESULT:    -7.418      3.103      4.084
REMARK INTER + INTRA:         -11.816
REMARK INTER:                 -10.879
REMARK INTRA:                  -0.937
REMARK UNBOUND:                -0.928
REMARK  Name = 
REMARK  9 active torsions:
REMARK  status: ('A' for Active; 'I' for Inactive)
REMARK    1  A    between atoms: C_1  and  C_2
REMARK    2  A    between atoms: C_2  and  C_3
REMARK    3  A    between atoms: C_2  and  N_10
REMARK    4  A    between atoms: C_3  and  C_4
REMARK    5  A    between atoms: N_10  and  C_11
REMARK    6  A    between atoms: C_11  and  C_12
REMARK    7  A    between atoms: C_15  and  C_16
REMARK    8  A    between atoms: C_16  and  N_17
REMARK    9  A    between atoms: C_18  and  C_20
REMARK                            x       y       z     vdW  Elec       q    Type
REMARK                         _______ _______ _______ _____ _____    ______ ____
ROOT
ATOM      1  C   UNL     1      46.275   6.507  11.906  0.00  0.00    +0.000 A 
ATOM      2  C   UNL     1      46.282   7.877  12.121  0.00  0.00    +0.000 A 
ATOM      3  C   UNL     1      47.106   8.386  13.114  0.00  0.00    +0.000 A 
ATOM      4  C   UNL     1      47.872   7.502  13.859  0.00  0.00    +0.000 A 
ATOM      5  N   UNL     1      47.845   6.170  13.623  0.00  0.00    +0.000 NA
ATOM      6  N   UNL     1      47.042   5.668  12.641  0.00  0.00    +0.000 NA
ENDROOT
BRANCH   1   7
ATOM      7  C   UNL     1      45.432   5.898  10.816  0.00  0.00    +0.000 C 
BRANCH   7   8
ATOM      8  N   UNL     1      45.444   4.425  10.772  0.00  0.00    +0.000 NA
ATOM      9  H   UNL     1      46.213   4.124  10.171  0.00  0.00    +0.000 HD
BRANCH   8  11
ATOM     10  C   UNL     1      43.203   3.703  11.411  0.00  0.00    +0.000 C 
ATOM     11  C   UNL     1      44.192   3.846  10.248  0.00  0.00    +0.000 C 
BRANCH  11  12
ATOM     12  C   UNL     1      44.348   2.520   9.461  0.00  0.00    +0.000 C 
BRANCH  12  13
ATOM     13  C   UNL     1      45.434   2.456   8.406  0.00  0.00    +0.000 A 
ATOM     14  C   UNL     1      46.209   1.300   8.254  0.00  0.00    +0.000 A 
ATOM     15  C   UNL     1      47.150   1.205   7.226  0.00  0.00    +0.000 A 
ATOM     16  C   UNL     1      47.342   2.271   6.349  0.00  0.00    +0.000 A 
ATOM     17  C   UNL     1      46.598   3.437   6.504  0.00  0.00    +0.000 A 
ATOM     18  C   UNL     1      45.646   3.524   7.521  0.00  0.00    +0.000 A 
ENDBRANCH  12  13
ENDBRANCH  11  12
ENDBRANCH   8  11
ENDBRANCH   7   8
ENDBRANCH   1   7
BRANCH   4  19
ATOM     19  C   UNL     1      48.788   7.996  14.943  0.00  0.00    +0.000 C 
BRANCH  19  20
ATOM     20  N   UNL     1      48.503   7.388  16.224  0.00  0.00    +0.000 N 
ATOM     21  C   UNL     1      49.365   6.520  16.838  0.00  0.00    +0.000 C 
ATOM     22  O   UNL     1      50.436   6.206  16.332  0.00  0.00    +0.000 OA
ATOM     23  H   UNL     1      47.542   7.461  16.549  0.00  0.00    +0.000 HD
BRANCH  21  24
ATOM     24  C   UNL     1      48.972   6.035  18.169  0.00  0.00    +0.000 A 
ATOM     25  C   UNL     1      49.103   4.685  18.471  0.00  0.00    +0.000 A 
ATOM     26  S   UNL     1      48.642   4.291  20.064  0.00  0.00    +0.000 S 
ATOM     27  C   UNL     1      48.205   5.901  20.395  0.00  0.00    +0.000 A 
ATOM     28  N   UNL     1      47.692   6.252  21.605  0.00  0.00    +0.000 NA
ATOM     29  C   UNL     1      47.371   7.498  21.707  0.00  0.00    +0.000 A 
ATOM     30  N   UNL     1      47.528   8.428  20.712  0.00  0.00    +0.000 N 
ATOM     31  C   UNL     1      48.095   8.132  19.496  0.00  0.00    +0.000 A 
ATOM     32  O   UNL     1      48.313   9.006  18.664  0.00  0.00    +0.000 OA
ATOM     33  C   UNL     1      48.436   6.734  19.314  0.00  0.00    +0.000 A 
ATOM     34  H   UNL     1      47.279   9.395  20.864  0.00  0.00    +0.000 HD
ENDBRANCH  21  24
ENDBRANCH  19  20
ENDBRANCH   4  19
TORSDOF 8
ENDMDL
MODEL 9
REMARK VINA RESULT:    -7.284      4.086      9.026
REMARK INTER + INTRA:         -11.619
REMARK INTER:                 -10.203
REMARK INTRA:                  -1.416
REMARK UNBOUND:                -0.928
REMARK  Name = 
REMARK  9 active torsions:
REMARK  status: ('A' for Active; 'I' for Inactive)
REMARK    1  A    between atoms: C_1  and  C_2
REMARK    2  A    between atoms: C_2  and  C_3
REMARK    3  A    between atoms: C_2  and  N_10
REMARK    4  A    between atoms: C_3  and  C_4
REMARK    5  A    between atoms: N_10  and  C_11
REMARK    6  A    between atoms: C_11  and  C_12
REMARK    7  A    between atoms: C_15  and  C_16
REMARK    8  A    between atoms: C_16  and  N_17
REMARK    9  A    between atoms: C_18  and  C_20
REMARK                            x       y       z     vdW  Elec       q    Type
REMARK                         _______ _______ _______ _____ _____    ______ ____
ROOT
ATOM      1  C   UNL     1      50.048   7.736  15.400  0.00  0.00    +0.000 A 
ATOM      2  C   UNL     1      49.949   8.927  14.697  0.00  0.00    +0.000 A 
ATOM      3  C   UNL     1      49.223   8.940  13.516  0.00  0.00    +0.000 A 
ATOM      4  C   UNL     1      48.645   7.757  13.080  0.00  0.00    +0.000 A 
ATOM      5  N   UNL     1      48.758   6.610  13.789  0.00  0.00    +0.000 NA
ATOM      6  N   UNL     1      49.464   6.599  14.956  0.00  0.00    +0.000 NA
ENDROOT
BRANCH   1   7
ATOM      7  C   UNL     1      50.789   7.669  16.710  0.00  0.00    +0.000 C 
BRANCH   7   8
ATOM      8  N   UNL     1      50.071   8.249  17.858  0.00  0.00    +0.000 NA
ATOM      9  H   UNL     1      50.653   8.145  18.691  0.00  0.00    +0.000 HD
BRANCH   8  11
ATOM     10  C   UNL     1      47.826   8.653  18.722  0.00  0.00    +0.000 C 
ATOM     11  C   UNL     1      48.769   7.605  18.119  0.00  0.00    +0.000 C 
BRANCH  11  12
ATOM     12  C   UNL     1      48.821   6.318  18.981  0.00  0.00    +0.000 C 
BRANCH  12  13
ATOM     13  C   UNL     1      48.682   4.990  18.263  0.00  0.00    +0.000 A 
ATOM     14  C   UNL     1      47.475   4.641  17.645  0.00  0.00    +0.000 A 
ATOM     15  C   UNL     1      47.370   3.459  16.907  0.00  0.00    +0.000 A 
ATOM     16  C   UNL     1      48.463   2.603  16.794  0.00  0.00    +0.000 A 
ATOM     17  C   UNL     1      49.662   2.924  17.424  0.00  0.00    +0.000 A 
ATOM     18  C   UNL     1      49.770   4.113  18.147  0.00  0.00    +0.000 A 
ENDBRANCH  12  13
ENDBRANCH  11  12
ENDBRANCH   8  11
ENDBRANCH   7   8
ENDBRANCH   1   7
BRANCH   4  19
ATOM     19  C   UNL     1      47.841   7.711  11.810  0.00  0.00    +0.000 C 
BRANCH  19  20
ATOM     20  N   UNL     1      47.066   6.496  11.693  0.00  0.00    +0.000 N 
ATOM     21  C   UNL     1      45.697   6.495  11.643  0.00  0.00    +0.000 C 
ATOM     22  O   UNL     1      45.047   7.533  11.697  0.00  0.00    +0.000 OA
ATOM     23  H   UNL     1      47.565   5.628  11.867  0.00  0.00    +0.000 HD
BRANCH  21  24
ATOM     24  C   UNL     1      45.048   5.190  11.455  0.00  0.00    +0.000 A 
ATOM     25  C   UNL     1      44.326   4.627  12.500  0.00  0.00    +0.000 A 
ATOM     26  S   UNL     1      43.603   3.134  12.110  0.00  0.00    +0.000 S 
ATOM     27  C   UNL     1      44.268   3.159  10.544  0.00  0.00    +0.000 A 
ATOM     28  N   UNL     1      44.055   2.133   9.677  0.00  0.00    +0.000 NA
ATOM     29  C   UNL     1      44.646   2.266   8.537  0.00  0.00    +0.000 A 
ATOM     30  N   UNL     1      45.422   3.339   8.181  0.00  0.00    +0.000 N 
ATOM     31  C   UNL     1      45.615   4.424   9.002  0.00  0.00    +0.000 A 
ATOM     32  O   UNL     1      46.232   5.412   8.617  0.00  0.00    +0.000 OA
ATOM     33  C   UNL     1      45.006   4.307  10.312  0.00  0.00    +0.000 A 
ATOM     34  H   UNL     1      45.838   3.394   7.263  0.00  0.00    +0.000 HD
ENDBRANCH  21  24
ENDBRANCH  19  20
ENDBRANCH   4  19
TORSDOF 8
ENDMDL
