MODEL 1
REMARK VINA RESULT:    -7.333      0.000      0.000
REMARK INTER + INTRA:         -10.610
REMARK INTER:                  -9.906
REMARK INTRA:                  -0.704
REMARK UNBOUND:                -0.704
REMARK  Name = 
REMARK  7 active torsions:
REMARK  status: ('A' for Active; 'I' for Inactive)
REMARK    1  A    between atoms: C_1  and  C_2
REMARK    2  A    between atoms: C_3  and  C_4
REMARK    3  A    between atoms: C_7  and  C_8
REMARK    4  A    between atoms: C_12  and  N_13
REMARK    5  A    between atoms: N_13  and  C_14
REMARK    6  A    between atoms: C_14  and  C_15
REMARK    7  A    between atoms: C_15  and  C_16
REMARK                            x       y       z     vdW  Elec       q    Type
REMARK                         _______ _______ _______ _____ _____    ______ ____
ROOT
ATOM      1  C   UNL     1      44.909   7.314  11.848  0.00  0.00    +0.000 A 
ATOM      2  C   UNL     1      45.810   7.630  12.870  0.00  0.00    +0.000 A 
ATOM      3  N   UNL     1      46.494   6.733  13.622  0.00  0.00    +0.000 NA
ATOM      4  C   UNL     1      46.278   5.431  13.310  0.00  0.00    +0.000 A 
ATOM      5  C   UNL     1      45.392   5.009  12.331  0.00  0.00    +0.000 A 
ATOM      6  C   UNL     1      44.631   5.942  11.605  0.00  0.00    +0.000 A 
ENDROOT
BRANCH   4   7
ATOM      7  C   UNL     1      47.060   4.399  14.064  0.00  0.00    +0.000 C 
ATOM      8  N   UNL     1      46.869   3.105  13.663  0.00  0.00    +0.000 N 
ATOM      9  O   UNL     1      47.820   4.678  14.982  0.00  0.00    +0.000 OA
ATOM     10  H   UNL     1      46.220   2.901  12.916  0.00  0.00    +0.000 HD
ATOM     11  H   UNL     1      47.342   2.363  14.159  0.00  0.00    +0.000 HD
ENDBRANCH   4   7
BRANCH   1  14
ATOM     12  C   UNL     1      43.115  10.639   9.867  0.00  0.00    +0.000 C 
ATOM     13  C   UNL     1      43.776   9.446  10.539  0.00  0.00    +0.000 C 
ATOM     14  C   UNL     1      44.343   8.423  11.116  0.00  0.00    +0.000 C 
ENDBRANCH   1  14
BRANCH   6  15
ATOM     15  N   UNL     1      43.734   5.476  10.597  0.00  0.00    +0.000 N 
ATOM     16  H   UNL     1      42.796   5.355  10.973  0.00  0.00    +0.000 HD
BRANCH  15  17
ATOM     17  C   UNL     1      44.210   4.294   9.826  0.00  0.00    +0.000 C 
BRANCH  17  18
ATOM     18  C   UNL     1      45.097   4.644   8.623  0.00  0.00    +0.000 C 
BRANCH  18  19
ATOM     19  C   UNL     1      45.801   3.413   8.068  0.00  0.00    +0.000 A 
ATOM     20  C   UNL     1      46.680   3.524   6.981  0.00  0.00    +0.000 A 
ATOM     21  C   UNL     1      47.335   2.397   6.471  0.00  0.00    +0.000 A 
ATOM     22  C   UNL     1      47.116   1.144   7.036  0.00  0.00    +0.000 A 
ATOM     23  C   UNL     1      46.229   1.013   8.101  0.00  0.00    +0.000 A 
ATOM     24  C   UNL     1      45.569   2.137   8.610  0.00  0.00    +0.000 A 
ENDBRANCH  18  19
ENDBRANCH  17  18
ENDBRANCH  15  17
ENDBRANCH   6  15
TORSDOF 6
ENDMDL
MODEL 2
REMARK VINA RESULT:    -7.001      2.074      4.374
REMARK INTER + INTRA:         -10.161
REMARK INTER:                  -9.486
REMARK INTRA:                  -0.676
REMARK UNBOUND:                -0.704
REMARK  Name = 
REMARK  7 active torsions:
REMARK  status: ('A' for Active; 'I' for Inactive)
REMARK    1  A    between atoms: C_1  and  C_2
REMARK    2  A    between atoms: C_3  and  C_4
REMARK    3  A    between atoms: C_7  and  C_8
REMARK    4  A    between atoms: C_12  and  N_13
REMARK    5  A    between atoms: N_13  and  C_14
REMARK    6  A    between atoms: C_14  and  C_15
REMARK    7  A    between atoms: C_15  and  C_16
REMARK                            x       y       z     vdW  Elec       q    Type
REMARK                         _______ _______ _______ _____ _____    ______ ____
ROOT
ATOM      1  C   UNL     1      46.103   5.853  13.182  0.00  0.00    +0.000 A 
ATOM      2  C   UNL     1      46.450   7.197  13.363  0.00  0.00    +0.000 A 
ATOM      3  N   UNL     1      45.911   8.246  12.693  0.00  0.00    +0.000 NA
ATOM      4  C   UNL     1      44.942   7.928  11.801  0.00  0.00    +0.000 A 
ATOM      5  C   UNL     1      44.538   6.629  11.530  0.00  0.00    +0.000 A 
ATOM      6  C   UNL     1      45.152   5.541  12.175  0.00  0.00    +0.000 A 
ENDROOT
BRANCH   4   7
ATOM      7  C   UNL     1      44.264   9.054  11.083  0.00  0.00    +0.000 C 
ATOM      8  N   UNL     1      42.967   8.823  10.714  0.00  0.00    +0.000 N 
ATOM      9  O   UNL     1      44.821  10.115  10.831  0.00  0.00    +0.000 OA
ATOM     10  H   UNL     1      42.538   7.931  10.916  0.00  0.00    +0.000 HD
ATOM     11  H   UNL     1      42.471   9.534  10.194  0.00  0.00    +0.000 HD
ENDBRANCH   4   7
BRANCH   1  14
ATOM     12  C   UNL     1      47.904   3.132  15.929  0.00  0.00    +0.000 C 
ATOM     13  C   UNL     1      47.280   4.081  14.919  0.00  0.00    +0.000 C 
ATOM     14  C   UNL     1      46.743   4.895  14.053  0.00  0.00    +0.000 C 
ENDBRANCH   1  14
BRANCH   6  15
ATOM     15  N   UNL     1      44.706   4.216  11.881  0.00  0.00    +0.000 N 
ATOM     16  H   UNL     1      45.455   3.541  12.023  0.00  0.00    +0.000 HD
BRANCH  15  17
ATOM     17  C   UNL     1      44.019   4.057  10.570  0.00  0.00    +0.000 C 
BRANCH  17  18
ATOM     18  C   UNL     1      44.204   2.676   9.927  0.00  0.00    +0.000 C 
BRANCH  18  19
ATOM     19  C   UNL     1      45.281   2.698   8.851  0.00  0.00    +0.000 A 
ATOM     20  C   UNL     1      45.639   3.901   8.225  0.00  0.00    +0.000 A 
ATOM     21  C   UNL     1      46.633   3.928   7.240  0.00  0.00    +0.000 A 
ATOM     22  C   UNL     1      47.279   2.754   6.863  0.00  0.00    +0.000 A 
ATOM     23  C   UNL     1      46.919   1.548   7.459  0.00  0.00    +0.000 A 
ATOM     24  C   UNL     1      45.922   1.517   8.440  0.00  0.00    +0.000 A 
ENDBRANCH  18  19
ENDBRANCH  17  18
ENDBRANCH  15  17
ENDBRANCH   6  15
TORSDOF 6
ENDMDL
MODEL 3
REMARK VINA RESULT:    -6.903      2.311      3.671
REMARK INTER + INTRA:         -10.029
REMARK INTER:                  -9.036
REMARK INTRA:                  -0.993
REMARK UNBOUND:                -0.704
REMARK  Name = 
REMARK  7 active torsions:
REMARK  status: ('A' for Active; 'I' for Inactive)
REMARK    1  A    between atoms: C_1  and  C_2
REMARK    2  A    between atoms: C_3  and  C_4
REMARK    3  A    between atoms: C_7  and  C_8
REMARK    4  A    between atoms: C_12  and  N_13
REMARK    5  A    between atoms: N_13  and  C_14
REMARK    6  A    between atoms: C_14  and  C_15
REMARK    7  A    between atoms: C_15  and  C_16
REMARK                            x       y       z     vdW  Elec       q    Type
REMARK                         _______ _______ _______ _____ _____    ______ ____
ROOT
ATOM      1  C   UNL     1      46.071   4.882  12.519  0.00  0.00    +0.000 A 
ATOM      2  C   UNL     1      46.916   4.781  13.629  0.00  0.00    +0.000 A 
ATOM      3  N   UNL     1      47.862   5.686  13.985  0.00  0.00    +0.000 NA
ATOM      4  C   UNL     1      47.947   6.778  13.186  0.00  0.00    +0.000 A 
ATOM      5  C   UNL     1      47.173   6.966  12.051  0.00  0.00    +0.000 A 
ATOM      6  C   UNL     1      46.246   5.989  11.648  0.00  0.00    +0.000 A 
ENDROOT
BRANCH   4   7
ATOM      7  C   UNL     1      48.928   7.843  13.571  0.00  0.00    +0.000 C 
ATOM      8  N   UNL     1      50.220   7.423  13.736  0.00  0.00    +0.000 N 
ATOM      9  O   UNL     1      48.610   9.013  13.736  0.00  0.00    +0.000 OA
ATOM     10  H   UNL     1      50.451   6.448  13.614  0.00  0.00    +0.000 HD
ATOM     11  H   UNL     1      50.918   8.092  14.031  0.00  0.00    +0.000 HD
ENDBRANCH   4   7
BRANCH   1  14
ATOM     12  C   UNL     1      43.171   1.829  11.836  0.00  0.00    +0.000 C 
ATOM     13  C   UNL     1      44.197   2.914  12.120  0.00  0.00    +0.000 C 
ATOM     14  C   UNL     1      45.078   3.844  12.363  0.00  0.00    +0.000 C 
ENDBRANCH   1  14
BRANCH   6  15
ATOM     15  N   UNL     1      45.457   6.218  10.480  0.00  0.00    +0.000 N 
ATOM     16  H   UNL     1      44.468   6.070  10.674  0.00  0.00    +0.000 HD
BRANCH  15  17
ATOM     17  C   UNL     1      45.923   5.513   9.254  0.00  0.00    +0.000 C 
BRANCH  17  18
ATOM     18  C   UNL     1      45.004   4.371   8.799  0.00  0.00    +0.000 C 
BRANCH  18  19
ATOM     19  C   UNL     1      45.783   3.276   8.082  0.00  0.00    +0.000 A 
ATOM     20  C   UNL     1      45.770   1.959   8.564  0.00  0.00    +0.000 A 
ATOM     21  C   UNL     1      46.478   0.947   7.906  0.00  0.00    +0.000 A 
ATOM     22  C   UNL     1      47.213   1.238   6.760  0.00  0.00    +0.000 A 
ATOM     23  C   UNL     1      47.255   2.545   6.282  0.00  0.00    +0.000 A 
ATOM     24  C   UNL     1      46.552   3.560   6.941  0.00  0.00    +0.000 A 
ENDBRANCH  18  19
ENDBRANCH  17  18
ENDBRANCH  15  17
ENDBRANCH   6  15
TORSDOF 6
ENDMDL
MODEL 4
REMARK VINA RESULT:    -6.741      2.342      2.808
REMARK INTER + INTRA:          -9.810
REMARK INTER:                  -9.231
REMARK INTRA:                  -0.579
REMARK UNBOUND:                -0.704
REMARK  Name = 
REMARK  7 active torsions:
REMARK  status: ('A' for Active; 'I' for Inactive)
REMARK    1  A    between atoms: C_1  and  C_2
REMARK    2  A    between atoms: C_3  and  C_4
REMARK    3  A    between atoms: C_7  and  C_8
REMARK    4  A    between atoms: C_12  and  N_13
REMARK    5  A    between atoms: N_13  and  C_14
REMARK    6  A    between atoms: C_14  and  C_15
REMARK    7  A    between atoms: C_15  and  C_16
REMARK                            x       y       z     vdW  Elec       q    Type
REMARK                         _______ _______ _______ _____ _____    ______ ____
ROOT
ATOM      1  C   UNL     1      47.733   6.926  13.440  0.00  0.00    +0.000 A 
ATOM      2  C   UNL     1      48.442   6.832  14.643  0.00  0.00    +0.000 A 
ATOM      3  N   UNL     1      48.419   5.772  15.489  0.00  0.00    +0.000 NA
ATOM      4  C   UNL     1      47.653   4.728  15.089  0.00  0.00    +0.000 A 
ATOM      5  C   UNL     1      46.895   4.726  13.928  0.00  0.00    +0.000 A 
ATOM      6  C   UNL     1      46.866   5.856  13.091  0.00  0.00    +0.000 A 
ENDROOT
BRANCH   4   7
ATOM      7  C   UNL     1      47.645   3.503  15.952  0.00  0.00    +0.000 C 
ATOM      8  N   UNL     1      46.848   3.570  17.063  0.00  0.00    +0.000 N 
ATOM      9  O   UNL     1      48.306   2.505  15.699  0.00  0.00    +0.000 OA
ATOM     10  H   UNL     1      46.330   4.414  17.259  0.00  0.00    +0.000 HD
ATOM     11  H   UNL     1      46.832   2.787  17.702  0.00  0.00    +0.000 HD
ENDBRANCH   4   7
BRANCH   1  14
ATOM     12  C   UNL     1      48.372  10.550  11.283  0.00  0.00    +0.000 C 
ATOM     13  C   UNL     1      48.149   9.238  12.017  0.00  0.00    +0.000 C 
ATOM     14  C   UNL     1      47.957   8.112  12.646  0.00  0.00    +0.000 C 
ENDBRANCH   1  14
BRANCH   6  15
ATOM     15  N   UNL     1      46.084   5.819  11.898  0.00  0.00    +0.000 N 
ATOM     16  H   UNL     1      45.654   6.724  11.717  0.00  0.00    +0.000 HD
BRANCH  15  17
ATOM     17  C   UNL     1      45.120   4.688  11.809  0.00  0.00    +0.000 C 
BRANCH  17  18
ATOM     18  C   UNL     1      44.338   4.631  10.490  0.00  0.00    +0.000 C 
BRANCH  18  19
ATOM     19  C   UNL     1      45.077   3.822   9.433  0.00  0.00    +0.000 A 
ATOM     20  C   UNL     1      45.745   4.464   8.381  0.00  0.00    +0.000 A 
ATOM     21  C   UNL     1      46.432   3.726   7.410  0.00  0.00    +0.000 A 
ATOM     22  C   UNL     1      46.456   2.335   7.474  0.00  0.00    +0.000 A 
ATOM     23  C   UNL     1      45.779   1.681   8.500  0.00  0.00    +0.000 A 
ATOM     24  C   UNL     1      45.086   2.417   9.469  0.00  0.00    +0.000 A 
ENDBRANCH  18  19
ENDBRANCH  17  18
ENDBRANCH  15  17
ENDBRANCH   6  15
TORSDOF 6
ENDMDL
MODEL 5
REMARK VINA RESULT:    -6.600      3.364      6.195
REMARK INTER + INTRA:          -9.620
REMARK INTER:                  -7.741
REMARK INTRA:                  -1.879
REMARK UNBOUND:                -0.704
REMARK  Name = 
REMARK  7 active torsions:
REMARK  status: ('A' for Active; 'I' for Inactive)
REMARK    1  A    between atoms: C_1  and  C_2
REMARK    2  A    between atoms: C_3  and  C_4
REMARK    3  A    between atoms: C_7  and  C_8
REMARK    4  A    between atoms: C_12  and  N_13
REMARK    5  A    between atoms: N_13  and  C_14
REMARK    6  A    between atoms: C_14  and  C_15
REMARK    7  A    between atoms: C_15  and  C_16
REMARK                            x       y       z     vdW  Elec       q    Type
REMARK                         _______ _______ _______ _____ _____    ______ ____
ROOT
ATOM      1  C   UNL     1      46.555   5.241  13.673  0.00  0.00    +0.000 A 
ATOM      2  C   UNL     1      46.704   3.855  13.556  0.00  0.00    +0.000 A 
ATOM      3  N   UNL     1      45.895   3.033  12.843  0.00  0.00    +0.000 NA
ATOM      4  C   UNL     1      44.882   3.646  12.184  0.00  0.00    +0.000 A 
ATOM      5  C   UNL     1      44.632   5.009  12.249  0.00  0.00    +0.000 A 
ATOM      6  C   UNL     1      45.431   5.845  13.048  0.00  0.00    +0.000 A 
ENDROOT
BRANCH   4   7
ATOM      7  C   UNL     1      43.998   2.795  11.325  0.00  0.00    +0.000 C 
ATOM      8  N   UNL     1      44.514   2.452  10.105  0.00  0.00    +0.000 N 
ATOM      9  O   UNL     1      42.885   2.427  11.675  0.00  0.00    +0.000 OA
ATOM     10  H   UNL     1      45.427   2.787   9.833  0.00  0.00    +0.000 HD
ATOM     11  H   UNL     1      43.947   1.909   9.468  0.00  0.00    +0.000 HD
ENDBRANCH   4   7
BRANCH   1  14
ATOM     12  C   UNL     1      49.669   7.352  15.683  0.00  0.00    +0.000 C 
ATOM     13  C   UNL     1      48.541   6.594  15.003  0.00  0.00    +0.000 C 
ATOM     14  C   UNL     1      47.573   5.943  14.419  0.00  0.00    +0.000 C 
ENDBRANCH   1  14
BRANCH   6  15
ATOM     15  N   UNL     1      45.153   7.245  13.086  0.00  0.00    +0.000 N 
ATOM     16  H   UNL     1      44.181   7.416  13.339  0.00  0.00    +0.000 HD
BRANCH  15  17
ATOM     17  C   UNL     1      45.585   8.008  11.883  0.00  0.00    +0.000 C 
BRANCH  17  18
ATOM     18  C   UNL     1      46.392   9.275  12.199  0.00  0.00    +0.000 C 
BRANCH  18  19
ATOM     19  C   UNL     1      47.890   9.001  12.195  0.00  0.00    +0.000 A 
ATOM     20  C   UNL     1      48.775   9.869  12.851  0.00  0.00    +0.000 A 
ATOM     21  C   UNL     1      50.152   9.619  12.857  0.00  0.00    +0.000 A 
ATOM     22  C   UNL     1      50.665   8.502  12.203  0.00  0.00    +0.000 A 
ATOM     23  C   UNL     1      49.802   7.642  11.529  0.00  0.00    +0.000 A 
ATOM     24  C   UNL     1      48.425   7.893  11.517  0.00  0.00    +0.000 A 
ENDBRANCH  18  19
ENDBRANCH  17  18
ENDBRANCH  15  17
ENDBRANCH   6  15
TORSDOF 6
ENDMDL
MODEL 6
REMARK VINA RESULT:    -6.352      1.654      2.201
REMARK INTER + INTRA:          -9.284
REMARK INTER:                  -8.729
REMARK INTRA:                  -0.555
REMARK UNBOUND:                -0.704
REMARK  Name = 
REMARK  7 active torsions:
REMARK  status: ('A' for Active; 'I' for Inactive)
REMARK    1  A    between atoms: C_1  and  C_2
REMARK    2  A    between atoms: C_3  and  C_4
REMARK    3  A    between atoms: C_7  and  C_8
REMARK    4  A    between atoms: C_12  and  N_13
REMARK    5  A    between atoms: N_13  and  C_14
REMARK    6  A    between atoms: C_14  and  C_15
REMARK    7  A    between atoms: C_15  and  C_16
REMARK                            x       y       z     vdW  Elec       q    Type
REMARK                         _______ _______ _______ _____ _____    ______ ____
ROOT
ATOM      1  C   UNL     1      45.114   8.732  11.881  0.00  0.00    +0.000 A 
ATOM      2  C   UNL     1      46.118   9.471  12.517  0.00  0.00    +0.000 A 
ATOM      3  N   UNL     1      47.106   8.956  13.290  0.00  0.00    +0.000 NA
ATOM      4  C   UNL     1      47.100   7.606  13.413  0.00  0.00    +0.000 A 
ATOM      5  C   UNL     1      46.140   6.783  12.844  0.00  0.00    +0.000 A 
ATOM      6  C   UNL     1      45.077   7.330  12.104  0.00  0.00    +0.000 A 
ENDROOT
BRANCH   4   7
ATOM      7  C   UNL     1      48.209   6.977  14.200  0.00  0.00    +0.000 C 
ATOM      8  N   UNL     1      48.354   7.431  15.482  0.00  0.00    +0.000 N 
ATOM      9  O   UNL     1      48.949   6.118  13.739  0.00  0.00    +0.000 OA
ATOM     10  H   UNL     1      47.743   8.156  15.831  0.00  0.00    +0.000 HD
ATOM     11  H   UNL     1      49.109   7.069  16.048  0.00  0.00    +0.000 HD
ENDBRANCH   4   7
BRANCH   1  14
ATOM     12  C   UNL     1      42.509  10.806   9.216  0.00  0.00    +0.000 C 
ATOM     13  C   UNL     1      43.419  10.086  10.197  0.00  0.00    +0.000 C 
ATOM     14  C   UNL     1      44.201   9.469  11.039  0.00  0.00    +0.000 C 
ENDBRANCH   1  14
BRANCH   6  15
ATOM     15  N   UNL     1      44.111   6.454  11.523  0.00  0.00    +0.000 N 
ATOM     16  H   UNL     1      43.272   6.406  12.098  0.00  0.00    +0.000 HD
BRANCH  15  17
ATOM     17  C   UNL     1      44.627   5.114  11.130  0.00  0.00    +0.000 C 
BRANCH  17  18
ATOM     18  C   UNL     1      43.927   4.505   9.908  0.00  0.00    +0.000 C 
BRANCH  18  19
ATOM     19  C   UNL     1      44.897   3.714   9.042  0.00  0.00    +0.000 A 
ATOM     20  C   UNL     1      45.024   2.326   9.196  0.00  0.00    +0.000 A 
ATOM     21  C   UNL     1      45.910   1.593   8.398  0.00  0.00    +0.000 A 
ATOM     22  C   UNL     1      46.685   2.237   7.438  0.00  0.00    +0.000 A 
ATOM     23  C   UNL     1      46.588   3.618   7.287  0.00  0.00    +0.000 A 
ATOM     24  C   UNL     1      45.707   4.354   8.087  0.00  0.00    +0.000 A 
ENDBRANCH  18  19
ENDBRANCH  17  18
ENDBRANCH  15  17
ENDBRANCH   6  15
TORSDOF 6
ENDMDL
MODEL 7
REMARK VINA RESULT:    -6.312      4.120      7.398
REMARK INTER + INTRA:          -9.231
REMARK INTER:                  -8.571
REMARK INTRA:                  -0.660
REMARK UNBOUND:                -0.704
REMARK  Name = 
REMARK  7 active torsions:
REMARK  status: ('A' for Active; 'I' for Inactive)
REMARK    1  A    between atoms: C_1  and  C_2
REMARK    2  A    between atoms: C_3  and  C_4
REMARK    3  A    between atoms: C_7  and  C_8
REMARK    4  A    between atoms: C_12  and  N_13
REMARK    5  A    between atoms: N_13  and  C_14
REMARK    6  A    between atoms: C_14  and  C_15
REMARK    7  A    between atoms: C_15  and  C_16
REMARK                            x       y       z     vdW  Elec       q    Type
REMARK                         _______ _______ _______ _____ _____    ______ ____
ROOT
ATOM      1  C   UNL     1      46.847   6.035  13.422  0.00  0.00    +0.000 A 
ATOM      2  C   UNL     1      46.159   6.856  12.521  0.00  0.00    +0.000 A 
ATOM      3  N   UNL     1      44.977   6.557  11.928  0.00  0.00    +0.000 NA
ATOM      4  C   UNL     1      44.436   5.365  12.283  0.00  0.00    +0.000 A 
ATOM      5  C   UNL     1      45.044   4.469  13.149  0.00  0.00    +0.000 A 
ATOM      6  C   UNL     1      46.304   4.753  13.703  0.00  0.00    +0.000 A 
ENDROOT
BRANCH   4   7
ATOM      7  C   UNL     1      43.096   5.015  11.711  0.00  0.00    +0.000 C 
ATOM      8  N   UNL     1      42.142   5.991  11.803  0.00  0.00    +0.000 N 
ATOM      9  O   UNL     1      42.855   3.930  11.198  0.00  0.00    +0.000 OA
ATOM     10  H   UNL     1      42.363   6.869  12.250  0.00  0.00    +0.000 HD
ATOM     11  H   UNL     1      41.209   5.797  11.467  0.00  0.00    +0.000 HD
ENDBRANCH   4   7
BRANCH   1  14
ATOM     12  C   UNL     1      50.516   7.433  15.090  0.00  0.00    +0.000 C 
ATOM     13  C   UNL     1      49.192   6.972  14.503  0.00  0.00    +0.000 C 
ATOM     14  C   UNL     1      48.056   6.576  13.999  0.00  0.00    +0.000 C 
ENDBRANCH   1  14
BRANCH   6  15
ATOM     15  N   UNL     1      46.899   3.814  14.599  0.00  0.00    +0.000 N 
ATOM     16  H   UNL     1      46.447   2.904  14.524  0.00  0.00    +0.000 HD
BRANCH  15  17
ATOM     17  C   UNL     1      47.036   4.282  16.005  0.00  0.00    +0.000 C 
BRANCH  17  18
ATOM     18  C   UNL     1      47.515   3.201  16.984  0.00  0.00    +0.000 C 
BRANCH  18  19
ATOM     19  C   UNL     1      49.016   3.288  17.226  0.00  0.00    +0.000 A 
ATOM     20  C   UNL     1      49.622   4.519  17.514  0.00  0.00    +0.000 A 
ATOM     21  C   UNL     1      51.000   4.605  17.744  0.00  0.00    +0.000 A 
ATOM     22  C   UNL     1      51.792   3.461  17.685  0.00  0.00    +0.000 A 
ATOM     23  C   UNL     1      51.210   2.235  17.378  0.00  0.00    +0.000 A 
ATOM     24  C   UNL     1      49.833   2.147  17.142  0.00  0.00    +0.000 A 
ENDBRANCH  18  19
ENDBRANCH  17  18
ENDBRANCH  15  17
ENDBRANCH   6  15
TORSDOF 6
ENDMDL
MODEL 8
REMARK VINA RESULT:    -5.756      3.499      6.396
REMARK INTER + INTRA:          -8.480
REMARK INTER:                  -7.755
REMARK INTRA:                  -0.725
REMARK UNBOUND:                -0.704
REMARK  Name = 
REMARK  7 active torsions:
REMARK  status: ('A' for Active; 'I' for Inactive)
REMARK    1  A    between atoms: C_1  and  C_2
REMARK    2  A    between atoms: C_3  and  C_4
REMARK    3  A    between atoms: C_7  and  C_8
REMARK    4  A    between atoms: C_12  and  N_13
REMARK    5  A    between atoms: N_13  and  C_14
REMARK    6  A    between atoms: C_14  and  C_15
REMARK    7  A    between atoms: C_15  and  C_16
REMARK                            x       y       z     vdW  Elec       q    Type
REMARK                         _______ _______ _______ _____ _____    ______ ____
ROOT
ATOM      1  C   UNL     1      45.368   7.685  12.103  0.00  0.00    +0.000 A 
ATOM      2  C   UNL     1      44.443   7.008  11.300  0.00  0.00    +0.000 A 
ATOM      3  N   UNL     1      44.197   5.675  11.336  0.00  0.00    +0.000 NA
ATOM      4  C   UNL     1      44.908   4.979  12.256  0.00  0.00    +0.000 A 
ATOM      5  C   UNL     1      45.864   5.547  13.084  0.00  0.00    +0.000 A 
ATOM      6  C   UNL     1      46.167   6.917  12.992  0.00  0.00    +0.000 A 
ENDROOT
BRANCH   4   7
ATOM      7  C   UNL     1      44.626   3.513  12.386  0.00  0.00    +0.000 C 
ATOM      8  N   UNL     1      45.683   2.743  12.788  0.00  0.00    +0.000 N 
ATOM      9  O   UNL     1      43.531   3.022  12.147  0.00  0.00    +0.000 OA
ATOM     10  H   UNL     1      46.582   3.171  12.958  0.00  0.00    +0.000 HD
ATOM     11  H   UNL     1      45.561   1.742  12.858  0.00  0.00    +0.000 HD
ENDBRANCH   4   7
BRANCH   1  14
ATOM     12  C   UNL     1      45.303  11.931  11.700  0.00  0.00    +0.000 C 
ATOM     13  C   UNL     1      45.367  10.419  11.840  0.00  0.00    +0.000 C 
ATOM     14  C   UNL     1      45.422   9.122  11.960  0.00  0.00    +0.000 C 
ENDBRANCH   1  14
BRANCH   6  15
ATOM     15  N   UNL     1      47.148   7.474  13.866  0.00  0.00    +0.000 N 
ATOM     16  H   UNL     1      47.498   8.359  13.503  0.00  0.00    +0.000 HD
BRANCH  15  17
ATOM     17  C   UNL     1      48.234   6.541  14.273  0.00  0.00    +0.000 C 
BRANCH  17  18
ATOM     18  C   UNL     1      48.727   6.739  15.713  0.00  0.00    +0.000 C 
BRANCH  18  19
ATOM     19  C   UNL     1      48.537   5.482  16.549  0.00  0.00    +0.000 A 
ATOM     20  C   UNL     1      49.290   5.279  17.715  0.00  0.00    +0.000 A 
ATOM     21  C   UNL     1      49.115   4.128  18.492  0.00  0.00    +0.000 A 
ATOM     22  C   UNL     1      48.189   3.161  18.112  0.00  0.00    +0.000 A 
ATOM     23  C   UNL     1      47.450   3.335  16.945  0.00  0.00    +0.000 A 
ATOM     24  C   UNL     1      47.626   4.483  16.164  0.00  0.00    +0.000 A 
ENDBRANCH  18  19
ENDBRANCH  17  18
ENDBRANCH  15  17
ENDBRANCH   6  15
TORSDOF 6
ENDMDL
MODEL 9
REMARK VINA RESULT:    -5.664      3.113      6.918
REMARK INTER + INTRA:          -8.356
REMARK INTER:                  -6.682
REMARK INTRA:                  -1.674
REMARK UNBOUND:                -0.704
REMARK  Name = 
REMARK  7 active torsions:
REMARK  status: ('A' for Active; 'I' for Inactive)
REMARK    1  A    between atoms: C_1  and  C_2
REMARK    2  A    between atoms: C_3  and  C_4
REMARK    3  A    between atoms: C_7  and  C_8
REMARK    4  A    between atoms: C_12  and  N_13
REMARK    5  A    between atoms: N_13  and  C_14
REMARK    6  A    between atoms: C_14  and  C_15
REMARK    7  A    between atoms: C_15  and  C_16
REMARK                            x       y       z     vdW  Elec       q    Type
REMARK                         _______ _______ _______ _____ _____    ______ ____
ROOT
ATOM      1  C   UNL     1      46.464   5.011  13.640  0.00  0.00    +0.000 A 
ATOM      2  C   UNL     1      46.362   3.667  13.264  0.00  0.00    +0.000 A 
ATOM      3  N   UNL     1      45.605   3.189  12.245  0.00  0.00    +0.000 NA
ATOM      4  C   UNL     1      44.925   4.126  11.540  0.00  0.00    +0.000 A 
ATOM      5  C   UNL     1      44.939   5.480  11.841  0.00  0.00    +0.000 A 
ATOM      6  C   UNL     1      45.668   5.959  12.944  0.00  0.00    +0.000 A 
ENDROOT
BRANCH   4   7
ATOM      7  C   UNL     1      44.128   3.662  10.360  0.00  0.00    +0.000 C 
ATOM      8  N   UNL     1      43.859   4.616   9.417  0.00  0.00    +0.000 N 
ATOM      9  O   UNL     1      43.731   2.511  10.236  0.00  0.00    +0.000 OA
ATOM     10  H   UNL     1      44.181   5.564   9.555  0.00  0.00    +0.000 HD
ATOM     11  H   UNL     1      43.293   4.369   8.617  0.00  0.00    +0.000 HD
ENDBRANCH   4   7
BRANCH   1  14
ATOM     12  C   UNL     1      49.016   5.988  16.915  0.00  0.00    +0.000 C 
ATOM     13  C   UNL     1      48.139   5.627  15.727  0.00  0.00    +0.000 C 
ATOM     14  C   UNL     1      47.387   5.318  14.708  0.00  0.00    +0.000 C 
ENDBRANCH   1  14
BRANCH   6  15
ATOM     15  N   UNL     1      45.669   7.360  13.221  0.00  0.00    +0.000 N 
ATOM     16  H   UNL     1      44.736   7.682  13.472  0.00  0.00    +0.000 HD
BRANCH  15  17
ATOM     17  C   UNL     1      46.320   8.208  12.185  0.00  0.00    +0.000 C 
BRANCH  17  18
ATOM     18  C   UNL     1      47.796   7.871  11.933  0.00  0.00    +0.000 C 
BRANCH  18  19
ATOM     19  C   UNL     1      48.674   8.283  13.107  0.00  0.00    +0.000 A 
ATOM     20  C   UNL     1      49.953   7.731  13.270  0.00  0.00    +0.000 A 
ATOM     21  C   UNL     1      50.767   8.111  14.343  0.00  0.00    +0.000 A 
ATOM     22  C   UNL     1      50.313   9.044  15.271  0.00  0.00    +0.000 A 
ATOM     23  C   UNL     1      49.038   9.585  15.136  0.00  0.00    +0.000 A 
ATOM     24  C   UNL     1      48.219   9.203  14.067  0.00  0.00    +0.000 A 
ENDBRANCH  18  19
ENDBRANCH  17  18
ENDBRANCH  15  17
ENDBRANCH   6  15
TORSDOF 6
ENDMDL
