MODEL 1
REMARK VINA RESULT:    -8.833      0.000      0.000
REMARK INTER + INTRA:         -12.680
REMARK INTER:                 -11.931
REMARK INTRA:                  -0.748
REMARK UNBOUND:                -0.748
REMARK  Name = 
REMARK  7 active torsions:
REMARK  status: ('A' for Active; 'I' for Inactive)
REMARK    1  A    between atoms: C_1  and  C_2
REMARK    2  A    between atoms: C_2  and  O_3
REMARK    3  A    between atoms: C_2  and  C_13
REMARK    4  A    between atoms: O_3  and  C_4
REMARK    5  A    between atoms: C_7  and  C_8
REMARK    6  A    between atoms: C_18  and  O_19
REMARK    7  A    between atoms: O_19  and  C_20
REMARK                            x       y       z     vdW  Elec       q    Type
REMARK                         _______ _______ _______ _____ _____    ______ ____
ROOT
ATOM      1  C   UNL     1      42.563   5.029  12.026  0.00  0.00    +0.000 C 
ATOM      2  C   UNL     1      43.828   4.696  11.295  0.00  0.00    +0.000 C 
ENDROOT
BRANCH   2   3
ATOM      3  C   UNL     1      45.110   5.064  11.923  0.00  0.00    +0.000 A 
ATOM      4  C   UNL     1      45.804   6.212  11.527  0.00  0.00    +0.000 A 
ATOM      5  C   UNL     1      46.992   6.559  12.161  0.00  0.00    +0.000 A 
ATOM      6  F   UNL     1      47.635   7.672  11.784  0.00  0.00    +0.000 F 
ATOM      7  C   UNL     1      47.512   5.784  13.188  0.00  0.00    +0.000 A 
ATOM      8  C   UNL     1      46.831   4.639  13.595  0.00  0.00    +0.000 A 
ATOM      9  C   UNL     1      45.647   4.269  12.951  0.00  0.00    +0.000 A 
BRANCH   8  10
ATOM     10  O   UNL     1      47.414   3.931  14.618  0.00  0.00    +0.000 OA
BRANCH  10  11
ATOM     11  C   UNL     1      47.277   4.436  15.968  0.00  0.00    +0.000 C 
ATOM     12  C   UNL     1      48.530   4.990  16.662  0.00  0.00    +0.000 C 
ATOM     13  O   UNL     1      48.379   4.080  17.776  0.00  0.00    +0.000 OA
ATOM     14  C   UNL     1      47.321   3.380  17.080  0.00  0.00    +0.000 C 
ENDBRANCH  10  11
ENDBRANCH   8  10
ENDBRANCH   2   3
BRANCH   2  15
ATOM     15  O   UNL     1      43.782   4.783   9.912  0.00  0.00    +0.000 OA
BRANCH  15  16
ATOM     16  C   UNL     1      44.691   4.028   9.179  0.00  0.00    +0.000 A 
ATOM     17  C   UNL     1      44.684   2.663   9.436  0.00  0.00    +0.000 A 
ATOM     18  C   UNL     1      45.558   1.843   8.723  0.00  0.00    +0.000 A 
ATOM     19  C   UNL     1      46.414   2.401   7.768  0.00  0.00    +0.000 A 
ATOM     20  C   UNL     1      46.334   3.777   7.577  0.00  0.00    +0.000 A 
ATOM     21  N   UNL     1      45.497   4.606   8.261  0.00  0.00    +0.000 NA
BRANCH  19  22
ATOM     22  C   UNL     1      47.346   1.504   7.032  0.00  0.00    +0.000 C 
ATOM     23  N   UNL     1      48.479   2.030   6.480  0.00  0.00    +0.000 N 
ATOM     24  O   UNL     1      47.110   0.308   6.920  0.00  0.00    +0.000 OA
ATOM     25  H   UNL     1      48.764   2.995   6.506  0.00  0.00    +0.000 HD
ATOM     26  H   UNL     1      49.082   1.378   5.995  0.00  0.00    +0.000 HD
ENDBRANCH  19  22
ENDBRANCH  15  16
ENDBRANCH   2  15
TORSDOF 6
ENDMDL
MODEL 2
REMARK VINA RESULT:    -8.106      2.256      3.423
REMARK INTER + INTRA:         -11.697
REMARK INTER:                 -10.807
REMARK INTRA:                  -0.890
REMARK UNBOUND:                -0.748
REMARK  Name = 
REMARK  7 active torsions:
REMARK  status: ('A' for Active; 'I' for Inactive)
REMARK    1  A    between atoms: C_1  and  C_2
REMARK    2  A    between atoms: C_2  and  O_3
REMARK    3  A    between atoms: C_2  and  C_13
REMARK    4  A    between atoms: O_3  and  C_4
REMARK    5  A    between atoms: C_7  and  C_8
REMARK    6  A    between atoms: C_18  and  O_19
REMARK    7  A    between atoms: O_19  and  C_20
REMARK                            x       y       z     vdW  Elec       q    Type
REMARK                         _______ _______ _______ _____ _____    ______ ____
ROOT
ATOM      1  C   UNL     1      42.442   5.106  11.834  0.00  0.00    +0.000 C 
ATOM      2  C   UNL     1      43.792   4.792  11.262  0.00  0.00    +0.000 C 
ENDROOT
BRANCH   2   3
ATOM      3  C   UNL     1      44.974   5.004  12.117  0.00  0.00    +0.000 A 
ATOM      4  C   UNL     1      45.584   3.934  12.782  0.00  0.00    +0.000 A 
ATOM      5  C   UNL     1      46.720   4.153  13.553  0.00  0.00    +0.000 A 
ATOM      6  F   UNL     1      47.304   3.116  14.167  0.00  0.00    +0.000 F 
ATOM      7  C   UNL     1      47.270   5.421  13.681  0.00  0.00    +0.000 A 
ATOM      8  C   UNL     1      46.675   6.495  13.023  0.00  0.00    +0.000 A 
ATOM      9  C   UNL     1      45.520   6.292  12.263  0.00  0.00    +0.000 A 
BRANCH   8  10
ATOM     10  O   UNL     1      47.284   7.714  13.202  0.00  0.00    +0.000 OA
BRANCH  10  11
ATOM     11  C   UNL     1      47.592   8.507  12.030  0.00  0.00    +0.000 C 
ATOM     12  C   UNL     1      49.062   8.853  11.759  0.00  0.00    +0.000 C 
ATOM     13  O   UNL     1      48.779  10.271  11.734  0.00  0.00    +0.000 OA
ATOM     14  C   UNL     1      47.429  10.024  12.193  0.00  0.00    +0.000 C 
ENDBRANCH  10  11
ENDBRANCH   8  10
ENDBRANCH   2   3
BRANCH   2  15
ATOM     15  O   UNL     1      43.964   5.052   9.911  0.00  0.00    +0.000 OA
BRANCH  15  16
ATOM     16  C   UNL     1      44.817   4.222   9.191  0.00  0.00    +0.000 A 
ATOM     17  C   UNL     1      44.667   2.861   9.422  0.00  0.00    +0.000 A 
ATOM     18  C   UNL     1      45.478   1.970   8.718  0.00  0.00    +0.000 A 
ATOM     19  C   UNL     1      46.413   2.456   7.798  0.00  0.00    +0.000 A 
ATOM     20  C   UNL     1      46.475   3.835   7.631  0.00  0.00    +0.000 A 
ATOM     21  N   UNL     1      45.703   4.733   8.307  0.00  0.00    +0.000 NA
BRANCH  19  22
ATOM     22  C   UNL     1      47.273   1.483   7.072  0.00  0.00    +0.000 C 
ATOM     23  N   UNL     1      48.343   1.944   6.359  0.00  0.00    +0.000 N 
ATOM     24  O   UNL     1      47.036   0.282   7.111  0.00  0.00    +0.000 OA
ATOM     25  H   UNL     1      48.623   2.905   6.256  0.00  0.00    +0.000 HD
ATOM     26  H   UNL     1      48.900   1.242   5.888  0.00  0.00    +0.000 HD
ENDBRANCH  19  22
ENDBRANCH  15  16
ENDBRANCH   2  15
TORSDOF 6
ENDMDL
MODEL 3
REMARK VINA RESULT:    -7.825      2.532      4.078
REMARK INTER + INTRA:         -11.318
REMARK INTER:                 -10.535
REMARK INTRA:                  -0.783
REMARK UNBOUND:                -0.748
REMARK  Name = 
REMARK  7 active torsions:
REMARK  status: ('A' for Active; 'I' for Inactive)
REMARK    1  A    between atoms: C_1  and  C_2
REMARK    2  A    between atoms: C_2  and  O_3
REMARK    3  A    between atoms: C_2  and  C_13
REMARK    4  A    between atoms: O_3  and  C_4
REMARK    5  A    between atoms: C_7  and  C_8
REMARK    6  A    between atoms: C_18  and  O_19
REMARK    7  A    between atoms: O_19  and  C_20
REMARK                            x       y       z     vdW  Elec       q    Type
REMARK                         _______ _______ _______ _____ _____    ______ ____
ROOT
ATOM      1  C   UNL     1      43.401   3.244  12.474  0.00  0.00    +0.000 C 
ATOM      2  C   UNL     1      44.433   3.900  11.605  0.00  0.00    +0.000 C 
ENDROOT
BRANCH   2   3
ATOM      3  C   UNL     1      45.305   4.919  12.214  0.00  0.00    +0.000 A 
ATOM      4  C   UNL     1      46.163   4.596  13.271  0.00  0.00    +0.000 A 
ATOM      5  C   UNL     1      47.005   5.566  13.804  0.00  0.00    +0.000 A 
ATOM      6  F   UNL     1      47.834   5.237  14.803  0.00  0.00    +0.000 F 
ATOM      7  C   UNL     1      47.014   6.862  13.308  0.00  0.00    +0.000 A 
ATOM      8  C   UNL     1      46.168   7.199  12.254  0.00  0.00    +0.000 A 
ATOM      9  C   UNL     1      45.302   6.238  11.724  0.00  0.00    +0.000 A 
BRANCH   8  10
ATOM     10  O   UNL     1      46.241   8.501  11.823  0.00  0.00    +0.000 OA
BRANCH  10  11
ATOM     11  C   UNL     1      45.123   9.379  12.095  0.00  0.00    +0.000 C 
ATOM     12  C   UNL     1      44.048   9.537  11.011  0.00  0.00    +0.000 C 
ATOM     13  O   UNL     1      44.216  10.974  10.979  0.00  0.00    +0.000 OA
ATOM     14  C   UNL     1      45.374  10.872  11.841  0.00  0.00    +0.000 C 
ENDBRANCH  10  11
ENDBRANCH   8  10
ENDBRANCH   2   3
BRANCH   2  15
ATOM     15  O   UNL     1      44.078   4.114  10.282  0.00  0.00    +0.000 OA
BRANCH  15  16
ATOM     16  C   UNL     1      44.968   3.706   9.293  0.00  0.00    +0.000 A 
ATOM     17  C   UNL     1      45.152   2.334   9.180  0.00  0.00    +0.000 A 
ATOM     18  C   UNL     1      46.017   1.855   8.195  0.00  0.00    +0.000 A 
ATOM     19  C   UNL     1      46.672   2.753   7.347  0.00  0.00    +0.000 A 
ATOM     20  C   UNL     1      46.410   4.106   7.536  0.00  0.00    +0.000 A 
ATOM     21  N   UNL     1      45.576   4.607   8.490  0.00  0.00    +0.000 NA
BRANCH  19  22
ATOM     22  C   UNL     1      47.600   2.213   6.316  0.00  0.00    +0.000 C 
ATOM     23  N   UNL     1      47.818   2.933   5.176  0.00  0.00    +0.000 N 
ATOM     24  O   UNL     1      48.167   1.141   6.479  0.00  0.00    +0.000 OA
ATOM     25  H   UNL     1      47.401   3.818   4.938  0.00  0.00    +0.000 HD
ATOM     26  H   UNL     1      48.461   2.526   4.508  0.00  0.00    +0.000 HD
ENDBRANCH  19  22
ENDBRANCH  15  16
ENDBRANCH   2  15
TORSDOF 6
ENDMDL
MODEL 4
REMARK VINA RESULT:    -7.544      2.223      2.601
REMARK INTER + INTRA:         -10.939
REMARK INTER:                 -10.185
REMARK INTRA:                  -0.754
REMARK UNBOUND:                -0.748
REMARK  Name = 
REMARK  7 active torsions:
REMARK  status: ('A' for Active; 'I' for Inactive)
REMARK    1  A    between atoms: C_1  and  C_2
REMARK    2  A    between atoms: C_2  and  O_3
REMARK    3  A    between atoms: C_2  and  C_13
REMARK    4  A    between atoms: O_3  and  C_4
REMARK    5  A    between atoms: C_7  and  C_8
REMARK    6  A    between atoms: C_18  and  O_19
REMARK    7  A    between atoms: O_19  and  C_20
REMARK                            x       y       z     vdW  Elec       q    Type
REMARK                         _______ _______ _______ _____ _____    ______ ____
ROOT
ATOM      1  C   UNL     1      43.538   3.301  12.758  0.00  0.00    +0.000 C 
ATOM      2  C   UNL     1      44.320   3.860  11.607  0.00  0.00    +0.000 C 
ENDROOT
BRANCH   2   3
ATOM      3  C   UNL     1      44.962   5.175  11.780  0.00  0.00    +0.000 A 
ATOM      4  C   UNL     1      44.284   6.357  11.459  0.00  0.00    +0.000 A 
ATOM      5  C   UNL     1      44.897   7.588  11.666  0.00  0.00    +0.000 A 
ATOM      6  F   UNL     1      44.228   8.710  11.373  0.00  0.00    +0.000 F 
ATOM      7  C   UNL     1      46.180   7.673  12.188  0.00  0.00    +0.000 A 
ATOM      8  C   UNL     1      46.867   6.507  12.514  0.00  0.00    +0.000 A 
ATOM      9  C   UNL     1      46.269   5.263  12.290  0.00  0.00    +0.000 A 
BRANCH   8  10
ATOM     10  O   UNL     1      48.130   6.681  13.026  0.00  0.00    +0.000 OA
BRANCH  10  11
ATOM     11  C   UNL     1      48.280   7.475  14.228  0.00  0.00    +0.000 C 
ATOM     12  C   UNL     1      49.239   8.673  14.186  0.00  0.00    +0.000 C 
ATOM     13  O   UNL     1      50.000   8.171  15.309  0.00  0.00    +0.000 OA
ATOM     14  C   UNL     1      49.266   6.924  15.268  0.00  0.00    +0.000 C 
ENDBRANCH  10  11
ENDBRANCH   8  10
ENDBRANCH   2   3
BRANCH   2  15
ATOM     15  O   UNL     1      43.833   3.582  10.339  0.00  0.00    +0.000 OA
BRANCH  15  16
ATOM     16  C   UNL     1      44.746   3.211   9.357  0.00  0.00    +0.000 A 
ATOM     17  C   UNL     1      45.207   4.240   8.546  0.00  0.00    +0.000 A 
ATOM     18  C   UNL     1      46.139   3.942   7.552  0.00  0.00    +0.000 A 
ATOM     19  C   UNL     1      46.592   2.629   7.393  0.00  0.00    +0.000 A 
ATOM     20  C   UNL     1      46.077   1.674   8.264  0.00  0.00    +0.000 A 
ATOM     21  N   UNL     1      45.162   1.931   9.241  0.00  0.00    +0.000 NA
BRANCH  19  22
ATOM     22  C   UNL     1      47.576   2.338   6.315  0.00  0.00    +0.000 C 
ATOM     23  N   UNL     1      47.486   3.015   5.133  0.00  0.00    +0.000 N 
ATOM     24  O   UNL     1      48.460   1.506   6.478  0.00  0.00    +0.000 OA
ATOM     25  H   UNL     1      46.799   3.710   4.892  0.00  0.00    +0.000 HD
ATOM     26  H   UNL     1      48.182   2.785   4.433  0.00  0.00    +0.000 HD
ENDBRANCH  19  22
ENDBRANCH  15  16
ENDBRANCH   2  15
TORSDOF 6
ENDMDL
MODEL 5
REMARK VINA RESULT:    -7.240      3.175      7.405
REMARK INTER + INTRA:         -10.528
REMARK INTER:                 -10.229
REMARK INTRA:                  -0.299
REMARK UNBOUND:                -0.748
REMARK  Name = 
REMARK  7 active torsions:
REMARK  status: ('A' for Active; 'I' for Inactive)
REMARK    1  A    between atoms: C_1  and  C_2
REMARK    2  A    between atoms: C_2  and  O_3
REMARK    3  A    between atoms: C_2  and  C_13
REMARK    4  A    between atoms: O_3  and  C_4
REMARK    5  A    between atoms: C_7  and  C_8
REMARK    6  A    between atoms: C_18  and  O_19
REMARK    7  A    between atoms: O_19  and  C_20
REMARK                            x       y       z     vdW  Elec       q    Type
REMARK                         _______ _______ _______ _____ _____    ______ ____
ROOT
ATOM      1  C   UNL     1      45.294   7.562  12.447  0.00  0.00    +0.000 C 
ATOM      2  C   UNL     1      46.153   6.641  11.634  0.00  0.00    +0.000 C 
ENDROOT
BRANCH   2   3
ATOM      3  C   UNL     1      45.491   5.561  10.880  0.00  0.00    +0.000 A 
ATOM      4  C   UNL     1      44.461   4.808  11.454  0.00  0.00    +0.000 A 
ATOM      5  C   UNL     1      43.826   3.819  10.710  0.00  0.00    +0.000 A 
ATOM      6  F   UNL     1      42.829   3.120  11.266  0.00  0.00    +0.000 F 
ATOM      7  C   UNL     1      44.194   3.558   9.397  0.00  0.00    +0.000 A 
ATOM      8  C   UNL     1      45.216   4.301   8.812  0.00  0.00    +0.000 A 
ATOM      9  C   UNL     1      45.876   5.283   9.556  0.00  0.00    +0.000 A 
BRANCH   8  10
ATOM     10  O   UNL     1      45.516   3.980   7.510  0.00  0.00    +0.000 OA
BRANCH  10  11
ATOM     11  C   UNL     1      46.767   3.302   7.241  0.00  0.00    +0.000 C 
ATOM     12  C   UNL     1      47.018   2.789   5.816  0.00  0.00    +0.000 C 
ATOM     13  O   UNL     1      47.238   1.439   6.284  0.00  0.00    +0.000 OA
ATOM     14  C   UNL     1      46.810   1.814   7.614  0.00  0.00    +0.000 C 
ENDBRANCH  10  11
ENDBRANCH   8  10
ENDBRANCH   2   3
BRANCH   2  15
ATOM     15  O   UNL     1      47.402   6.342  12.155  0.00  0.00    +0.000 OA
BRANCH  15  16
ATOM     16  C   UNL     1      47.460   5.745  13.410  0.00  0.00    +0.000 A 
ATOM     17  C   UNL     1      46.886   4.484  13.502  0.00  0.00    +0.000 A 
ATOM     18  C   UNL     1      46.925   3.819  14.728  0.00  0.00    +0.000 A 
ATOM     19  C   UNL     1      47.539   4.424  15.829  0.00  0.00    +0.000 A 
ATOM     20  C   UNL     1      48.095   5.683  15.629  0.00  0.00    +0.000 A 
ATOM     21  N   UNL     1      48.068   6.362  14.448  0.00  0.00    +0.000 NA
BRANCH  19  22
ATOM     22  C   UNL     1      47.554   3.697  17.128  0.00  0.00    +0.000 C 
ATOM     23  N   UNL     1      48.645   3.811  17.942  0.00  0.00    +0.000 N 
ATOM     24  O   UNL     1      46.604   3.005  17.472  0.00  0.00    +0.000 OA
ATOM     25  H   UNL     1      49.477   4.344  17.754  0.00  0.00    +0.000 HD
ATOM     26  H   UNL     1      48.604   3.301  18.816  0.00  0.00    +0.000 HD
ENDBRANCH  19  22
ENDBRANCH  15  16
ENDBRANCH   2  15
TORSDOF 6
ENDMDL
MODEL 6
REMARK VINA RESULT:    -6.875      3.624      7.436
REMARK INTER + INTRA:         -10.035
REMARK INTER:                  -9.384
REMARK INTRA:                  -0.651
REMARK UNBOUND:                -0.748
REMARK  Name = 
REMARK  7 active torsions:
REMARK  status: ('A' for Active; 'I' for Inactive)
REMARK    1  A    between atoms: C_1  and  C_2
REMARK    2  A    between atoms: C_2  and  O_3
REMARK    3  A    between atoms: C_2  and  C_13
REMARK    4  A    between atoms: O_3  and  C_4
REMARK    5  A    between atoms: C_7  and  C_8
REMARK    6  A    between atoms: C_18  and  O_19
REMARK    7  A    between atoms: O_19  and  C_20
REMARK                            x       y       z     vdW  Elec       q    Type
REMARK                         _______ _______ _______ _____ _____    ______ ____
ROOT
ATOM      1  C   UNL     1      44.639   7.583  11.410  0.00  0.00    +0.000 C 
ATOM      2  C   UNL     1      45.552   6.398  11.495  0.00  0.00    +0.000 C 
ENDROOT
BRANCH   2   3
ATOM      3  C   UNL     1      45.155   5.164  10.793  0.00  0.00    +0.000 A 
ATOM      4  C   UNL     1      44.370   4.195  11.427  0.00  0.00    +0.000 A 
ATOM      5  C   UNL     1      43.976   3.057  10.732  0.00  0.00    +0.000 A 
ATOM      6  F   UNL     1      43.208   2.147  11.346  0.00  0.00    +0.000 F 
ATOM      7  C   UNL     1      44.347   2.857   9.409  0.00  0.00    +0.000 A 
ATOM      8  C   UNL     1      45.127   3.813   8.764  0.00  0.00    +0.000 A 
ATOM      9  C   UNL     1      45.547   4.951   9.459  0.00  0.00    +0.000 A 
BRANCH   8  10
ATOM     10  O   UNL     1      45.448   3.538   7.457  0.00  0.00    +0.000 OA
BRANCH  10  11
ATOM     11  C   UNL     1      46.803   3.130   7.154  0.00  0.00    +0.000 C 
ATOM     12  C   UNL     1      47.143   2.778   5.699  0.00  0.00    +0.000 C 
ATOM     13  O   UNL     1      47.617   1.463   6.072  0.00  0.00    +0.000 OA
ATOM     14  C   UNL     1      47.128   1.653   7.421  0.00  0.00    +0.000 C 
ENDBRANCH  10  11
ENDBRANCH   8  10
ENDBRANCH   2   3
BRANCH   2  15
ATOM     15  O   UNL     1      46.228   6.225  12.693  0.00  0.00    +0.000 OA
BRANCH  15  16
ATOM     16  C   UNL     1      47.500   6.777  12.811  0.00  0.00    +0.000 A 
ATOM     17  C   UNL     1      48.045   7.284  11.639  0.00  0.00    +0.000 A 
ATOM     18  C   UNL     1      49.311   7.869  11.688  0.00  0.00    +0.000 A 
ATOM     19  C   UNL     1      49.998   7.939  12.904  0.00  0.00    +0.000 A 
ATOM     20  C   UNL     1      49.359   7.413  14.022  0.00  0.00    +0.000 A 
ATOM     21  N   UNL     1      48.127   6.830  14.007  0.00  0.00    +0.000 NA
BRANCH  19  22
ATOM     22  C   UNL     1      51.353   8.556  12.924  0.00  0.00    +0.000 C 
ATOM     23  N   UNL     1      52.377   7.932  12.272  0.00  0.00    +0.000 N 
ATOM     24  O   UNL     1      51.555   9.611  13.512  0.00  0.00    +0.000 OA
ATOM     25  H   UNL     1      52.323   7.064  11.766  0.00  0.00    +0.000 HD
ATOM     26  H   UNL     1      53.277   8.395  12.310  0.00  0.00    +0.000 HD
ENDBRANCH  19  22
ENDBRANCH  15  16
ENDBRANCH   2  15
TORSDOF 6
ENDMDL
MODEL 7
REMARK VINA RESULT:    -6.555      3.337      7.297
REMARK INTER + INTRA:          -9.602
REMARK INTER:                  -9.230
REMARK INTRA:                  -0.372
REMARK UNBOUND:                -0.748
REMARK  Name = 
REMARK  7 active torsions:
REMARK  status: ('A' for Active; 'I' for Inactive)
REMARK    1  A    between atoms: C_1  and  C_2
REMARK    2  A    between atoms: C_2  and  O_3
REMARK    3  A    between atoms: C_2  and  C_13
REMARK    4  A    between atoms: O_3  and  C_4
REMARK    5  A    between atoms: C_7  and  C_8
REMARK    6  A    between atoms: C_18  and  O_19
REMARK    7  A    between atoms: O_19  and  C_20
REMARK                            x       y       z     vdW  Elec       q    Type
REMARK                         _______ _______ _______ _____ _____    ______ ____
ROOT
ATOM      1  C   UNL     1      49.759   7.648  11.913  0.00  0.00    +0.000 C 
ATOM      2  C   UNL     1      48.670   7.186  12.833  0.00  0.00    +0.000 C 
ENDROOT
BRANCH   2   3
ATOM      3  C   UNL     1      47.273   7.343  12.388  0.00  0.00    +0.000 A 
ATOM      4  C   UNL     1      46.585   8.546  12.584  0.00  0.00    +0.000 A 
ATOM      5  C   UNL     1      45.281   8.683  12.122  0.00  0.00    +0.000 A 
ATOM      6  F   UNL     1      44.642   9.846  12.299  0.00  0.00    +0.000 F 
ATOM      7  C   UNL     1      44.638   7.643  11.464  0.00  0.00    +0.000 A 
ATOM      8  C   UNL     1      45.311   6.441  11.259  0.00  0.00    +0.000 A 
ATOM      9  C   UNL     1      46.614   6.284  11.739  0.00  0.00    +0.000 A 
BRANCH   8  10
ATOM     10  O   UNL     1      44.602   5.466  10.599  0.00  0.00    +0.000 OA
BRANCH  10  11
ATOM     11  C   UNL     1      44.613   4.124  11.141  0.00  0.00    +0.000 C 
ATOM     12  C   UNL     1      44.226   2.967  10.209  0.00  0.00    +0.000 C 
ATOM     13  O   UNL     1      43.179   2.526  11.105  0.00  0.00    +0.000 OA
ATOM     14  C   UNL     1      43.355   3.711  11.917  0.00  0.00    +0.000 C 
ENDBRANCH  10  11
ENDBRANCH   8  10
ENDBRANCH   2   3
BRANCH   2  15
ATOM     15  O   UNL     1      48.898   7.352  14.190  0.00  0.00    +0.000 OA
BRANCH  15  16
ATOM     16  C   UNL     1      48.549   6.310  15.043  0.00  0.00    +0.000 A 
ATOM     17  C   UNL     1      49.061   6.390  16.331  0.00  0.00    +0.000 A 
ATOM     18  C   UNL     1      48.735   5.387  17.245  0.00  0.00    +0.000 A 
ATOM     19  C   UNL     1      47.903   4.334  16.854  0.00  0.00    +0.000 A 
ATOM     20  C   UNL     1      47.432   4.353  15.546  0.00  0.00    +0.000 A 
ATOM     21  N   UNL     1      47.736   5.313  14.627  0.00  0.00    +0.000 NA
BRANCH  19  22
ATOM     22  C   UNL     1      47.583   3.271  17.846  0.00  0.00    +0.000 C 
ATOM     23  N   UNL     1      48.372   3.135  18.952  0.00  0.00    +0.000 N 
ATOM     24  O   UNL     1      46.625   2.526  17.683  0.00  0.00    +0.000 OA
ATOM     25  H   UNL     1      49.184   3.686  19.180  0.00  0.00    +0.000 HD
ATOM     26  H   UNL     1      48.110   2.401  19.599  0.00  0.00    +0.000 HD
ENDBRANCH  19  22
ENDBRANCH  15  16
ENDBRANCH   2  15
TORSDOF 6
ENDMDL
MODEL 8
REMARK VINA RESULT:    -6.273      3.867      6.131
REMARK INTER + INTRA:          -9.222
REMARK INTER:                  -8.619
REMARK INTRA:                  -0.603
REMARK UNBOUND:                -0.748
REMARK  Name = 
REMARK  7 active torsions:
REMARK  status: ('A' for Active; 'I' for Inactive)
REMARK    1  A    between atoms: C_1  and  C_2
REMARK    2  A    between atoms: C_2  and  O_3
REMARK    3  A    between atoms: C_2  and  C_13
REMARK    4  A    between atoms: O_3  and  C_4
REMARK    5  A    between atoms: C_7  and  C_8
REMARK    6  A    between atoms: C_18  and  O_19
REMARK    7  A    between atoms: O_19  and  C_20
REMARK                            x       y       z     vdW  Elec       q    Type
REMARK                         _______ _______ _______ _____ _____    ______ ____
ROOT
ATOM      1  C   UNL     1      48.840   7.563  15.528  0.00  0.00    +0.000 C 
ATOM      2  C   UNL     1      48.232   6.217  15.274  0.00  0.00    +0.000 C 
ENDROOT
BRANCH   2   3
ATOM      3  C   UNL     1      48.400   5.174  16.301  0.00  0.00    +0.000 A 
ATOM      4  C   UNL     1      47.375   4.263  16.579  0.00  0.00    +0.000 A 
ATOM      5  C   UNL     1      47.571   3.264  17.526  0.00  0.00    +0.000 A 
ATOM      6  F   UNL     1      46.588   2.388  17.766  0.00  0.00    +0.000 F 
ATOM      7  C   UNL     1      48.773   3.149  18.211  0.00  0.00    +0.000 A 
ATOM      8  C   UNL     1      49.803   4.047  17.944  0.00  0.00    +0.000 A 
ATOM      9  C   UNL     1      49.610   5.068  17.010  0.00  0.00    +0.000 A 
BRANCH   8  10
ATOM     10  O   UNL     1      50.958   3.860  18.665  0.00  0.00    +0.000 OA
BRANCH  10  11
ATOM     11  C   UNL     1      52.084   3.231  18.007  0.00  0.00    +0.000 C 
ATOM     12  C   UNL     1      52.024   1.716  17.767  0.00  0.00    +0.000 C 
ATOM     13  O   UNL     1      53.266   1.501  18.478  0.00  0.00    +0.000 OA
ATOM     14  C   UNL     1      53.272   2.880  18.914  0.00  0.00    +0.000 C 
ENDBRANCH  10  11
ENDBRANCH   8  10
ENDBRANCH   2   3
BRANCH   2  15
ATOM     15  O   UNL     1      48.230   5.781  13.958  0.00  0.00    +0.000 OA
BRANCH  15  16
ATOM     16  C   UNL     1      47.005   5.662  13.310  0.00  0.00    +0.000 A 
ATOM     17  C   UNL     1      46.573   6.793  12.630  0.00  0.00    +0.000 A 
ATOM     18  C   UNL     1      45.360   6.737  11.942  0.00  0.00    +0.000 A 
ATOM     19  C   UNL     1      44.611   5.556  11.946  0.00  0.00    +0.000 A 
ATOM     20  C   UNL     1      45.138   4.477  12.648  0.00  0.00    +0.000 A 
ATOM     21  N   UNL     1      46.315   4.500  13.334  0.00  0.00    +0.000 NA
BRANCH  19  22
ATOM     22  C   UNL     1      43.314   5.531  11.215  0.00  0.00    +0.000 C 
ATOM     23  N   UNL     1      42.220   6.119  11.783  0.00  0.00    +0.000 N 
ATOM     24  O   UNL     1      43.221   4.996  10.118  0.00  0.00    +0.000 OA
ATOM     25  H   UNL     1      42.184   6.578  12.678  0.00  0.00    +0.000 HD
ATOM     26  H   UNL     1      41.363   6.079  11.245  0.00  0.00    +0.000 HD
ENDBRANCH  19  22
ENDBRANCH  15  16
ENDBRANCH   2  15
TORSDOF 6
ENDMDL
MODEL 9
REMARK VINA RESULT:    -6.198      3.095      4.588
REMARK INTER + INTRA:          -9.121
REMARK INTER:                  -8.525
REMARK INTRA:                  -0.596
REMARK UNBOUND:                -0.748
REMARK  Name = 
REMARK  7 active torsions:
REMARK  status: ('A' for Active; 'I' for Inactive)
REMARK    1  A    between atoms: C_1  and  C_2
REMARK    2  A    between atoms: C_2  and  O_3
REMARK    3  A    between atoms: C_2  and  C_13
REMARK    4  A    between atoms: O_3  and  C_4
REMARK    5  A    between atoms: C_7  and  C_8
REMARK    6  A    between atoms: C_18  and  O_19
REMARK    7  A    between atoms: O_19  and  C_20
REMARK                            x       y       z     vdW  Elec       q    Type
REMARK                         _______ _______ _______ _____ _____    ______ ____
ROOT
ATOM      1  C   UNL     1      48.388   7.531  11.791  0.00  0.00    +0.000 C 
ATOM      2  C   UNL     1      47.559   8.042  12.930  0.00  0.00    +0.000 C 
ENDROOT
BRANCH   2   3
ATOM      3  C   UNL     1      48.078   7.865  14.299  0.00  0.00    +0.000 A 
ATOM      4  C   UNL     1      48.104   8.932  15.204  0.00  0.00    +0.000 A 
ATOM      5  C   UNL     1      48.562   8.731  16.501  0.00  0.00    +0.000 A 
ATOM      6  F   UNL     1      48.562   9.757  17.362  0.00  0.00    +0.000 F 
ATOM      7  C   UNL     1      49.000   7.484  16.924  0.00  0.00    +0.000 A 
ATOM      8  C   UNL     1      48.978   6.412  16.036  0.00  0.00    +0.000 A 
ATOM      9  C   UNL     1      48.540   6.606  14.723  0.00  0.00    +0.000 A 
BRANCH   8  10
ATOM     10  O   UNL     1      49.427   5.213  16.536  0.00  0.00    +0.000 OA
BRANCH  10  11
ATOM     11  C   UNL     1      48.571   4.486  17.449  0.00  0.00    +0.000 C 
ATOM     12  C   UNL     1      48.629   2.952  17.427  0.00  0.00    +0.000 C 
ATOM     13  O   UNL     1      47.208   2.850  17.180  0.00  0.00    +0.000 OA
ATOM     14  C   UNL     1      47.123   4.281  16.982  0.00  0.00    +0.000 C 
ENDBRANCH  10  11
ENDBRANCH   8  10
ENDBRANCH   2   3
BRANCH   2  15
ATOM     15  O   UNL     1      46.184   7.948  12.784  0.00  0.00    +0.000 OA
BRANCH  15  16
ATOM     16  C   UNL     1      45.650   6.718  12.413  0.00  0.00    +0.000 A 
ATOM     17  C   UNL     1      45.407   6.553  11.056  0.00  0.00    +0.000 A 
ATOM     18  C   UNL     1      44.889   5.336  10.612  0.00  0.00    +0.000 A 
ATOM     19  C   UNL     1      44.631   4.313  11.530  0.00  0.00    +0.000 A 
ATOM     20  C   UNL     1      44.921   4.575  12.865  0.00  0.00    +0.000 A 
ATOM     21  N   UNL     1      45.421   5.753  13.332  0.00  0.00    +0.000 NA
BRANCH  19  22
ATOM     22  C   UNL     1      44.065   3.030  11.030  0.00  0.00    +0.000 C 
ATOM     23  N   UNL     1      44.729   2.348  10.050  0.00  0.00    +0.000 N 
ATOM     24  O   UNL     1      43.021   2.582  11.486  0.00  0.00    +0.000 OA
ATOM     25  H   UNL     1      45.586   2.628   9.602  0.00  0.00    +0.000 HD
ATOM     26  H   UNL     1      44.307   1.479   9.748  0.00  0.00    +0.000 HD
ENDBRANCH  19  22
ENDBRANCH  15  16
ENDBRANCH   2  15
TORSDOF 6
ENDMDL
