MODEL 1
REMARK VINA RESULT:    -8.670      0.000      0.000
REMARK INTER + INTRA:         -12.843
REMARK INTER:                 -11.711
REMARK INTRA:                  -1.132
REMARK UNBOUND:                -1.132
REMARK  Name = 
REMARK  7 active torsions:
REMARK  status: ('A' for Active; 'I' for Inactive)
REMARK    1  A    between atoms: C_1  and  C_2
REMARK    2  A    between atoms: C_2  and  N_3
REMARK    3  A    between atoms: C_2  and  C_18
REMARK    4  A    between atoms: C_8  and  C_9
REMARK    5  A    between atoms: C_9  and  N_10
REMARK    6  A    between atoms: N_10  and  C_11
REMARK    7  A    between atoms: C_18  and  C_20
REMARK                            x       y       z     vdW  Elec       q    Type
REMARK                         _______ _______ _______ _____ _____    ______ ____
ROOT
ATOM      1  N   UNL     1      45.852   6.546  13.563  0.00  0.00    +0.000 N 
ATOM      2  C   UNL     1      45.051   5.927  12.603  0.00  0.00    +0.000 A 
ATOM      3  C   UNL     1      43.752   5.591  12.976  0.00  0.00    +0.000 A 
ATOM      4  C   UNL     1      42.896   5.012  12.047  0.00  0.00    +0.000 A 
ATOM      5  C   UNL     1      43.371   4.738  10.774  0.00  0.00    +0.000 A 
ATOM      6  C   UNL     1      44.689   5.062  10.473  0.00  0.00    +0.000 A 
ATOM      7  N   UNL     1      45.522   5.675  11.364  0.00  0.00    +0.000 NA
ATOM      8  H   UNL     1      46.041   5.928  14.347  0.00  0.00    +0.000 HD
ENDROOT
BRANCH   1  10
ATOM      9  C   UNL     1      46.812   8.759  13.676  0.00  0.00    +0.000 C 
ATOM     10  C   UNL     1      46.984   7.353  13.091  0.00  0.00    +0.000 C 
BRANCH  10  11
ATOM     11  C   UNL     1      48.329   6.720  13.530  0.00  0.00    +0.000 C 
ATOM     12  O   UNL     1      49.173   6.366  12.702  0.00  0.00    +0.000 OA
BRANCH  11  13
ATOM     13  C   UNL     1      48.583   6.525  14.970  0.00  0.00    +0.000 A 
ATOM     14  C   UNL     1      49.287   7.427  15.752  0.00  0.00    +0.000 A 
ATOM     15  S   UNL     1      49.289   7.029  17.413  0.00  0.00    +0.000 S 
ATOM     16  C   UNL     1      48.371   5.625  17.137  0.00  0.00    +0.000 A 
ATOM     17  N   UNL     1      47.987   4.826  18.168  0.00  0.00    +0.000 NA
ATOM     18  C   UNL     1      47.275   3.809  17.811  0.00  0.00    +0.000 A 
ATOM     19  N   UNL     1      46.937   3.505  16.517  0.00  0.00    +0.000 N 
ATOM     20  C   UNL     1      47.421   4.206  15.434  0.00  0.00    +0.000 A 
ATOM     21  O   UNL     1      47.347   3.749  14.299  0.00  0.00    +0.000 OA
ATOM     22  C   UNL     1      48.110   5.436  15.792  0.00  0.00    +0.000 A 
ATOM     23  H   UNL     1      46.458   2.645  16.302  0.00  0.00    +0.000 HD
ENDBRANCH  11  13
ENDBRANCH  10  11
ENDBRANCH   1  10
BRANCH   6  24
ATOM     24  C   UNL     1      45.249   4.703   9.108  0.00  0.00    +0.000 C 
BRANCH  24  25
ATOM     25  N   UNL     1      44.445   3.734   8.351  0.00  0.00    +0.000 NA
ATOM     26  H   UNL     1      43.889   4.288   7.696  0.00  0.00    +0.000 HD
BRANCH  25  27
ATOM     27  C   UNL     1      45.217   2.760   7.551  0.00  0.00    +0.000 C 
ATOM     28  C   UNL     1      46.357   3.384   6.727  0.00  0.00    +0.000 C 
ATOM     29  C   UNL     1      47.232   2.294   6.099  0.00  0.00    +0.000 C 
ATOM     30  C   UNL     1      47.733   1.301   7.146  0.00  0.00    +0.000 C 
ATOM     31  N   UNL     1      46.614   0.687   7.856  0.00  0.00    +0.000 NA
ATOM     32  C   UNL     1      45.802   1.706   8.527  0.00  0.00    +0.000 C 
ATOM     33  H   UNL     1      46.973   0.040   8.559  0.00  0.00    +0.000 HD
ENDBRANCH  25  27
ENDBRANCH  24  25
ENDBRANCH   6  24
TORSDOF 6
ENDMDL
MODEL 2
REMARK VINA RESULT:    -8.137      2.410      3.915
REMARK INTER + INTRA:         -12.122
REMARK INTER:                 -11.821
REMARK INTRA:                  -0.301
REMARK UNBOUND:                -1.132
REMARK  Name = 
REMARK  7 active torsions:
REMARK  status: ('A' for Active; 'I' for Inactive)
REMARK    1  A    between atoms: C_1  and  C_2
REMARK    2  A    between atoms: C_2  and  N_3
REMARK    3  A    between atoms: C_2  and  C_18
REMARK    4  A    between atoms: C_8  and  C_9
REMARK    5  A    between atoms: C_9  and  N_10
REMARK    6  A    between atoms: N_10  and  C_11
REMARK    7  A    between atoms: C_18  and  C_20
REMARK                            x       y       z     vdW  Elec       q    Type
REMARK                         _______ _______ _______ _____ _____    ______ ____
ROOT
ATOM      1  N   UNL     1      47.856   5.694  15.171  0.00  0.00    +0.000 N 
ATOM      2  C   UNL     1      47.768   6.278  13.907  0.00  0.00    +0.000 A 
ATOM      3  C   UNL     1      48.860   7.025  13.472  0.00  0.00    +0.000 A 
ATOM      4  C   UNL     1      48.846   7.594  12.204  0.00  0.00    +0.000 A 
ATOM      5  C   UNL     1      47.719   7.441  11.411  0.00  0.00    +0.000 A 
ATOM      6  C   UNL     1      46.646   6.716  11.916  0.00  0.00    +0.000 A 
ATOM      7  N   UNL     1      46.670   6.114  13.141  0.00  0.00    +0.000 NA
ATOM      8  H   UNL     1      47.901   6.396  15.904  0.00  0.00    +0.000 HD
ENDROOT
BRANCH   1  10
ATOM      9  C   UNL     1      47.186   3.553  14.277  0.00  0.00    +0.000 C 
ATOM     10  C   UNL     1      47.007   4.528  15.445  0.00  0.00    +0.000 C 
BRANCH  10  11
ATOM     11  C   UNL     1      47.399   3.872  16.793  0.00  0.00    +0.000 C 
ATOM     12  O   UNL     1      46.621   3.127  17.395  0.00  0.00    +0.000 OA
BRANCH  11  13
ATOM     13  C   UNL     1      48.726   4.167  17.365  0.00  0.00    +0.000 A 
ATOM     14  C   UNL     1      49.029   5.345  18.030  0.00  0.00    +0.000 A 
ATOM     15  S   UNL     1      50.587   5.350  18.728  0.00  0.00    +0.000 S 
ATOM     16  C   UNL     1      50.918   3.789  18.141  0.00  0.00    +0.000 A 
ATOM     17  N   UNL     1      52.099   3.173  18.418  0.00  0.00    +0.000 NA
ATOM     18  C   UNL     1      52.200   1.983  17.926  0.00  0.00    +0.000 A 
ATOM     19  N   UNL     1      51.244   1.366  17.162  0.00  0.00    +0.000 N 
ATOM     20  C   UNL     1      50.097   2.005  16.741  0.00  0.00    +0.000 A 
ATOM     21  O   UNL     1      49.411   1.544  15.836  0.00  0.00    +0.000 OA
ATOM     22  C   UNL     1      49.875   3.292  17.381  0.00  0.00    +0.000 A 
ATOM     23  H   UNL     1      51.427   0.472  16.734  0.00  0.00    +0.000 HD
ENDBRANCH  11  13
ENDBRANCH  10  11
ENDBRANCH   1  10
BRANCH   6  24
ATOM     24  C   UNL     1      45.376   6.599  11.092  0.00  0.00    +0.000 C 
BRANCH  24  25
ATOM     25  N   UNL     1      44.577   5.395  11.363  0.00  0.00    +0.000 NA
ATOM     26  H   UNL     1      43.643   5.732  11.605  0.00  0.00    +0.000 HD
BRANCH  25  27
ATOM     27  C   UNL     1      44.424   4.469  10.222  0.00  0.00    +0.000 C 
ATOM     28  C   UNL     1      45.435   4.696   9.085  0.00  0.00    +0.000 C 
ATOM     29  C   UNL     1      45.346   3.573   8.046  0.00  0.00    +0.000 C 
ATOM     30  C   UNL     1      45.482   2.196   8.693  0.00  0.00    +0.000 C 
ATOM     31  N   UNL     1      44.462   2.001   9.720  0.00  0.00    +0.000 NA
ATOM     32  C   UNL     1      44.573   3.023  10.765  0.00  0.00    +0.000 C 
ATOM     33  H   UNL     1      44.582   1.082  10.148  0.00  0.00    +0.000 HD
ENDBRANCH  25  27
ENDBRANCH  24  25
ENDBRANCH   6  24
TORSDOF 6
ENDMDL
MODEL 3
REMARK VINA RESULT:    -7.890      2.016      2.592
REMARK INTER + INTRA:         -11.789
REMARK INTER:                 -11.331
REMARK INTRA:                  -0.458
REMARK UNBOUND:                -1.132
REMARK  Name = 
REMARK  7 active torsions:
REMARK  status: ('A' for Active; 'I' for Inactive)
REMARK    1  A    between atoms: C_1  and  C_2
REMARK    2  A    between atoms: C_2  and  N_3
REMARK    3  A    between atoms: C_2  and  C_18
REMARK    4  A    between atoms: C_8  and  C_9
REMARK    5  A    between atoms: C_9  and  N_10
REMARK    6  A    between atoms: N_10  and  C_11
REMARK    7  A    between atoms: C_18  and  C_20
REMARK                            x       y       z     vdW  Elec       q    Type
REMARK                         _______ _______ _______ _____ _____    ______ ____
ROOT
ATOM      1  N   UNL     1      45.617   4.986  14.392  0.00  0.00    +0.000 N 
ATOM      2  C   UNL     1      44.979   4.833  13.160  0.00  0.00    +0.000 A 
ATOM      3  C   UNL     1      43.955   5.727  12.857  0.00  0.00    +0.000 A 
ATOM      4  C   UNL     1      43.314   5.649  11.627  0.00  0.00    +0.000 A 
ATOM      5  C   UNL     1      43.680   4.648  10.740  0.00  0.00    +0.000 A 
ATOM      6  C   UNL     1      44.684   3.763  11.115  0.00  0.00    +0.000 A 
ATOM      7  N   UNL     1      45.351   3.862  12.301  0.00  0.00    +0.000 NA
ATOM      8  H   UNL     1      44.983   4.807  15.165  0.00  0.00    +0.000 HD
ENDROOT
BRANCH   1  10
ATOM      9  C   UNL     1      47.941   5.488  13.964  0.00  0.00    +0.000 C 
ATOM     10  C   UNL     1      46.974   4.443  14.530  0.00  0.00    +0.000 C 
BRANCH  10  11
ATOM     11  C   UNL     1      47.288   4.129  16.015  0.00  0.00    +0.000 C 
ATOM     12  O   UNL     1      46.532   3.432  16.699  0.00  0.00    +0.000 OA
BRANCH  11  13
ATOM     13  C   UNL     1      48.509   4.698  16.616  0.00  0.00    +0.000 A 
ATOM     14  C   UNL     1      48.675   6.048  16.882  0.00  0.00    +0.000 A 
ATOM     15  S   UNL     1      50.117   6.403  17.725  0.00  0.00    +0.000 S 
ATOM     16  C   UNL     1      50.579   4.767  17.740  0.00  0.00    +0.000 A 
ATOM     17  N   UNL     1      51.727   4.369  18.351  0.00  0.00    +0.000 NA
ATOM     18  C   UNL     1      51.937   3.095  18.302  0.00  0.00    +0.000 A 
ATOM     19  N   UNL     1      51.119   2.190  17.675  0.00  0.00    +0.000 N 
ATOM     20  C   UNL     1      50.025   2.565  16.926  0.00  0.00    +0.000 A 
ATOM     21  O   UNL     1      49.491   1.782  16.149  0.00  0.00    +0.000 OA
ATOM     22  C   UNL     1      49.672   3.969  17.066  0.00  0.00    +0.000 A 
ATOM     23  H   UNL     1      51.392   1.223  17.596  0.00  0.00    +0.000 HD
ENDBRANCH  11  13
ENDBRANCH  10  11
ENDBRANCH   1  10
BRANCH   6  24
ATOM     24  C   UNL     1      45.048   2.617  10.188  0.00  0.00    +0.000 C 
BRANCH  24  25
ATOM     25  N   UNL     1      44.381   2.652   8.879  0.00  0.00    +0.000 NA
ATOM     26  H   UNL     1      44.015   3.602   8.781  0.00  0.00    +0.000 HD
BRANCH  25  27
ATOM     27  C   UNL     1      45.258   2.401   7.717  0.00  0.00    +0.000 C 
ATOM     28  C   UNL     1      46.077   3.624   7.269  0.00  0.00    +0.000 C 
ATOM     29  C   UNL     1      47.106   3.229   6.204  0.00  0.00    +0.000 C 
ATOM     30  C   UNL     1      47.982   2.069   6.671  0.00  0.00    +0.000 C 
ATOM     31  N   UNL     1      47.166   0.910   7.023  0.00  0.00    +0.000 NA
ATOM     32  C   UNL     1      46.221   1.244   8.092  0.00  0.00    +0.000 C 
ATOM     33  H   UNL     1      47.771   0.154   7.346  0.00  0.00    +0.000 HD
ENDBRANCH  25  27
ENDBRANCH  24  25
ENDBRANCH   6  24
TORSDOF 6
ENDMDL
MODEL 4
REMARK VINA RESULT:    -7.829      1.777      2.194
REMARK INTER + INTRA:         -11.707
REMARK INTER:                 -10.600
REMARK INTRA:                  -1.107
REMARK UNBOUND:                -1.132
REMARK  Name = 
REMARK  7 active torsions:
REMARK  status: ('A' for Active; 'I' for Inactive)
REMARK    1  A    between atoms: C_1  and  C_2
REMARK    2  A    between atoms: C_2  and  N_3
REMARK    3  A    between atoms: C_2  and  C_18
REMARK    4  A    between atoms: C_8  and  C_9
REMARK    5  A    between atoms: C_9  and  N_10
REMARK    6  A    between atoms: N_10  and  C_11
REMARK    7  A    between atoms: C_18  and  C_20
REMARK                            x       y       z     vdW  Elec       q    Type
REMARK                         _______ _______ _______ _____ _____    ______ ____
ROOT
ATOM      1  N   UNL     1      46.072   6.528  13.091  0.00  0.00    +0.000 N 
ATOM      2  C   UNL     1      45.158   5.626  12.548  0.00  0.00    +0.000 A 
ATOM      3  C   UNL     1      44.455   4.816  13.437  0.00  0.00    +0.000 A 
ATOM      4  C   UNL     1      43.500   3.929  12.955  0.00  0.00    +0.000 A 
ATOM      5  C   UNL     1      43.298   3.836  11.587  0.00  0.00    +0.000 A 
ATOM      6  C   UNL     1      44.057   4.644  10.748  0.00  0.00    +0.000 A 
ATOM      7  N   UNL     1      44.963   5.552  11.215  0.00  0.00    +0.000 NA
ATOM      8  H   UNL     1      46.842   6.050  13.550  0.00  0.00    +0.000 HD
ENDROOT
BRANCH   1  10
ATOM      9  C   UNL     1      45.591   8.878  12.804  0.00  0.00    +0.000 C 
ATOM     10  C   UNL     1      46.430   7.704  12.288  0.00  0.00    +0.000 C 
BRANCH  10  11
ATOM     11  C   UNL     1      47.947   8.002  12.402  0.00  0.00    +0.000 C 
ATOM     12  O   UNL     1      48.737   7.660  11.517  0.00  0.00    +0.000 OA
BRANCH  11  13
ATOM     13  C   UNL     1      48.445   8.692  13.606  0.00  0.00    +0.000 A 
ATOM     14  C   UNL     1      48.777  10.037  13.636  0.00  0.00    +0.000 A 
ATOM     15  S   UNL     1      49.168  10.607  15.198  0.00  0.00    +0.000 S 
ATOM     16  C   UNL     1      48.932   9.068  15.880  0.00  0.00    +0.000 A 
ATOM     17  N   UNL     1      49.074   8.866  17.218  0.00  0.00    +0.000 NA
ATOM     18  C   UNL     1      48.842   7.653  17.596  0.00  0.00    +0.000 A 
ATOM     19  N   UNL     1      48.507   6.621  16.757  0.00  0.00    +0.000 N 
ATOM     20  C   UNL     1      48.490   6.749  15.385  0.00  0.00    +0.000 A 
ATOM     21  O   UNL     1      48.477   5.763  14.657  0.00  0.00    +0.000 OA
ATOM     22  C   UNL     1      48.610   8.123  14.923  0.00  0.00    +0.000 A 
ATOM     23  H   UNL     1      48.430   5.680  17.109  0.00  0.00    +0.000 HD
ENDBRANCH  11  13
ENDBRANCH  10  11
ENDBRANCH   1  10
BRANCH   6  24
ATOM     24  C   UNL     1      43.902   4.505   9.244  0.00  0.00    +0.000 C 
BRANCH  24  25
ATOM     25  N   UNL     1      45.161   4.578   8.488  0.00  0.00    +0.000 NA
ATOM     26  H   UNL     1      45.894   4.720   9.187  0.00  0.00    +0.000 HD
BRANCH  25  27
ATOM     27  C   UNL     1      45.513   3.361   7.728  0.00  0.00    +0.000 C 
ATOM     28  C   UNL     1      46.735   3.524   6.808  0.00  0.00    +0.000 C 
ATOM     29  C   UNL     1      47.158   2.173   6.222  0.00  0.00    +0.000 C 
ATOM     30  C   UNL     1      47.376   1.129   7.315  0.00  0.00    +0.000 C 
ATOM     31  N   UNL     1      46.169   0.961   8.121  0.00  0.00    +0.000 NA
ATOM     32  C   UNL     1      45.785   2.228   8.751  0.00  0.00    +0.000 C 
ATOM     33  H   UNL     1      46.343   0.271   8.853  0.00  0.00    +0.000 HD
ENDBRANCH  25  27
ENDBRANCH  24  25
ENDBRANCH   6  24
TORSDOF 6
ENDMDL
MODEL 5
REMARK VINA RESULT:    -7.402      2.359      3.615
REMARK INTER + INTRA:         -11.130
REMARK INTER:                 -10.274
REMARK INTRA:                  -0.856
REMARK UNBOUND:                -1.132
REMARK  Name = 
REMARK  7 active torsions:
REMARK  status: ('A' for Active; 'I' for Inactive)
REMARK    1  A    between atoms: C_1  and  C_2
REMARK    2  A    between atoms: C_2  and  N_3
REMARK    3  A    between atoms: C_2  and  C_18
REMARK    4  A    between atoms: C_8  and  C_9
REMARK    5  A    between atoms: C_9  and  N_10
REMARK    6  A    between atoms: N_10  and  C_11
REMARK    7  A    between atoms: C_18  and  C_20
REMARK                            x       y       z     vdW  Elec       q    Type
REMARK                         _______ _______ _______ _____ _____    ______ ____
ROOT
ATOM      1  N   UNL     1      47.215   5.593  14.908  0.00  0.00    +0.000 N 
ATOM      2  C   UNL     1      46.807   5.773  13.586  0.00  0.00    +0.000 A 
ATOM      3  C   UNL     1      47.457   6.758  12.846  0.00  0.00    +0.000 A 
ATOM      4  C   UNL     1      47.123   6.952  11.511  0.00  0.00    +0.000 A 
ATOM      5  C   UNL     1      46.111   6.186  10.954  0.00  0.00    +0.000 A 
ATOM      6  C   UNL     1      45.473   5.244  11.754  0.00  0.00    +0.000 A 
ATOM      7  N   UNL     1      45.829   5.014  13.051  0.00  0.00    +0.000 NA
ATOM      8  H   UNL     1      47.013   6.411  15.475  0.00  0.00    +0.000 HD
ENDROOT
BRANCH   1  10
ATOM      9  C   UNL     1      47.673   3.230  14.697  0.00  0.00    +0.000 C 
ATOM     10  C   UNL     1      46.949   4.291  15.533  0.00  0.00    +0.000 C 
BRANCH  10  11
ATOM     11  C   UNL     1      47.438   4.282  17.004  0.00  0.00    +0.000 C 
ATOM     12  O   UNL     1      46.654   4.446  17.943  0.00  0.00    +0.000 OA
BRANCH  11  13
ATOM     13  C   UNL     1      48.876   4.089  17.270  0.00  0.00    +0.000 A 
ATOM     14  C   UNL     1      49.440   2.862  17.581  0.00  0.00    +0.000 A 
ATOM     15  S   UNL     1      51.144   2.903  17.679  0.00  0.00    +0.000 S 
ATOM     16  C   UNL     1      51.182   4.567  17.335  0.00  0.00    +0.000 A 
ATOM     17  N   UNL     1      52.363   5.235  17.235  0.00  0.00    +0.000 NA
ATOM     18  C   UNL     1      52.238   6.488  16.947  0.00  0.00    +0.000 A 
ATOM     19  N   UNL     1      51.042   7.137  16.777  0.00  0.00    +0.000 N 
ATOM     20  C   UNL     1      49.825   6.534  17.008  0.00  0.00    +0.000 A 
ATOM     21  O   UNL     1      48.802   7.198  17.134  0.00  0.00    +0.000 OA
ATOM     22  C   UNL     1      49.911   5.094  17.198  0.00  0.00    +0.000 A 
ATOM     23  H   UNL     1      51.016   8.136  16.645  0.00  0.00    +0.000 HD
ENDBRANCH  11  13
ENDBRANCH  10  11
ENDBRANCH   1  10
BRANCH   6  24
ATOM     24  C   UNL     1      44.315   4.447  11.182  0.00  0.00    +0.000 C 
BRANCH  24  25
ATOM     25  N   UNL     1      44.017   4.723   9.769  0.00  0.00    +0.000 NA
ATOM     26  H   UNL     1      44.528   5.580   9.543  0.00  0.00    +0.000 HD
BRANCH  25  27
ATOM     27  C   UNL     1      44.462   3.687   8.815  0.00  0.00    +0.000 C 
ATOM     28  C   UNL     1      45.693   4.083   7.982  0.00  0.00    +0.000 C 
ATOM     29  C   UNL     1      46.212   2.887   7.177  0.00  0.00    +0.000 C 
ATOM     30  C   UNL     1      46.468   1.675   8.071  0.00  0.00    +0.000 C 
ATOM     31  N   UNL     1      45.255   1.296   8.792  0.00  0.00    +0.000 NA
ATOM     32  C   UNL     1      44.778   2.403   9.626  0.00  0.00    +0.000 C 
ATOM     33  H   UNL     1      45.453   0.496   9.393  0.00  0.00    +0.000 HD
ENDBRANCH  25  27
ENDBRANCH  24  25
ENDBRANCH   6  24
TORSDOF 6
ENDMDL
MODEL 6
REMARK VINA RESULT:    -7.249      2.746      8.071
REMARK INTER + INTRA:         -10.923
REMARK INTER:                  -9.730
REMARK INTRA:                  -1.194
REMARK UNBOUND:                -1.132
REMARK  Name = 
REMARK  7 active torsions:
REMARK  status: ('A' for Active; 'I' for Inactive)
REMARK    1  A    between atoms: C_1  and  C_2
REMARK    2  A    between atoms: C_2  and  N_3
REMARK    3  A    between atoms: C_2  and  C_18
REMARK    4  A    between atoms: C_8  and  C_9
REMARK    5  A    between atoms: C_9  and  N_10
REMARK    6  A    between atoms: N_10  and  C_11
REMARK    7  A    between atoms: C_18  and  C_20
REMARK                            x       y       z     vdW  Elec       q    Type
REMARK                         _______ _______ _______ _____ _____    ______ ____
ROOT
ATOM      1  N   UNL     1      47.020   7.358  11.608  0.00  0.00    +0.000 N 
ATOM      2  C   UNL     1      48.253   7.556  12.230  0.00  0.00    +0.000 A 
ATOM      3  C   UNL     1      49.286   8.070  11.450  0.00  0.00    +0.000 A 
ATOM      4  C   UNL     1      50.524   8.328  12.027  0.00  0.00    +0.000 A 
ATOM      5  C   UNL     1      50.718   8.025  13.366  0.00  0.00    +0.000 A 
ATOM      6  C   UNL     1      49.659   7.479  14.083  0.00  0.00    +0.000 A 
ATOM      7  N   UNL     1      48.427   7.268  13.536  0.00  0.00    +0.000 NA
ATOM      8  H   UNL     1      47.076   6.645  10.887  0.00  0.00    +0.000 HD
ENDROOT
BRANCH   1  10
ATOM      9  C   UNL     1      45.580   8.752  12.957  0.00  0.00    +0.000 C 
ATOM     10  C   UNL     1      45.824   7.324  12.459  0.00  0.00    +0.000 C 
BRANCH  10  11
ATOM     11  C   UNL     1      44.605   6.787  11.666  0.00  0.00    +0.000 C 
ATOM     12  O   UNL     1      43.800   7.554  11.130  0.00  0.00    +0.000 OA
BRANCH  11  13
ATOM     13  C   UNL     1      44.406   5.329  11.575  0.00  0.00    +0.000 A 
ATOM     14  C   UNL     1      43.794   4.576  12.564  0.00  0.00    +0.000 A 
ATOM     15  S   UNL     1      43.552   2.944  12.124  0.00  0.00    +0.000 S 
ATOM     16  C   UNL     1      44.280   3.185  10.607  0.00  0.00    +0.000 A 
ATOM     17  N   UNL     1      44.368   2.172   9.703  0.00  0.00    +0.000 NA
ATOM     18  C   UNL     1      44.924   2.507   8.587  0.00  0.00    +0.000 A 
ATOM     19  N   UNL     1      45.425   3.752   8.304  0.00  0.00    +0.000 N 
ATOM     20  C   UNL     1      45.484   4.763   9.238  0.00  0.00    +0.000 A 
ATOM     21  O   UNL     1      46.187   5.751   9.058  0.00  0.00    +0.000 OA
ATOM     22  C   UNL     1      44.747   4.478  10.459  0.00  0.00    +0.000 A 
ATOM     23  H   UNL     1      45.929   3.918   7.447  0.00  0.00    +0.000 HD
ENDBRANCH  11  13
ENDBRANCH  10  11
ENDBRANCH   1  10
BRANCH   6  24
ATOM     24  C   UNL     1      49.874   7.074  15.530  0.00  0.00    +0.000 C 
BRANCH  24  25
ATOM     25  N   UNL     1      49.375   5.734  15.872  0.00  0.00    +0.000 NA
ATOM     26  H   UNL     1      50.179   5.109  15.778  0.00  0.00    +0.000 HD
BRANCH  25  27
ATOM     27  C   UNL     1      48.865   5.582  17.250  0.00  0.00    +0.000 C 
ATOM     28  C   UNL     1      48.564   6.912  17.962  0.00  0.00    +0.000 C 
ATOM     29  C   UNL     1      47.847   6.667  19.294  0.00  0.00    +0.000 C 
ATOM     30  C   UNL     1      46.604   5.799  19.112  0.00  0.00    +0.000 C 
ATOM     31  N   UNL     1      46.948   4.521  18.494  0.00  0.00    +0.000 NA
ATOM     32  C   UNL     1      47.571   4.729  17.183  0.00  0.00    +0.000 C 
ATOM     33  H   UNL     1      46.102   3.965  18.369  0.00  0.00    +0.000 HD
ENDBRANCH  25  27
ENDBRANCH  24  25
ENDBRANCH   6  24
TORSDOF 6
ENDMDL
MODEL 7
REMARK VINA RESULT:    -7.180      2.242      2.679
REMARK INTER + INTRA:         -10.831
REMARK INTER:                 -10.066
REMARK INTRA:                  -0.765
REMARK UNBOUND:                -1.132
REMARK  Name = 
REMARK  7 active torsions:
REMARK  status: ('A' for Active; 'I' for Inactive)
REMARK    1  A    between atoms: C_1  and  C_2
REMARK    2  A    between atoms: C_2  and  N_3
REMARK    3  A    between atoms: C_2  and  C_18
REMARK    4  A    between atoms: C_8  and  C_9
REMARK    5  A    between atoms: C_9  and  N_10
REMARK    6  A    between atoms: N_10  and  C_11
REMARK    7  A    between atoms: C_18  and  C_20
REMARK                            x       y       z     vdW  Elec       q    Type
REMARK                         _______ _______ _______ _____ _____    ______ ____
ROOT
ATOM      1  N   UNL     1      47.015   6.463  13.906  0.00  0.00    +0.000 N 
ATOM      2  C   UNL     1      46.221   5.724  13.028  0.00  0.00    +0.000 A 
ATOM      3  C   UNL     1      45.288   4.855  13.589  0.00  0.00    +0.000 A 
ATOM      4  C   UNL     1      44.442   4.126  12.763  0.00  0.00    +0.000 A 
ATOM      5  C   UNL     1      44.575   4.247  11.388  0.00  0.00    +0.000 A 
ATOM      6  C   UNL     1      45.550   5.103  10.889  0.00  0.00    +0.000 A 
ATOM      7  N   UNL     1      46.353   5.859  11.693  0.00  0.00    +0.000 NA
ATOM      8  H   UNL     1      47.628   5.863  14.450  0.00  0.00    +0.000 HD
ENDROOT
BRANCH   1  10
ATOM      9  C   UNL     1      46.457   8.598  12.923  0.00  0.00    +0.000 C 
ATOM     10  C   UNL     1      47.608   7.709  13.406  0.00  0.00    +0.000 C 
BRANCH  10  11
ATOM     11  C   UNL     1      48.431   8.407  14.519  0.00  0.00    +0.000 C 
ATOM     12  O   UNL     1      47.894   9.156  15.341  0.00  0.00    +0.000 OA
BRANCH  11  13
ATOM     13  C   UNL     1      49.887   8.177  14.573  0.00  0.00    +0.000 A 
ATOM     14  C   UNL     1      50.806   8.907  13.836  0.00  0.00    +0.000 A 
ATOM     15  S   UNL     1      52.429   8.538  14.216  0.00  0.00    +0.000 S 
ATOM     16  C   UNL     1      51.957   7.372  15.360  0.00  0.00    +0.000 A 
ATOM     17  N   UNL     1      52.882   6.691  16.088  0.00  0.00    +0.000 NA
ATOM     18  C   UNL     1      52.376   5.856  16.933  0.00  0.00    +0.000 A 
ATOM     19  N   UNL     1      51.035   5.620  17.097  0.00  0.00    +0.000 N 
ATOM     20  C   UNL     1      50.074   6.182  16.285  0.00  0.00    +0.000 A 
ATOM     21  O   UNL     1      48.931   5.741  16.257  0.00  0.00    +0.000 OA
ATOM     22  C   UNL     1      50.582   7.231  15.414  0.00  0.00    +0.000 A 
ATOM     23  H   UNL     1      50.715   4.887  17.709  0.00  0.00    +0.000 HD
ENDBRANCH  11  13
ENDBRANCH  10  11
ENDBRANCH   1  10
BRANCH   6  24
ATOM     24  C   UNL     1      45.759   5.194   9.388  0.00  0.00    +0.000 C 
BRANCH  24  25
ATOM     25  N   UNL     1      44.782   4.445   8.585  0.00  0.00    +0.000 NA
ATOM     26  H   UNL     1      44.378   5.125   7.937  0.00  0.00    +0.000 HD
BRANCH  25  27
ATOM     27  C   UNL     1      45.341   3.347   7.771  0.00  0.00    +0.000 C 
ATOM     28  C   UNL     1      46.621   3.720   7.002  0.00  0.00    +0.000 C 
ATOM     29  C   UNL     1      47.249   2.480   6.357  0.00  0.00    +0.000 C 
ATOM     30  C   UNL     1      47.475   1.368   7.379  0.00  0.00    +0.000 C 
ATOM     31  N   UNL     1      46.222   1.002   8.035  0.00  0.00    +0.000 NA
ATOM     32  C   UNL     1      45.638   2.158   8.721  0.00  0.00    +0.000 C 
ATOM     33  H   UNL     1      46.400   0.269   8.722  0.00  0.00    +0.000 HD
ENDBRANCH  25  27
ENDBRANCH  24  25
ENDBRANCH   6  24
TORSDOF 6
ENDMDL
MODEL 8
REMARK VINA RESULT:    -7.106      2.394      4.112
REMARK INTER + INTRA:         -10.730
REMARK INTER:                 -10.084
REMARK INTRA:                  -0.646
REMARK UNBOUND:                -1.132
REMARK  Name = 
REMARK  7 active torsions:
REMARK  status: ('A' for Active; 'I' for Inactive)
REMARK    1  A    between atoms: C_1  and  C_2
REMARK    2  A    between atoms: C_2  and  N_3
REMARK    3  A    between atoms: C_2  and  C_18
REMARK    4  A    between atoms: C_8  and  C_9
REMARK    5  A    between atoms: C_9  and  N_10
REMARK    6  A    between atoms: N_10  and  C_11
REMARK    7  A    between atoms: C_18  and  C_20
REMARK                            x       y       z     vdW  Elec       q    Type
REMARK                         _______ _______ _______ _____ _____    ______ ____
ROOT
ATOM      1  N   UNL     1      47.845   5.577  15.294  0.00  0.00    +0.000 N 
ATOM      2  C   UNL     1      47.766   6.211  14.054  0.00  0.00    +0.000 A 
ATOM      3  C   UNL     1      48.861   6.976  13.658  0.00  0.00    +0.000 A 
ATOM      4  C   UNL     1      48.855   7.595  12.413  0.00  0.00    +0.000 A 
ATOM      5  C   UNL     1      47.735   7.473  11.607  0.00  0.00    +0.000 A 
ATOM      6  C   UNL     1      46.658   6.726  12.074  0.00  0.00    +0.000 A 
ATOM      7  N   UNL     1      46.675   6.076  13.273  0.00  0.00    +0.000 NA
ATOM      8  H   UNL     1      47.883   6.249  16.055  0.00  0.00    +0.000 HD
ENDROOT
BRANCH   1  10
ATOM      9  C   UNL     1      47.281   3.416  14.375  0.00  0.00    +0.000 C 
ATOM     10  C   UNL     1      46.996   4.400  15.515  0.00  0.00    +0.000 C 
BRANCH  10  11
ATOM     11  C   UNL     1      47.293   3.764  16.897  0.00  0.00    +0.000 C 
ATOM     12  O   UNL     1      46.526   2.938  17.401  0.00  0.00    +0.000 OA
BRANCH  11  13
ATOM     13  C   UNL     1      48.510   4.177  17.620  0.00  0.00    +0.000 A 
ATOM     14  C   UNL     1      49.743   3.568  17.454  0.00  0.00    +0.000 A 
ATOM     15  S   UNL     1      51.007   4.353  18.293  0.00  0.00    +0.000 S 
ATOM     16  C   UNL     1      49.941   5.517  18.925  0.00  0.00    +0.000 A 
ATOM     17  N   UNL     1      50.396   6.526  19.716  0.00  0.00    +0.000 NA
ATOM     18  C   UNL     1      49.478   7.347  20.104  0.00  0.00    +0.000 A 
ATOM     19  N   UNL     1      48.146   7.236  19.796  0.00  0.00    +0.000 N 
ATOM     20  C   UNL     1      47.624   6.156  19.118  0.00  0.00    +0.000 A 
ATOM     21  O   UNL     1      46.418   5.936  19.110  0.00  0.00    +0.000 OA
ATOM     22  C   UNL     1      48.634   5.280  18.544  0.00  0.00    +0.000 A 
ATOM     23  H   UNL     1      47.471   7.860  20.208  0.00  0.00    +0.000 HD
ENDBRANCH  11  13
ENDBRANCH  10  11
ENDBRANCH   1  10
BRANCH   6  24
ATOM     24  C   UNL     1      45.395   6.641  11.236  0.00  0.00    +0.000 C 
BRANCH  24  25
ATOM     25  N   UNL     1      44.494   5.537  11.595  0.00  0.00    +0.000 NA
ATOM     26  H   UNL     1      43.608   5.978  11.855  0.00  0.00    +0.000 HD
BRANCH  25  27
ATOM     27  C   UNL     1      44.202   4.581  10.508  0.00  0.00    +0.000 C 
ATOM     28  C   UNL     1      45.166   4.669   9.314  0.00  0.00    +0.000 C 
ATOM     29  C   UNL     1      44.926   3.515   8.335  0.00  0.00    +0.000 C 
ATOM     30  C   UNL     1      44.978   2.160   9.038  0.00  0.00    +0.000 C 
ATOM     31  N   UNL     1      44.001   2.099  10.122  0.00  0.00    +0.000 NA
ATOM     32  C   UNL     1      44.254   3.152  11.111  0.00  0.00    +0.000 C 
ATOM     33  H   UNL     1      44.064   1.193  10.586  0.00  0.00    +0.000 HD
ENDBRANCH  25  27
ENDBRANCH  24  25
ENDBRANCH   6  24
TORSDOF 6
ENDMDL
MODEL 9
REMARK VINA RESULT:    -6.969      1.821      2.671
REMARK INTER + INTRA:         -10.545
REMARK INTER:                  -9.684
REMARK INTRA:                  -0.861
REMARK UNBOUND:                -1.132
REMARK  Name = 
REMARK  7 active torsions:
REMARK  status: ('A' for Active; 'I' for Inactive)
REMARK    1  A    between atoms: C_1  and  C_2
REMARK    2  A    between atoms: C_2  and  N_3
REMARK    3  A    between atoms: C_2  and  C_18
REMARK    4  A    between atoms: C_8  and  C_9
REMARK    5  A    between atoms: C_9  and  N_10
REMARK    6  A    between atoms: N_10  and  C_11
REMARK    7  A    between atoms: C_18  and  C_20
REMARK                            x       y       z     vdW  Elec       q    Type
REMARK                         _______ _______ _______ _____ _____    ______ ____
ROOT
ATOM      1  N   UNL     1      47.875   8.253  13.973  0.00  0.00    +0.000 N 
ATOM      2  C   UNL     1      46.784   8.040  13.131  0.00  0.00    +0.000 A 
ATOM      3  C   UNL     1      46.011   9.148  12.796  0.00  0.00    +0.000 A 
ATOM      4  C   UNL     1      44.937   9.003  11.926  0.00  0.00    +0.000 A 
ATOM      5  C   UNL     1      44.630   7.741  11.442  0.00  0.00    +0.000 A 
ATOM      6  C   UNL     1      45.417   6.667  11.842  0.00  0.00    +0.000 A 
ATOM      7  N   UNL     1      46.502   6.809  12.658  0.00  0.00    +0.000 NA
ATOM      8  H   UNL     1      47.581   8.556  14.897  0.00  0.00    +0.000 HD
ENDROOT
BRANCH   1  10
ATOM      9  C   UNL     1      49.684   7.449  12.589  0.00  0.00    +0.000 C 
ATOM     10  C   UNL     1      48.970   7.276  13.933  0.00  0.00    +0.000 C 
BRANCH  10  11
ATOM     11  C   UNL     1      49.943   7.495  15.121  0.00  0.00    +0.000 C 
ATOM     12  O   UNL     1      51.164   7.386  14.979  0.00  0.00    +0.000 OA
BRANCH  11  13
ATOM     13  C   UNL     1      49.381   7.823  16.444  0.00  0.00    +0.000 A 
ATOM     14  C   UNL     1      49.428   9.090  17.004  0.00  0.00    +0.000 A 
ATOM     15  S   UNL     1      48.560   9.218  18.469  0.00  0.00    +0.000 S 
ATOM     16  C   UNL     1      48.115   7.578  18.416  0.00  0.00    +0.000 A 
ATOM     17  N   UNL     1      47.320   7.036  19.378  0.00  0.00    +0.000 NA
ATOM     18  C   UNL     1      47.046   5.788  19.195  0.00  0.00    +0.000 A 
ATOM     19  N   UNL     1      47.515   5.027  18.155  0.00  0.00    +0.000 N 
ATOM     20  C   UNL     1      48.432   5.496  17.239  0.00  0.00    +0.000 A 
ATOM     21  O   UNL     1      49.049   4.729  16.510  0.00  0.00    +0.000 OA
ATOM     22  C   UNL     1      48.663   6.930  17.324  0.00  0.00    +0.000 A 
ATOM     23  H   UNL     1      47.337   4.035  18.124  0.00  0.00    +0.000 HD
ENDBRANCH  11  13
ENDBRANCH  10  11
ENDBRANCH   1  10
BRANCH   6  24
ATOM     24  C   UNL     1      45.053   5.267  11.381  0.00  0.00    +0.000 C 
BRANCH  24  25
ATOM     25  N   UNL     1      44.085   5.217  10.276  0.00  0.00    +0.000 NA
ATOM     26  H   UNL     1      44.184   6.108   9.783  0.00  0.00    +0.000 HD
BRANCH  25  27
ATOM     27  C   UNL     1      44.311   4.144   9.286  0.00  0.00    +0.000 C 
ATOM     28  C   UNL     1      45.586   4.321   8.444  0.00  0.00    +0.000 C 
ATOM     29  C   UNL     1      45.856   3.072   7.598  0.00  0.00    +0.000 C 
ATOM     30  C   UNL     1      45.882   1.807   8.453  0.00  0.00    +0.000 C 
ATOM     31  N   UNL     1      44.627   1.647   9.182  0.00  0.00    +0.000 NA
ATOM     32  C   UNL     1      44.382   2.799  10.055  0.00  0.00    +0.000 C 
ATOM     33  H   UNL     1      44.673   0.805   9.757  0.00  0.00    +0.000 HD
ENDBRANCH  25  27
ENDBRANCH  24  25
ENDBRANCH   6  24
TORSDOF 6
ENDMDL
