MODEL 1
REMARK VINA RESULT:    -8.206      0.000      0.000
REMARK INTER + INTRA:         -11.018
REMARK INTER:                 -10.604
REMARK INTRA:                  -0.414
REMARK UNBOUND:                -0.414
REMARK  Name = 
REMARK  5 active torsions:
REMARK  status: ('A' for Active; 'I' for Inactive)
REMARK    1  A    between atoms: C_2  and  C_18
REMARK    2  A    between atoms: N_3  and  C_4
REMARK    3  A    between atoms: C_4  and  C_5
REMARK    4  A    between atoms: C_8  and  C_9
REMARK    5  A    between atoms: C_9  and  C_10
REMARK                            x       y       z     vdW  Elec       q    Type
REMARK                         _______ _______ _______ _____ _____    ______ ____
ROOT
ATOM      1  O   UNL     1      46.530   3.440  14.072  0.00  0.00    +0.000 OA
ATOM      2  C   UNL     1      46.533   4.652  14.325  0.00  0.00    +0.000 C 
ATOM      3  N   UNL     1      45.470   5.453  13.959  0.00  0.00    +0.000 N 
ATOM      4  H   UNL     1      45.562   6.461  14.013  0.00  0.00    +0.000 HD
ENDROOT
BRANCH   2   5
ATOM      5  C   UNL     1      47.618   5.307  15.039  0.00  0.00    +0.000 A 
ATOM      6  C   UNL     1      48.437   6.286  14.499  0.00  0.00    +0.000 A 
ATOM      7  S   UNL     1      49.567   6.905  15.630  0.00  0.00    +0.000 S 
ATOM      8  C   UNL     1      48.975   5.897  16.870  0.00  0.00    +0.000 A 
ATOM      9  N   UNL     1      49.498   5.926  18.128  0.00  0.00    +0.000 NA
ATOM     10  C   UNL     1      48.919   5.121  18.956  0.00  0.00    +0.000 A 
ATOM     11  N   UNL     1      47.877   4.286  18.649  0.00  0.00    +0.000 N 
ATOM     12  C   UNL     1      47.378   4.150  17.375  0.00  0.00    +0.000 A 
ATOM     13  O   UNL     1      46.582   3.259  17.121  0.00  0.00    +0.000 OA
ATOM     14  C   UNL     1      47.953   5.087  16.421  0.00  0.00    +0.000 A 
ATOM     15  H   UNL     1      47.502   3.645  19.327  0.00  0.00    +0.000 HD
ENDBRANCH   2   5
BRANCH   3  16
ATOM     16  C   UNL     1      44.361   4.879  13.244  0.00  0.00    +0.000 C 
BRANCH  16  17
ATOM     17  C   UNL     1      44.708   4.655  11.790  0.00  0.00    +0.000 A 
ATOM     18  C   UNL     1      45.425   5.640  11.140  0.00  0.00    +0.000 A 
ATOM     19  C   UNL     1      45.829   5.489   9.817  0.00  0.00    +0.000 A 
ATOM     20  C   UNL     1      45.552   4.335   9.082  0.00  0.00    +0.000 A 
ATOM     21  C   UNL     1      44.756   3.358   9.706  0.00  0.00    +0.000 A 
ATOM     22  C   UNL     1      44.341   3.517  11.054  0.00  0.00    +0.000 A 
BRANCH  20  23
ATOM     23  C   UNL     1      46.041   4.263   7.649  0.00  0.00    +0.000 C 
BRANCH  23  24
ATOM     24  C   UNL     1      45.992   2.948   6.807  0.00  0.00    +0.000 C 
ATOM     25  C   UNL     1      46.599   1.704   7.458  0.00  0.00    +0.000 C 
ATOM     26  C   UNL     1      48.085   1.501   7.180  0.00  0.00    +0.000 C 
ATOM     27  N   UNL     1      48.491   1.651   5.783  0.00  0.00    +0.000 NA
ATOM     28  C   UNL     1      47.885   2.750   5.039  0.00  0.00    +0.000 C 
ATOM     29  C   UNL     1      46.405   3.005   5.327  0.00  0.00    +0.000 C 
ATOM     30  H   UNL     1      48.330   0.776   5.289  0.00  0.00    +0.000 HD
ENDBRANCH  23  24
ENDBRANCH  20  23
ENDBRANCH  16  17
ENDBRANCH   3  16
TORSDOF 5
ENDMDL
MODEL 2
REMARK VINA RESULT:    -7.916      3.396      4.702
REMARK INTER + INTRA:         -10.644
REMARK INTER:                  -9.200
REMARK INTRA:                  -1.445
REMARK UNBOUND:                -0.414
REMARK  Name = 
REMARK  5 active torsions:
REMARK  status: ('A' for Active; 'I' for Inactive)
REMARK    1  A    between atoms: C_2  and  C_18
REMARK    2  A    between atoms: N_3  and  C_4
REMARK    3  A    between atoms: C_4  and  C_5
REMARK    4  A    between atoms: C_8  and  C_9
REMARK    5  A    between atoms: C_9  and  C_10
REMARK                            x       y       z     vdW  Elec       q    Type
REMARK                         _______ _______ _______ _____ _____    ______ ____
ROOT
ATOM      1  O   UNL     1      50.315   7.281  14.780  0.00  0.00    +0.000 OA
ATOM      2  C   UNL     1      49.404   7.122  15.603  0.00  0.00    +0.000 C 
ATOM      3  N   UNL     1      48.209   7.800  15.474  0.00  0.00    +0.000 N 
ATOM      4  H   UNL     1      47.547   7.797  16.242  0.00  0.00    +0.000 HD
ENDROOT
BRANCH   2   5
ATOM      5  C   UNL     1      49.508   6.207  16.729  0.00  0.00    +0.000 A 
ATOM      6  C   UNL     1      50.357   6.384  17.811  0.00  0.00    +0.000 A 
ATOM      7  S   UNL     1      50.178   5.162  19.001  0.00  0.00    +0.000 S 
ATOM      8  C   UNL     1      48.952   4.384  18.111  0.00  0.00    +0.000 A 
ATOM      9  N   UNL     1      48.338   3.257  18.570  0.00  0.00    +0.000 NA
ATOM     10  C   UNL     1      47.412   2.808  17.789  0.00  0.00    +0.000 A 
ATOM     11  N   UNL     1      47.046   3.369  16.594  0.00  0.00    +0.000 N 
ATOM     12  C   UNL     1      47.696   4.447  16.043  0.00  0.00    +0.000 A 
ATOM     13  O   UNL     1      47.454   4.786  14.894  0.00  0.00    +0.000 OA
ATOM     14  C   UNL     1      48.703   5.030  16.918  0.00  0.00    +0.000 A 
ATOM     15  H   UNL     1      46.349   2.942  16.007  0.00  0.00    +0.000 HD
ENDBRANCH   2   5
BRANCH   3  16
ATOM     16  C   UNL     1      48.032   8.728  14.389  0.00  0.00    +0.000 C 
BRANCH  16  17
ATOM     17  C   UNL     1      47.137   8.149  13.318  0.00  0.00    +0.000 A 
ATOM     18  C   UNL     1      47.639   7.121  12.545  0.00  0.00    +0.000 A 
ATOM     19  C   UNL     1      46.863   6.498  11.572  0.00  0.00    +0.000 A 
ATOM     20  C   UNL     1      45.534   6.860  11.337  0.00  0.00    +0.000 A 
ATOM     21  C   UNL     1      45.035   7.955  12.063  0.00  0.00    +0.000 A 
ATOM     22  C   UNL     1      45.831   8.592  13.050  0.00  0.00    +0.000 A 
BRANCH  20  23
ATOM     23  C   UNL     1      44.770   6.117  10.261  0.00  0.00    +0.000 C 
BRANCH  23  24
ATOM     24  C   UNL     1      43.886   4.865  10.568  0.00  0.00    +0.000 C 
ATOM     25  C   UNL     1      42.726   5.077  11.540  0.00  0.00    +0.000 C 
ATOM     26  C   UNL     1      43.075   4.848  13.008  0.00  0.00    +0.000 C 
ATOM     27  N   UNL     1      43.823   3.624  13.293  0.00  0.00    +0.000 NA
ATOM     28  C   UNL     1      44.889   3.274  12.360  0.00  0.00    +0.000 C 
ATOM     29  C   UNL     1      44.584   3.532  10.884  0.00  0.00    +0.000 C 
ATOM     30  H   UNL     1      43.176   2.844  13.377  0.00  0.00    +0.000 HD
ENDBRANCH  23  24
ENDBRANCH  20  23
ENDBRANCH  16  17
ENDBRANCH   3  16
TORSDOF 5
ENDMDL
MODEL 3
REMARK VINA RESULT:    -7.293      3.807      6.074
REMARK INTER + INTRA:          -9.839
REMARK INTER:                  -8.736
REMARK INTRA:                  -1.103
REMARK UNBOUND:                -0.414
REMARK  Name = 
REMARK  5 active torsions:
REMARK  status: ('A' for Active; 'I' for Inactive)
REMARK    1  A    between atoms: C_2  and  C_18
REMARK    2  A    between atoms: N_3  and  C_4
REMARK    3  A    between atoms: C_4  and  C_5
REMARK    4  A    between atoms: C_8  and  C_9
REMARK    5  A    between atoms: C_9  and  C_10
REMARK                            x       y       z     vdW  Elec       q    Type
REMARK                         _______ _______ _______ _____ _____    ______ ____
ROOT
ATOM      1  O   UNL     1      49.980   5.648  19.212  0.00  0.00    +0.000 OA
ATOM      2  C   UNL     1      50.816   5.341  18.353  0.00  0.00    +0.000 C 
ATOM      3  N   UNL     1      50.722   5.833  17.067  0.00  0.00    +0.000 N 
ATOM      4  H   UNL     1      51.304   5.438  16.336  0.00  0.00    +0.000 HD
ENDROOT
BRANCH   2   5
ATOM      5  C   UNL     1      51.955   4.480  18.632  0.00  0.00    +0.000 A 
ATOM      6  C   UNL     1      53.051   4.850  19.398  0.00  0.00    +0.000 A 
ATOM      7  S   UNL     1      54.182   3.576  19.595  0.00  0.00    +0.000 S 
ATOM      8  C   UNL     1      53.227   2.500  18.684  0.00  0.00    +0.000 A 
ATOM      9  N   UNL     1      53.608   1.209  18.468  0.00  0.00    +0.000 NA
ATOM     10  C   UNL     1      52.760   0.518  17.780  0.00  0.00    +0.000 A 
ATOM     11  N   UNL     1      51.573   0.992  17.283  0.00  0.00    +0.000 N 
ATOM     12  C   UNL     1      51.189   2.306  17.392  0.00  0.00    +0.000 A 
ATOM     13  O   UNL     1      50.219   2.714  16.771  0.00  0.00    +0.000 OA
ATOM     14  C   UNL     1      52.081   3.109  18.217  0.00  0.00    +0.000 A 
ATOM     15  H   UNL     1      50.978   0.416  16.713  0.00  0.00    +0.000 HD
ENDBRANCH   2   5
BRANCH   3  16
ATOM     16  C   UNL     1      49.619   6.686  16.711  0.00  0.00    +0.000 C 
BRANCH  16  17
ATOM     17  C   UNL     1      48.633   5.960  15.826  0.00  0.00    +0.000 A 
ATOM     18  C   UNL     1      48.476   6.409  14.530  0.00  0.00    +0.000 A 
ATOM     19  C   UNL     1      47.627   5.765  13.636  0.00  0.00    +0.000 A 
ATOM     20  C   UNL     1      46.904   4.624  13.988  0.00  0.00    +0.000 A 
ATOM     21  C   UNL     1      46.993   4.201  15.326  0.00  0.00    +0.000 A 
ATOM     22  C   UNL     1      47.856   4.864  16.237  0.00  0.00    +0.000 A 
BRANCH  20  23
ATOM     23  C   UNL     1      46.010   3.990  12.941  0.00  0.00    +0.000 C 
BRANCH  23  24
ATOM     24  C   UNL     1      44.475   4.270  12.862  0.00  0.00    +0.000 C 
ATOM     25  C   UNL     1      43.690   3.455  11.834  0.00  0.00    +0.000 C 
ATOM     26  C   UNL     1      43.598   4.094  10.451  0.00  0.00    +0.000 C 
ATOM     27  N   UNL     1      43.232   5.509  10.435  0.00  0.00    +0.000 NA
ATOM     28  C   UNL     1      43.849   6.358  11.449  0.00  0.00    +0.000 C 
ATOM     29  C   UNL     1      43.994   5.730  12.835  0.00  0.00    +0.000 C 
ATOM     30  H   UNL     1      42.220   5.598  10.488  0.00  0.00    +0.000 HD
ENDBRANCH  23  24
ENDBRANCH  20  23
ENDBRANCH  16  17
ENDBRANCH   3  16
TORSDOF 5
ENDMDL
MODEL 4
REMARK VINA RESULT:    -7.283      4.243      9.567
REMARK INTER + INTRA:          -9.825
REMARK INTER:                  -8.808
REMARK INTRA:                  -1.017
REMARK UNBOUND:                -0.414
REMARK  Name = 
REMARK  5 active torsions:
REMARK  status: ('A' for Active; 'I' for Inactive)
REMARK    1  A    between atoms: C_2  and  C_18
REMARK    2  A    between atoms: N_3  and  C_4
REMARK    3  A    between atoms: C_4  and  C_5
REMARK    4  A    between atoms: C_8  and  C_9
REMARK    5  A    between atoms: C_9  and  C_10
REMARK                            x       y       z     vdW  Elec       q    Type
REMARK                         _______ _______ _______ _____ _____    ______ ____
ROOT
ATOM      1  O   UNL     1      47.248   3.160  13.985  0.00  0.00    +0.000 OA
ATOM      2  C   UNL     1      46.891   4.249  14.452  0.00  0.00    +0.000 C 
ATOM      3  N   UNL     1      46.919   4.479  15.813  0.00  0.00    +0.000 N 
ATOM      4  H   UNL     1      46.462   5.302  16.190  0.00  0.00    +0.000 HD
ENDROOT
BRANCH   2   5
ATOM      5  C   UNL     1      46.452   5.359  13.619  0.00  0.00    +0.000 A 
ATOM      6  C   UNL     1      47.213   6.484  13.343  0.00  0.00    +0.000 A 
ATOM      7  S   UNL     1      46.431   7.567  12.268  0.00  0.00    +0.000 S 
ATOM      8  C   UNL     1      45.072   6.550  12.130  0.00  0.00    +0.000 A 
ATOM      9  N   UNL     1      44.011   6.875  11.338  0.00  0.00    +0.000 NA
ATOM     10  C   UNL     1      43.075   5.984  11.323  0.00  0.00    +0.000 A 
ATOM     11  N   UNL     1      43.092   4.808  12.025  0.00  0.00    +0.000 N 
ATOM     12  C   UNL     1      44.091   4.478  12.909  0.00  0.00    +0.000 A 
ATOM     13  O   UNL     1      43.963   3.513  13.646  0.00  0.00    +0.000 OA
ATOM     14  C   UNL     1      45.203   5.420  12.910  0.00  0.00    +0.000 A 
ATOM     15  H   UNL     1      42.308   4.178  12.009  0.00  0.00    +0.000 HD
ENDBRANCH   2   5
BRANCH   3  16
ATOM     16  C   UNL     1      47.335   3.428  16.702  0.00  0.00    +0.000 C 
BRANCH  16  17
ATOM     17  C   UNL     1      48.809   3.535  17.018  0.00  0.00    +0.000 A 
ATOM     18  C   UNL     1      49.349   4.798  17.157  0.00  0.00    +0.000 A 
ATOM     19  C   UNL     1      50.685   4.983  17.498  0.00  0.00    +0.000 A 
ATOM     20  C   UNL     1      51.547   3.910  17.735  0.00  0.00    +0.000 A 
ATOM     21  C   UNL     1      51.032   2.620  17.521  0.00  0.00    +0.000 A 
ATOM     22  C   UNL     1      49.670   2.435  17.168  0.00  0.00    +0.000 A 
BRANCH  20  23
ATOM     23  C   UNL     1      52.984   4.215  18.107  0.00  0.00    +0.000 C 
BRANCH  23  24
ATOM     24  C   UNL     1      53.388   4.802  19.498  0.00  0.00    +0.000 C 
ATOM     25  C   UNL     1      52.646   4.239  20.711  0.00  0.00    +0.000 C 
ATOM     26  C   UNL     1      51.366   4.983  21.076  0.00  0.00    +0.000 C 
ATOM     27  N   UNL     1      51.475   6.441  21.119  0.00  0.00    +0.000 NA
ATOM     28  C   UNL     1      52.255   7.071  20.059  0.00  0.00    +0.000 C 
ATOM     29  C   UNL     1      53.523   6.327  19.642  0.00  0.00    +0.000 C 
ATOM     30  H   UNL     1      51.840   6.726  22.025  0.00  0.00    +0.000 HD
ENDBRANCH  23  24
ENDBRANCH  20  23
ENDBRANCH  16  17
ENDBRANCH   3  16
TORSDOF 5
ENDMDL
MODEL 5
REMARK VINA RESULT:    -7.024      3.599      9.571
REMARK INTER + INTRA:          -9.492
REMARK INTER:                  -8.256
REMARK INTRA:                  -1.236
REMARK UNBOUND:                -0.414
REMARK  Name = 
REMARK  5 active torsions:
REMARK  status: ('A' for Active; 'I' for Inactive)
REMARK    1  A    between atoms: C_2  and  C_18
REMARK    2  A    between atoms: N_3  and  C_4
REMARK    3  A    between atoms: C_4  and  C_5
REMARK    4  A    between atoms: C_8  and  C_9
REMARK    5  A    between atoms: C_9  and  C_10
REMARK                            x       y       z     vdW  Elec       q    Type
REMARK                         _______ _______ _______ _____ _____    ______ ____
ROOT
ATOM      1  O   UNL     1      48.450   5.762  13.917  0.00  0.00    +0.000 OA
ATOM      2  C   UNL     1      47.269   5.418  14.058  0.00  0.00    +0.000 C 
ATOM      3  N   UNL     1      46.888   4.620  15.118  0.00  0.00    +0.000 N 
ATOM      4  H   UNL     1      45.964   4.204  15.124  0.00  0.00    +0.000 HD
ENDROOT
BRANCH   2   5
ATOM      5  C   UNL     1      46.209   5.841  13.156  0.00  0.00    +0.000 A 
ATOM      6  C   UNL     1      45.887   7.163  12.888  0.00  0.00    +0.000 A 
ATOM      7  S   UNL     1      44.639   7.317  11.722  0.00  0.00    +0.000 S 
ATOM      8  C   UNL     1      44.517   5.628  11.534  0.00  0.00    +0.000 A 
ATOM      9  N   UNL     1      43.633   5.065  10.662  0.00  0.00    +0.000 NA
ATOM     10  C   UNL     1      43.686   3.775  10.620  0.00  0.00    +0.000 A 
ATOM     11  N   UNL     1      44.528   2.994  11.368  0.00  0.00    +0.000 N 
ATOM     12  C   UNL     1      45.368   3.505  12.327  0.00  0.00    +0.000 A 
ATOM     13  O   UNL     1      45.954   2.754  13.092  0.00  0.00    +0.000 OA
ATOM     14  C   UNL     1      45.393   4.961  12.364  0.00  0.00    +0.000 A 
ATOM     15  H   UNL     1      44.485   1.990  11.325  0.00  0.00    +0.000 HD
ENDBRANCH   2   5
BRANCH   3  16
ATOM     16  C   UNL     1      47.881   4.155  16.051  0.00  0.00    +0.000 C 
BRANCH  16  17
ATOM     17  C   UNL     1      47.989   5.084  17.237  0.00  0.00    +0.000 A 
ATOM     18  C   UNL     1      49.142   5.834  17.366  0.00  0.00    +0.000 A 
ATOM     19  C   UNL     1      49.300   6.750  18.401  0.00  0.00    +0.000 A 
ATOM     20  C   UNL     1      48.302   6.978  19.351  0.00  0.00    +0.000 A 
ATOM     21  C   UNL     1      47.156   6.167  19.277  0.00  0.00    +0.000 A 
ATOM     22  C   UNL     1      47.000   5.229  18.224  0.00  0.00    +0.000 A 
BRANCH  20  23
ATOM     23  C   UNL     1      48.566   8.003  20.436  0.00  0.00    +0.000 C 
BRANCH  23  24
ATOM     24  C   UNL     1      48.513   9.542  20.171  0.00  0.00    +0.000 C 
ATOM     25  C   UNL     1      47.416  10.029  19.224  0.00  0.00    +0.000 C 
ATOM     26  C   UNL     1      47.816  10.068  17.753  0.00  0.00    +0.000 C 
ATOM     27  N   UNL     1      49.110  10.687  17.469  0.00  0.00    +0.000 NA
ATOM     28  C   UNL     1      50.204  10.369  18.381  0.00  0.00    +0.000 C 
ATOM     29  C   UNL     1      49.825  10.281  19.859  0.00  0.00    +0.000 C 
ATOM     30  H   UNL     1      48.997  11.697  17.413  0.00  0.00    +0.000 HD
ENDBRANCH  23  24
ENDBRANCH  20  23
ENDBRANCH  16  17
ENDBRANCH   3  16
TORSDOF 5
ENDMDL
MODEL 6
REMARK VINA RESULT:    -6.932      4.495      9.478
REMARK INTER + INTRA:          -9.373
REMARK INTER:                  -8.129
REMARK INTRA:                  -1.244
REMARK UNBOUND:                -0.414
REMARK  Name = 
REMARK  5 active torsions:
REMARK  status: ('A' for Active; 'I' for Inactive)
REMARK    1  A    between atoms: C_2  and  C_18
REMARK    2  A    between atoms: N_3  and  C_4
REMARK    3  A    between atoms: C_4  and  C_5
REMARK    4  A    between atoms: C_8  and  C_9
REMARK    5  A    between atoms: C_9  and  C_10
REMARK                            x       y       z     vdW  Elec       q    Type
REMARK                         _______ _______ _______ _____ _____    ______ ____
ROOT
ATOM      1  O   UNL     1      47.474   3.066  14.334  0.00  0.00    +0.000 OA
ATOM      2  C   UNL     1      46.933   4.120  14.690  0.00  0.00    +0.000 C 
ATOM      3  N   UNL     1      46.841   4.451  16.027  0.00  0.00    +0.000 N 
ATOM      4  H   UNL     1      46.246   5.221  16.312  0.00  0.00    +0.000 HD
ENDROOT
BRANCH   2   5
ATOM      5  C   UNL     1      46.389   5.086  13.748  0.00  0.00    +0.000 A 
ATOM      6  C   UNL     1      45.173   4.950  13.096  0.00  0.00    +0.000 A 
ATOM      7  S   UNL     1      44.793   6.302  12.112  0.00  0.00    +0.000 S 
ATOM      8  C   UNL     1      46.228   7.107  12.551  0.00  0.00    +0.000 A 
ATOM      9  N   UNL     1      46.533   8.345  12.069  0.00  0.00    +0.000 NA
ATOM     10  C   UNL     1      47.644   8.826  12.520  0.00  0.00    +0.000 A 
ATOM     11  N   UNL     1      48.482   8.190  13.398  0.00  0.00    +0.000 N 
ATOM     12  C   UNL     1      48.268   6.906  13.839  0.00  0.00    +0.000 A 
ATOM     13  O   UNL     1      49.138   6.321  14.465  0.00  0.00    +0.000 OA
ATOM     14  C   UNL     1      46.994   6.346  13.410  0.00  0.00    +0.000 A 
ATOM     15  H   UNL     1      49.359   8.598  13.674  0.00  0.00    +0.000 HD
ENDBRANCH   2   5
BRANCH   3  16
ATOM     16  C   UNL     1      47.351   3.543  17.020  0.00  0.00    +0.000 C 
BRANCH  16  17
ATOM     17  C   UNL     1      48.820   3.788  17.277  0.00  0.00    +0.000 A 
ATOM     18  C   UNL     1      49.654   2.690  17.347  0.00  0.00    +0.000 A 
ATOM     19  C   UNL     1      51.026   2.831  17.529  0.00  0.00    +0.000 A 
ATOM     20  C   UNL     1      51.638   4.083  17.632  0.00  0.00    +0.000 A 
ATOM     21  C   UNL     1      50.792   5.205  17.641  0.00  0.00    +0.000 A 
ATOM     22  C   UNL     1      49.392   5.058  17.461  0.00  0.00    +0.000 A 
BRANCH  20  23
ATOM     23  C   UNL     1      53.140   4.132  17.823  0.00  0.00    +0.000 C 
BRANCH  23  24
ATOM     24  C   UNL     1      53.805   4.568  19.168  0.00  0.00    +0.000 C 
ATOM     25  C   UNL     1      53.253   3.919  20.438  0.00  0.00    +0.000 C 
ATOM     26  C   UNL     1      52.094   4.671  21.085  0.00  0.00    +0.000 C 
ATOM     27  N   UNL     1      52.285   6.113  21.236  0.00  0.00    +0.000 NA
ATOM     28  C   UNL     1      52.905   6.813  20.116  0.00  0.00    +0.000 C 
ATOM     29  C   UNL     1      54.043   6.067  19.420  0.00  0.00    +0.000 C 
ATOM     30  H   UNL     1      52.813   6.297  22.086  0.00  0.00    +0.000 HD
ENDBRANCH  23  24
ENDBRANCH  20  23
ENDBRANCH  16  17
ENDBRANCH   3  16
TORSDOF 5
ENDMDL
MODEL 7
REMARK VINA RESULT:    -6.743      3.987      9.978
REMARK INTER + INTRA:          -9.128
REMARK INTER:                  -8.178
REMARK INTRA:                  -0.951
REMARK UNBOUND:                -0.414
REMARK  Name = 
REMARK  5 active torsions:
REMARK  status: ('A' for Active; 'I' for Inactive)
REMARK    1  A    between atoms: C_2  and  C_18
REMARK    2  A    between atoms: N_3  and  C_4
REMARK    3  A    between atoms: C_4  and  C_5
REMARK    4  A    between atoms: C_8  and  C_9
REMARK    5  A    between atoms: C_9  and  C_10
REMARK                            x       y       z     vdW  Elec       q    Type
REMARK                         _______ _______ _______ _____ _____    ______ ____
ROOT
ATOM      1  O   UNL     1      48.896   6.303  12.610  0.00  0.00    +0.000 OA
ATOM      2  C   UNL     1      47.855   6.559  13.229  0.00  0.00    +0.000 C 
ATOM      3  N   UNL     1      47.903   7.053  14.517  0.00  0.00    +0.000 N 
ATOM      4  H   UNL     1      47.053   7.091  15.070  0.00  0.00    +0.000 HD
ENDROOT
BRANCH   2   5
ATOM      5  C   UNL     1      46.531   6.391  12.651  0.00  0.00    +0.000 A 
ATOM      6  C   UNL     1      45.779   7.416  12.096  0.00  0.00    +0.000 A 
ATOM      7  S   UNL     1      44.296   6.867  11.435  0.00  0.00    +0.000 S 
ATOM      8  C   UNL     1      44.632   5.251  11.854  0.00  0.00    +0.000 A 
ATOM      9  N   UNL     1      43.766   4.240  11.561  0.00  0.00    +0.000 NA
ATOM     10  C   UNL     1      44.183   3.071  11.922  0.00  0.00    +0.000 A 
ATOM     11  N   UNL     1      45.373   2.816  12.552  0.00  0.00    +0.000 N 
ATOM     12  C   UNL     1      46.234   3.808  12.954  0.00  0.00    +0.000 A 
ATOM     13  O   UNL     1      47.183   3.541  13.675  0.00  0.00    +0.000 OA
ATOM     14  C   UNL     1      45.840   5.138  12.509  0.00  0.00    +0.000 A 
ATOM     15  H   UNL     1      45.617   1.887  12.852  0.00  0.00    +0.000 HD
ENDBRANCH   2   5
BRANCH   3  16
ATOM     16  C   UNL     1      49.176   7.241  15.160  0.00  0.00    +0.000 C 
BRANCH  16  17
ATOM     17  C   UNL     1      49.201   6.584  16.520  0.00  0.00    +0.000 A 
ATOM     18  C   UNL     1      48.255   5.613  16.785  0.00  0.00    +0.000 A 
ATOM     19  C   UNL     1      48.241   4.924  17.993  0.00  0.00    +0.000 A 
ATOM     20  C   UNL     1      49.187   5.157  18.993  0.00  0.00    +0.000 A 
ATOM     21  C   UNL     1      50.108   6.196  18.769  0.00  0.00    +0.000 A 
ATOM     22  C   UNL     1      50.116   6.901  17.537  0.00  0.00    +0.000 A 
BRANCH  20  23
ATOM     23  C   UNL     1      49.092   4.350  20.272  0.00  0.00    +0.000 C 
BRANCH  23  24
ATOM     24  C   UNL     1      48.825   5.006  21.665  0.00  0.00    +0.000 C 
ATOM     25  C   UNL     1      47.460   5.669  21.850  0.00  0.00    +0.000 C 
ATOM     26  C   UNL     1      47.409   7.142  21.454  0.00  0.00    +0.000 C 
ATOM     27  N   UNL     1      48.502   7.969  21.962  0.00  0.00    +0.000 NA
ATOM     28  C   UNL     1      49.838   7.384  21.928  0.00  0.00    +0.000 C 
ATOM     29  C   UNL     1      49.916   5.898  22.280  0.00  0.00    +0.000 C 
ATOM     30  H   UNL     1      48.287   8.268  22.911  0.00  0.00    +0.000 HD
ENDBRANCH  23  24
ENDBRANCH  20  23
ENDBRANCH  16  17
ENDBRANCH   3  16
TORSDOF 5
ENDMDL
MODEL 8
REMARK VINA RESULT:    -6.726      4.269      9.300
REMARK INTER + INTRA:          -9.106
REMARK INTER:                  -7.684
REMARK INTRA:                  -1.422
REMARK UNBOUND:                -0.414
REMARK  Name = 
REMARK  5 active torsions:
REMARK  status: ('A' for Active; 'I' for Inactive)
REMARK    1  A    between atoms: C_2  and  C_18
REMARK    2  A    between atoms: N_3  and  C_4
REMARK    3  A    between atoms: C_4  and  C_5
REMARK    4  A    between atoms: C_8  and  C_9
REMARK    5  A    between atoms: C_9  and  C_10
REMARK                            x       y       z     vdW  Elec       q    Type
REMARK                         _______ _______ _______ _____ _____    ______ ____
ROOT
ATOM      1  O   UNL     1      47.479   3.314  13.753  0.00  0.00    +0.000 OA
ATOM      2  C   UNL     1      46.669   4.191  14.077  0.00  0.00    +0.000 C 
ATOM      3  N   UNL     1      46.563   4.606  15.390  0.00  0.00    +0.000 N 
ATOM      4  H   UNL     1      45.783   5.191  15.669  0.00  0.00    +0.000 HD
ENDROOT
BRANCH   2   5
ATOM      5  C   UNL     1      45.805   4.862  13.118  0.00  0.00    +0.000 A 
ATOM      6  C   UNL     1      44.778   4.246  12.420  0.00  0.00    +0.000 A 
ATOM      7  S   UNL     1      43.904   5.336  11.426  0.00  0.00    +0.000 S 
ATOM      8  C   UNL     1      44.861   6.656  11.921  0.00  0.00    +0.000 A 
ATOM      9  N   UNL     1      44.640   7.917  11.454  0.00  0.00    +0.000 NA
ATOM     10  C   UNL     1      45.435   8.807  11.948  0.00  0.00    +0.000 A 
ATOM     11  N   UNL     1      46.432   8.560  12.856  0.00  0.00    +0.000 N 
ATOM     12  C   UNL     1      46.756   7.295  13.285  0.00  0.00    +0.000 A 
ATOM     13  O   UNL     1      47.769   7.112  13.942  0.00  0.00    +0.000 OA
ATOM     14  C   UNL     1      45.844   6.266  12.807  0.00  0.00    +0.000 A 
ATOM     15  H   UNL     1      47.050   9.290  13.166  0.00  0.00    +0.000 HD
ENDBRANCH   2   5
BRANCH   3  16
ATOM     16  C   UNL     1      47.381   3.986  16.399  0.00  0.00    +0.000 C 
BRANCH  16  17
ATOM     17  C   UNL     1      48.041   5.023  17.277  0.00  0.00    +0.000 A 
ATOM     18  C   UNL     1      49.262   5.527  16.873  0.00  0.00    +0.000 A 
ATOM     19  C   UNL     1      49.912   6.522  17.597  0.00  0.00    +0.000 A 
ATOM     20  C   UNL     1      49.363   7.077  18.755  0.00  0.00    +0.000 A 
ATOM     21  C   UNL     1      48.160   6.520  19.220  0.00  0.00    +0.000 A 
ATOM     22  C   UNL     1      47.502   5.502  18.482  0.00  0.00    +0.000 A 
BRANCH  20  23
ATOM     23  C   UNL     1      50.146   8.161  19.469  0.00  0.00    +0.000 C 
BRANCH  23  24
ATOM     24  C   UNL     1      49.946   9.681  19.167  0.00  0.00    +0.000 C 
ATOM     25  C   UNL     1      48.637  10.302  19.655  0.00  0.00    +0.000 C 
ATOM     26  C   UNL     1      47.488  10.235  18.654  0.00  0.00    +0.000 C 
ATOM     27  N   UNL     1      47.819  10.638  17.288  0.00  0.00    +0.000 NA
ATOM     28  C   UNL     1      49.101  10.183  16.762  0.00  0.00    +0.000 C 
ATOM     29  C   UNL     1      50.264  10.200  17.755  0.00  0.00    +0.000 C 
ATOM     30  H   UNL     1      47.760  11.651  17.211  0.00  0.00    +0.000 HD
ENDBRANCH  23  24
ENDBRANCH  20  23
ENDBRANCH  16  17
ENDBRANCH   3  16
TORSDOF 5
ENDMDL
MODEL 9
REMARK VINA RESULT:    -6.573      4.155      9.698
REMARK INTER + INTRA:          -8.908
REMARK INTER:                  -7.896
REMARK INTRA:                  -1.012
REMARK UNBOUND:                -0.414
REMARK  Name = 
REMARK  5 active torsions:
REMARK  status: ('A' for Active; 'I' for Inactive)
REMARK    1  A    between atoms: C_2  and  C_18
REMARK    2  A    between atoms: N_3  and  C_4
REMARK    3  A    between atoms: C_4  and  C_5
REMARK    4  A    between atoms: C_8  and  C_9
REMARK    5  A    between atoms: C_9  and  C_10
REMARK                            x       y       z     vdW  Elec       q    Type
REMARK                         _______ _______ _______ _____ _____    ______ ____
ROOT
ATOM      1  O   UNL     1      47.559   3.527  13.673  0.00  0.00    +0.000 OA
ATOM      2  C   UNL     1      46.890   4.430  14.190  0.00  0.00    +0.000 C 
ATOM      3  N   UNL     1      46.753   4.513  15.561  0.00  0.00    +0.000 N 
ATOM      4  H   UNL     1      46.066   5.144  15.958  0.00  0.00    +0.000 HD
ENDROOT
BRANCH   2   5
ATOM      5  C   UNL     1      46.234   5.471  13.413  0.00  0.00    +0.000 A 
ATOM      6  C   UNL     1      46.746   6.744  13.213  0.00  0.00    +0.000 A 
ATOM      7  S   UNL     1      45.762   7.701  12.186  0.00  0.00    +0.000 S 
ATOM      8  C   UNL     1      44.644   6.434  11.969  0.00  0.00    +0.000 A 
ATOM      9  N   UNL     1      43.543   6.577  11.178  0.00  0.00    +0.000 NA
ATOM     10  C   UNL     1      42.813   5.514  11.098  0.00  0.00    +0.000 A 
ATOM     11  N   UNL     1      43.070   4.328  11.734  0.00  0.00    +0.000 N 
ATOM     12  C   UNL     1      44.112   4.163  12.615  0.00  0.00    +0.000 A 
ATOM     13  O   UNL     1      44.183   3.151  13.295  0.00  0.00    +0.000 OA
ATOM     14  C   UNL     1      45.003   5.312  12.687  0.00  0.00    +0.000 A 
ATOM     15  H   UNL     1      42.434   3.552  11.670  0.00  0.00    +0.000 HD
ENDBRANCH   2   5
BRANCH   3  16
ATOM     16  C   UNL     1      47.367   3.516  16.398  0.00  0.00    +0.000 C 
BRANCH  16  17
ATOM     17  C   UNL     1      47.950   4.138  17.646  0.00  0.00    +0.000 A 
ATOM     18  C   UNL     1      49.206   3.725  18.046  0.00  0.00    +0.000 A 
ATOM     19  C   UNL     1      49.834   4.285  19.154  0.00  0.00    +0.000 A 
ATOM     20  C   UNL     1      49.245   5.302  19.908  0.00  0.00    +0.000 A 
ATOM     21  C   UNL     1      47.937   5.677  19.559  0.00  0.00    +0.000 A 
ATOM     22  C   UNL     1      47.296   5.101  18.432  0.00  0.00    +0.000 A 
BRANCH  20  23
ATOM     23  C   UNL     1      50.014   5.852  21.093  0.00  0.00    +0.000 C 
BRANCH  23  24
ATOM     24  C   UNL     1      51.181   6.879  20.937  0.00  0.00    +0.000 C 
ATOM     25  C   UNL     1      50.989   7.967  19.880  0.00  0.00    +0.000 C 
ATOM     26  C   UNL     1      51.493   7.599  18.488  0.00  0.00    +0.000 C 
ATOM     27  N   UNL     1      52.829   7.006  18.438  0.00  0.00    +0.000 NA
ATOM     28  C   UNL     1      53.152   6.029  19.472  0.00  0.00    +0.000 C 
ATOM     29  C   UNL     1      52.624   6.349  20.871  0.00  0.00    +0.000 C 
ATOM     30  H   UNL     1      53.527   7.746  18.441  0.00  0.00    +0.000 HD
ENDBRANCH  23  24
ENDBRANCH  20  23
ENDBRANCH  16  17
ENDBRANCH   3  16
TORSDOF 5
ENDMDL
