MODEL 1
REMARK VINA RESULT:    -8.310      0.000      0.000
REMARK INTER + INTRA:         -13.359
REMARK INTER:                 -12.196
REMARK INTRA:                  -1.163
REMARK UNBOUND:                -1.163
REMARK  Name = 
REMARK  8 active torsions:
REMARK  status: ('A' for Active; 'I' for Inactive)
REMARK    1  A    between atoms: C_2  and  C_3
REMARK    2  A    between atoms: C_2  and  C_11
REMARK    3  A    between atoms: C_3  and  C_4
REMARK    4  A    between atoms: C_4  and  C_5
REMARK    5  A    between atoms: C_14  and  C_15
REMARK    6  A    between atoms: C_15  and  N_16
REMARK    7  A    between atoms: N_16  and  C_17
REMARK    8  A    between atoms: C_17  and  C_18
REMARK                            x       y       z     vdW  Elec       q    Type
REMARK                         _______ _______ _______ _____ _____    ______ ____
ROOT
ATOM      1  C   UNL     1      45.105   4.520  11.421  0.00  0.00    +0.000 A 
ATOM      2  C   UNL     1      45.553   4.044  12.662  0.00  0.00    +0.000 A 
ATOM      3  C   UNL     1      46.556   4.718  13.366  0.00  0.00    +0.000 A 
ATOM      4  C   UNL     1      47.132   5.884  12.847  0.00  0.00    +0.000 A 
ATOM      5  C   UNL     1      46.687   6.358  11.607  0.00  0.00    +0.000 A 
ATOM      6  C   UNL     1      45.689   5.679  10.897  0.00  0.00    +0.000 A 
ENDROOT
BRANCH   1   8
ATOM      7  N   UNL     1      42.934   3.469  11.325  0.00  0.00    +0.000 NA
ATOM      8  C   UNL     1      44.034   3.750  10.698  0.00  0.00    +0.000 C 
ATOM      9  H   UNL     1      42.290   2.904  10.772  0.00  0.00    +0.000 HD
BRANCH   8  10
ATOM     10  C   UNL     1      44.299   3.255   9.278  0.00  0.00    +0.000 C 
BRANCH  10  11
ATOM     11  C   UNL     1      45.258   2.070   9.174  0.00  0.00    +0.000 C 
BRANCH  11  12
ATOM     12  C   UNL     1      46.136   2.190   7.956  0.00  0.00    +0.000 A 
ATOM     13  C   UNL     1      46.065   3.307   7.121  0.00  0.00    +0.000 A 
ATOM     14  C   UNL     1      46.873   3.375   5.989  0.00  0.00    +0.000 A 
ATOM     15  C   UNL     1      47.724   2.316   5.727  0.00  0.00    +0.000 A 
ATOM     16  N   UNL     1      47.813   1.215   6.505  0.00  0.00    +0.000 NA
ATOM     17  C   UNL     1      47.020   1.177   7.598  0.00  0.00    +0.000 A 
ENDBRANCH  11  12
ENDBRANCH  10  11
ENDBRANCH   8  10
ENDBRANCH   1   8
BRANCH   4  18
ATOM     18  C   UNL     1      48.198   6.629  13.614  0.00  0.00    +0.000 C 
BRANCH  18  19
ATOM     19  N   UNL     1      47.799   6.844  15.002  0.00  0.00    +0.000 NA
ATOM     20  H   UNL     1      47.016   6.227  15.222  0.00  0.00    +0.000 HD
BRANCH  19  21
ATOM     21  C   UNL     1      48.904   6.521  15.913  0.00  0.00    +0.000 C 
BRANCH  21  22
ATOM     22  C   UNL     1      48.720   5.176  16.587  0.00  0.00    +0.000 A 
ATOM     23  C   UNL     1      47.441   4.661  16.787  0.00  0.00    +0.000 A 
ATOM     24  C   UNL     1      47.301   3.429  17.418  0.00  0.00    +0.000 A 
ATOM     25  C   UNL     1      48.437   2.747  17.835  0.00  0.00    +0.000 A 
ATOM     26  C   UNL     1      49.672   3.328  17.600  0.00  0.00    +0.000 A 
ATOM     27  N   UNL     1      49.840   4.520  16.988  0.00  0.00    +0.000 NA
ENDBRANCH  21  22
ENDBRANCH  19  21
ENDBRANCH  18  19
ENDBRANCH   4  18
TORSDOF 8
ENDMDL
MODEL 2
REMARK VINA RESULT:    -8.041      0.669      1.262
REMARK INTER + INTRA:         -12.964
REMARK INTER:                 -11.996
REMARK INTRA:                  -0.969
REMARK UNBOUND:                -1.163
REMARK  Name = 
REMARK  8 active torsions:
REMARK  status: ('A' for Active; 'I' for Inactive)
REMARK    1  A    between atoms: C_2  and  C_3
REMARK    2  A    between atoms: C_2  and  C_11
REMARK    3  A    between atoms: C_3  and  C_4
REMARK    4  A    between atoms: C_4  and  C_5
REMARK    5  A    between atoms: C_14  and  C_15
REMARK    6  A    between atoms: C_15  and  N_16
REMARK    7  A    between atoms: N_16  and  C_17
REMARK    8  A    between atoms: C_17  and  C_18
REMARK                            x       y       z     vdW  Elec       q    Type
REMARK                         _______ _______ _______ _____ _____    ______ ____
ROOT
ATOM      1  C   UNL     1      45.063   4.454  11.508  0.00  0.00    +0.000 A 
ATOM      2  C   UNL     1      45.592   5.637  10.973  0.00  0.00    +0.000 A 
ATOM      3  C   UNL     1      46.593   6.343  11.648  0.00  0.00    +0.000 A 
ATOM      4  C   UNL     1      47.092   5.878  12.872  0.00  0.00    +0.000 A 
ATOM      5  C   UNL     1      46.562   4.699  13.407  0.00  0.00    +0.000 A 
ATOM      6  C   UNL     1      45.553   3.996  12.737  0.00  0.00    +0.000 A 
ENDROOT
BRANCH   1   8
ATOM      7  N   UNL     1      42.865   3.467  11.360  0.00  0.00    +0.000 NA
ATOM      8  C   UNL     1      43.977   3.742  10.750  0.00  0.00    +0.000 C 
ATOM      9  H   UNL     1      42.210   2.942  10.782  0.00  0.00    +0.000 HD
BRANCH   8  10
ATOM     10  C   UNL     1      44.238   3.294   9.313  0.00  0.00    +0.000 C 
BRANCH  10  11
ATOM     11  C   UNL     1      45.099   2.039   9.173  0.00  0.00    +0.000 C 
BRANCH  11  12
ATOM     12  C   UNL     1      46.044   2.159   8.006  0.00  0.00    +0.000 A 
ATOM     13  C   UNL     1      46.040   3.290   7.186  0.00  0.00    +0.000 A 
ATOM     14  C   UNL     1      46.909   3.358   6.101  0.00  0.00    +0.000 A 
ATOM     15  C   UNL     1      47.751   2.285   5.868  0.00  0.00    +0.000 A 
ATOM     16  N   UNL     1      47.776   1.171   6.631  0.00  0.00    +0.000 NA
ATOM     17  C   UNL     1      46.924   1.133   7.679  0.00  0.00    +0.000 A 
ENDBRANCH  11  12
ENDBRANCH  10  11
ENDBRANCH   8  10
ENDBRANCH   1   8
BRANCH   4  18
ATOM     18  C   UNL     1      48.190   6.623  13.592  0.00  0.00    +0.000 C 
BRANCH  18  19
ATOM     19  N   UNL     1      47.851   6.839  14.995  0.00  0.00    +0.000 NA
ATOM     20  H   UNL     1      47.116   6.183  15.264  0.00  0.00    +0.000 HD
BRANCH  19  21
ATOM     21  C   UNL     1      49.018   6.594  15.852  0.00  0.00    +0.000 C 
BRANCH  21  22
ATOM     22  C   UNL     1      48.806   5.426  16.794  0.00  0.00    +0.000 A 
ATOM     23  C   UNL     1      48.965   5.596  18.168  0.00  0.00    +0.000 A 
ATOM     24  C   UNL     1      48.774   4.504  19.009  0.00  0.00    +0.000 A 
ATOM     25  C   UNL     1      48.435   3.274  18.458  0.00  0.00    +0.000 A 
ATOM     26  C   UNL     1      48.297   3.189  17.083  0.00  0.00    +0.000 A 
ATOM     27  N   UNL     1      48.473   4.231  16.242  0.00  0.00    +0.000 NA
ENDBRANCH  21  22
ENDBRANCH  19  21
ENDBRANCH  18  19
ENDBRANCH   4  18
TORSDOF 8
ENDMDL
MODEL 3
REMARK VINA RESULT:    -7.752      1.274      8.384
REMARK INTER + INTRA:         -12.540
REMARK INTER:                 -11.553
REMARK INTRA:                  -0.987
REMARK UNBOUND:                -1.163
REMARK  Name = 
REMARK  8 active torsions:
REMARK  status: ('A' for Active; 'I' for Inactive)
REMARK    1  A    between atoms: C_2  and  C_3
REMARK    2  A    between atoms: C_2  and  C_11
REMARK    3  A    between atoms: C_3  and  C_4
REMARK    4  A    between atoms: C_4  and  C_5
REMARK    5  A    between atoms: C_14  and  C_15
REMARK    6  A    between atoms: C_15  and  N_16
REMARK    7  A    between atoms: N_16  and  C_17
REMARK    8  A    between atoms: C_17  and  C_18
REMARK                            x       y       z     vdW  Elec       q    Type
REMARK                         _______ _______ _______ _____ _____    ______ ____
ROOT
ATOM      1  C   UNL     1      47.019   6.141  12.741  0.00  0.00    +0.000 A 
ATOM      2  C   UNL     1      46.059   5.306  13.329  0.00  0.00    +0.000 A 
ATOM      3  C   UNL     1      44.929   4.899  12.612  0.00  0.00    +0.000 A 
ATOM      4  C   UNL     1      44.737   5.314  11.288  0.00  0.00    +0.000 A 
ATOM      5  C   UNL     1      45.694   6.150  10.701  0.00  0.00    +0.000 A 
ATOM      6  C   UNL     1      46.820   6.566  11.421  0.00  0.00    +0.000 A 
ENDROOT
BRANCH   1   8
ATOM      7  N   UNL     1      49.382   6.555  13.009  0.00  0.00    +0.000 NA
ATOM      8  C   UNL     1      48.208   6.563  13.560  0.00  0.00    +0.000 C 
ATOM      9  H   UNL     1      50.130   6.809  13.654  0.00  0.00    +0.000 HD
BRANCH   8  10
ATOM     10  C   UNL     1      48.014   6.912  15.034  0.00  0.00    +0.000 C 
BRANCH  10  11
ATOM     11  C   UNL     1      49.080   6.357  15.977  0.00  0.00    +0.000 C 
BRANCH  11  12
ATOM     12  C   UNL     1      48.614   5.085  16.634  0.00  0.00    +0.000 A 
ATOM     13  C   UNL     1      49.501   4.271  17.343  0.00  0.00    +0.000 A 
ATOM     14  C   UNL     1      49.043   3.089  17.918  0.00  0.00    +0.000 A 
ATOM     15  C   UNL     1      47.709   2.756  17.757  0.00  0.00    +0.000 A 
ATOM     16  N   UNL     1      46.825   3.511  17.070  0.00  0.00    +0.000 NA
ATOM     17  C   UNL     1      47.296   4.655  16.525  0.00  0.00    +0.000 A 
ENDBRANCH  11  12
ENDBRANCH  10  11
ENDBRANCH   8  10
ENDBRANCH   1   8
BRANCH   4  18
ATOM     18  C   UNL     1      43.532   4.858  10.502  0.00  0.00    +0.000 C 
BRANCH  18  19
ATOM     19  N   UNL     1      43.928   4.223   9.248  0.00  0.00    +0.000 NA
ATOM     20  H   UNL     1      44.618   4.812   8.781  0.00  0.00    +0.000 HD
BRANCH  19  21
ATOM     21  C   UNL     1      44.543   2.914   9.504  0.00  0.00    +0.000 C 
BRANCH  21  22
ATOM     22  C   UNL     1      45.572   2.546   8.454  0.00  0.00    +0.000 A 
ATOM     23  C   UNL     1      46.033   3.508   7.556  0.00  0.00    +0.000 A 
ATOM     24  C   UNL     1      46.970   3.140   6.596  0.00  0.00    +0.000 A 
ATOM     25  C   UNL     1      47.418   1.826   6.554  0.00  0.00    +0.000 A 
ATOM     26  C   UNL     1      46.910   0.931   7.481  0.00  0.00    +0.000 A 
ATOM     27  N   UNL     1      46.003   1.259   8.426  0.00  0.00    +0.000 NA
ENDBRANCH  21  22
ENDBRANCH  19  21
ENDBRANCH  18  19
ENDBRANCH   4  18
TORSDOF 8
ENDMDL
MODEL 4
REMARK VINA RESULT:    -7.476      2.185      3.955
REMARK INTER + INTRA:         -12.135
REMARK INTER:                 -11.140
REMARK INTRA:                  -0.995
REMARK UNBOUND:                -1.163
REMARK  Name = 
REMARK  8 active torsions:
REMARK  status: ('A' for Active; 'I' for Inactive)
REMARK    1  A    between atoms: C_2  and  C_3
REMARK    2  A    between atoms: C_2  and  C_11
REMARK    3  A    between atoms: C_3  and  C_4
REMARK    4  A    between atoms: C_4  and  C_5
REMARK    5  A    between atoms: C_14  and  C_15
REMARK    6  A    between atoms: C_15  and  N_16
REMARK    7  A    between atoms: N_16  and  C_17
REMARK    8  A    between atoms: C_17  and  C_18
REMARK                            x       y       z     vdW  Elec       q    Type
REMARK                         _______ _______ _______ _____ _____    ______ ____
ROOT
ATOM      1  C   UNL     1      45.018   4.333  11.573  0.00  0.00    +0.000 A 
ATOM      2  C   UNL     1      45.744   3.698  12.591  0.00  0.00    +0.000 A 
ATOM      3  C   UNL     1      46.668   4.411  13.362  0.00  0.00    +0.000 A 
ATOM      4  C   UNL     1      46.883   5.776  13.135  0.00  0.00    +0.000 A 
ATOM      5  C   UNL     1      46.161   6.410  12.117  0.00  0.00    +0.000 A 
ATOM      6  C   UNL     1      45.243   5.695  11.338  0.00  0.00    +0.000 A 
ENDROOT
BRANCH   1   8
ATOM      7  N   UNL     1      42.989   3.046  11.344  0.00  0.00    +0.000 NA
ATOM      8  C   UNL     1      44.049   3.518  10.762  0.00  0.00    +0.000 C 
ATOM      9  H   UNL     1      42.418   2.467  10.729  0.00  0.00    +0.000 HD
BRANCH   8  10
ATOM     10  C   UNL     1      44.373   3.203   9.303  0.00  0.00    +0.000 C 
BRANCH  10  11
ATOM     11  C   UNL     1      45.240   1.963   9.086  0.00  0.00    +0.000 C 
BRANCH  11  12
ATOM     12  C   UNL     1      46.131   2.130   7.884  0.00  0.00    +0.000 A 
ATOM     13  C   UNL     1      46.045   3.264   7.073  0.00  0.00    +0.000 A 
ATOM     14  C   UNL     1      46.866   3.376   5.954  0.00  0.00    +0.000 A 
ATOM     15  C   UNL     1      47.744   2.342   5.680  0.00  0.00    +0.000 A 
ATOM     16  N   UNL     1      47.848   1.226   6.434  0.00  0.00    +0.000 NA
ATOM     17  C   UNL     1      47.041   1.145   7.515  0.00  0.00    +0.000 A 
ENDBRANCH  11  12
ENDBRANCH  10  11
ENDBRANCH   8  10
ENDBRANCH   1   8
BRANCH   4  18
ATOM     18  C   UNL     1      47.861   6.556  13.981  0.00  0.00    +0.000 C 
BRANCH  18  19
ATOM     19  N   UNL     1      49.222   6.434  13.466  0.00  0.00    +0.000 NA
ATOM     20  H   UNL     1      49.185   6.345  12.450  0.00  0.00    +0.000 HD
BRANCH  19  21
ATOM     21  C   UNL     1      50.006   7.632  13.792  0.00  0.00    +0.000 C 
BRANCH  21  22
ATOM     22  C   UNL     1      49.420   8.888  13.178  0.00  0.00    +0.000 A 
ATOM     23  C   UNL     1      49.238   8.977  11.799  0.00  0.00    +0.000 A 
ATOM     24  C   UNL     1      48.708  10.145  11.262  0.00  0.00    +0.000 A 
ATOM     25  C   UNL     1      48.377  11.193  12.112  0.00  0.00    +0.000 A 
ATOM     26  C   UNL     1      48.589  11.026  13.470  0.00  0.00    +0.000 A 
ATOM     27  N   UNL     1      49.099   9.903  14.022  0.00  0.00    +0.000 NA
ENDBRANCH  21  22
ENDBRANCH  19  21
ENDBRANCH  18  19
ENDBRANCH   4  18
TORSDOF 8
ENDMDL
MODEL 5
REMARK VINA RESULT:    -7.321      2.540      4.174
REMARK INTER + INTRA:         -11.908
REMARK INTER:                 -10.970
REMARK INTRA:                  -0.939
REMARK UNBOUND:                -1.163
REMARK  Name = 
REMARK  8 active torsions:
REMARK  status: ('A' for Active; 'I' for Inactive)
REMARK    1  A    between atoms: C_2  and  C_3
REMARK    2  A    between atoms: C_2  and  C_11
REMARK    3  A    between atoms: C_3  and  C_4
REMARK    4  A    between atoms: C_4  and  C_5
REMARK    5  A    between atoms: C_14  and  C_15
REMARK    6  A    between atoms: C_15  and  N_16
REMARK    7  A    between atoms: N_16  and  C_17
REMARK    8  A    between atoms: C_17  and  C_18
REMARK                            x       y       z     vdW  Elec       q    Type
REMARK                         _______ _______ _______ _____ _____    ______ ____
ROOT
ATOM      1  C   UNL     1      44.986   4.525  11.563  0.00  0.00    +0.000 A 
ATOM      2  C   UNL     1      45.662   3.875  12.606  0.00  0.00    +0.000 A 
ATOM      3  C   UNL     1      46.630   4.546  13.359  0.00  0.00    +0.000 A 
ATOM      4  C   UNL     1      46.941   5.885  13.090  0.00  0.00    +0.000 A 
ATOM      5  C   UNL     1      46.269   6.533  12.048  0.00  0.00    +0.000 A 
ATOM      6  C   UNL     1      45.306   5.860  11.287  0.00  0.00    +0.000 A 
ENDROOT
BRANCH   1   8
ATOM      7  N   UNL     1      42.853   3.415  11.350  0.00  0.00    +0.000 NA
ATOM      8  C   UNL     1      43.965   3.754  10.773  0.00  0.00    +0.000 C 
ATOM      9  H   UNL     1      42.246   2.854  10.753  0.00  0.00    +0.000 HD
BRANCH   8  10
ATOM     10  C   UNL     1      44.293   3.324   9.345  0.00  0.00    +0.000 C 
BRANCH  10  11
ATOM     11  C   UNL     1      45.211   2.109   9.229  0.00  0.00    +0.000 C 
BRANCH  11  12
ATOM     12  C   UNL     1      46.098   2.213   8.017  0.00  0.00    +0.000 A 
ATOM     13  C   UNL     1      46.094   3.358   7.216  0.00  0.00    +0.000 A 
ATOM     14  C   UNL     1      46.908   3.413   6.087  0.00  0.00    +0.000 A 
ATOM     15  C   UNL     1      47.695   2.314   5.794  0.00  0.00    +0.000 A 
ATOM     16  N   UNL     1      47.718   1.186   6.537  0.00  0.00    +0.000 NA
ATOM     17  C   UNL     1      46.921   1.162   7.628  0.00  0.00    +0.000 A 
ENDBRANCH  11  12
ENDBRANCH  10  11
ENDBRANCH   8  10
ENDBRANCH   1   8
BRANCH   4  18
ATOM     18  C   UNL     1      47.967   6.621  13.917  0.00  0.00    +0.000 C 
BRANCH  18  19
ATOM     19  N   UNL     1      49.264   6.651  13.247  0.00  0.00    +0.000 NA
ATOM     20  H   UNL     1      49.141   6.370  12.273  0.00  0.00    +0.000 HD
BRANCH  19  21
ATOM     21  C   UNL     1      49.821   8.010  13.262  0.00  0.00    +0.000 C 
BRANCH  21  22
ATOM     22  C   UNL     1      50.868   8.216  12.186  0.00  0.00    +0.000 A 
ATOM     23  C   UNL     1      50.894   7.387  11.065  0.00  0.00    +0.000 A 
ATOM     24  C   UNL     1      51.872   7.591  10.098  0.00  0.00    +0.000 A 
ATOM     25  C   UNL     1      52.799   8.612  10.274  0.00  0.00    +0.000 A 
ATOM     26  C   UNL     1      52.705   9.390  11.416  0.00  0.00    +0.000 A 
ATOM     27  N   UNL     1      51.766   9.218  12.371  0.00  0.00    +0.000 NA
ENDBRANCH  21  22
ENDBRANCH  19  21
ENDBRANCH  18  19
ENDBRANCH   4  18
TORSDOF 8
ENDMDL
MODEL 6
REMARK VINA RESULT:    -7.032      2.858      8.051
REMARK INTER + INTRA:         -11.483
REMARK INTER:                 -10.464
REMARK INTRA:                  -1.019
REMARK UNBOUND:                -1.163
REMARK  Name = 
REMARK  8 active torsions:
REMARK  status: ('A' for Active; 'I' for Inactive)
REMARK    1  A    between atoms: C_2  and  C_3
REMARK    2  A    between atoms: C_2  and  C_11
REMARK    3  A    between atoms: C_3  and  C_4
REMARK    4  A    between atoms: C_4  and  C_5
REMARK    5  A    between atoms: C_14  and  C_15
REMARK    6  A    between atoms: C_15  and  N_16
REMARK    7  A    between atoms: N_16  and  C_17
REMARK    8  A    between atoms: C_17  and  C_18
REMARK                            x       y       z     vdW  Elec       q    Type
REMARK                         _______ _______ _______ _____ _____    ______ ____
ROOT
ATOM      1  C   UNL     1      46.433   7.039  12.825  0.00  0.00    +0.000 A 
ATOM      2  C   UNL     1      46.438   5.638  12.888  0.00  0.00    +0.000 A 
ATOM      3  C   UNL     1      45.485   4.888  12.191  0.00  0.00    +0.000 A 
ATOM      4  C   UNL     1      44.509   5.522  11.412  0.00  0.00    +0.000 A 
ATOM      5  C   UNL     1      44.502   6.920  11.351  0.00  0.00    +0.000 A 
ATOM      6  C   UNL     1      45.450   7.672  12.055  0.00  0.00    +0.000 A 
ENDROOT
BRANCH   1   8
ATOM      7  N   UNL     1      47.080   8.724  14.428  0.00  0.00    +0.000 NA
ATOM      8  C   UNL     1      47.470   7.799  13.605  0.00  0.00    +0.000 C 
ATOM      9  H   UNL     1      47.854   9.216  14.874  0.00  0.00    +0.000 HD
BRANCH   8  10
ATOM     10  C   UNL     1      48.950   7.518  13.354  0.00  0.00    +0.000 C 
BRANCH  10  11
ATOM     11  C   UNL     1      49.390   7.624  11.894  0.00  0.00    +0.000 C 
BRANCH  11  12
ATOM     12  C   UNL     1      49.945   8.991  11.593  0.00  0.00    +0.000 A 
ATOM     13  C   UNL     1      49.101  10.060  11.281  0.00  0.00    +0.000 A 
ATOM     14  C   UNL     1      49.647  11.305  10.983  0.00  0.00    +0.000 A 
ATOM     15  C   UNL     1      51.024  11.437  11.000  0.00  0.00    +0.000 A 
ATOM     16  N   UNL     1      51.872  10.425  11.286  0.00  0.00    +0.000 NA
ATOM     17  C   UNL     1      51.315   9.229  11.574  0.00  0.00    +0.000 A 
ENDBRANCH  11  12
ENDBRANCH  10  11
ENDBRANCH   8  10
ENDBRANCH   1   8
BRANCH   4  18
ATOM     18  C   UNL     1      43.494   4.716  10.638  0.00  0.00    +0.000 C 
BRANCH  18  19
ATOM     19  N   UNL     1      44.035   4.273   9.356  0.00  0.00    +0.000 NA
ATOM     20  H   UNL     1      44.859   4.831   9.134  0.00  0.00    +0.000 HD
BRANCH  19  21
ATOM     21  C   UNL     1      44.442   2.864   9.428  0.00  0.00    +0.000 C 
BRANCH  21  22
ATOM     22  C   UNL     1      45.518   2.524   8.416  0.00  0.00    +0.000 A 
ATOM     23  C   UNL     1      45.957   3.487   7.509  0.00  0.00    +0.000 A 
ATOM     24  C   UNL     1      46.938   3.145   6.584  0.00  0.00    +0.000 A 
ATOM     25  C   UNL     1      47.452   1.854   6.585  0.00  0.00    +0.000 A 
ATOM     26  C   UNL     1      46.961   0.956   7.518  0.00  0.00    +0.000 A 
ATOM     27  N   UNL     1      46.012   1.259   8.430  0.00  0.00    +0.000 NA
ENDBRANCH  21  22
ENDBRANCH  19  21
ENDBRANCH  18  19
ENDBRANCH   4  18
TORSDOF 8
ENDMDL
MODEL 7
REMARK VINA RESULT:    -7.029      1.566      8.908
REMARK INTER + INTRA:         -11.479
REMARK INTER:                 -10.530
REMARK INTRA:                  -0.949
REMARK UNBOUND:                -1.163
REMARK  Name = 
REMARK  8 active torsions:
REMARK  status: ('A' for Active; 'I' for Inactive)
REMARK    1  A    between atoms: C_2  and  C_3
REMARK    2  A    between atoms: C_2  and  C_11
REMARK    3  A    between atoms: C_3  and  C_4
REMARK    4  A    between atoms: C_4  and  C_5
REMARK    5  A    between atoms: C_14  and  C_15
REMARK    6  A    between atoms: C_15  and  N_16
REMARK    7  A    between atoms: N_16  and  C_17
REMARK    8  A    between atoms: C_17  and  C_18
REMARK                            x       y       z     vdW  Elec       q    Type
REMARK                         _______ _______ _______ _____ _____    ______ ____
ROOT
ATOM      1  C   UNL     1      47.426   6.164  13.050  0.00  0.00    +0.000 A 
ATOM      2  C   UNL     1      46.858   6.459  11.802  0.00  0.00    +0.000 A 
ATOM      3  C   UNL     1      45.809   5.686  11.293  0.00  0.00    +0.000 A 
ATOM      4  C   UNL     1      45.303   4.603  12.022  0.00  0.00    +0.000 A 
ATOM      5  C   UNL     1      45.872   4.306  13.266  0.00  0.00    +0.000 A 
ATOM      6  C   UNL     1      46.927   5.074  13.773  0.00  0.00    +0.000 A 
ENDROOT
BRANCH   1   8
ATOM      7  N   UNL     1      49.716   6.922  12.960  0.00  0.00    +0.000 NA
ATOM      8  C   UNL     1      48.561   7.017  13.544  0.00  0.00    +0.000 C 
ATOM      9  H   UNL     1      50.434   7.501  13.395  0.00  0.00    +0.000 HD
BRANCH   8  10
ATOM     10  C   UNL     1      48.348   7.912  14.764  0.00  0.00    +0.000 C 
BRANCH  10  11
ATOM     11  C   UNL     1      49.359   7.718  15.893  0.00  0.00    +0.000 C 
BRANCH  11  12
ATOM     12  C   UNL     1      48.738   6.992  17.057  0.00  0.00    +0.000 A 
ATOM     13  C   UNL     1      48.452   7.655  18.253  0.00  0.00    +0.000 A 
ATOM     14  C   UNL     1      47.901   6.948  19.319  0.00  0.00    +0.000 A 
ATOM     15  C   UNL     1      47.661   5.596  19.153  0.00  0.00    +0.000 A 
ATOM     16  N   UNL     1      47.933   4.918  18.017  0.00  0.00    +0.000 NA
ATOM     17  C   UNL     1      48.464   5.629  16.998  0.00  0.00    +0.000 A 
ENDBRANCH  11  12
ENDBRANCH  10  11
ENDBRANCH   8  10
ENDBRANCH   1   8
BRANCH   4  18
ATOM     18  C   UNL     1      44.155   3.780  11.488  0.00  0.00    +0.000 C 
BRANCH  18  19
ATOM     19  N   UNL     1      44.636   2.653  10.695  0.00  0.00    +0.000 NA
ATOM     20  H   UNL     1      44.140   1.808  10.983  0.00  0.00    +0.000 HD
BRANCH  19  21
ATOM     21  C   UNL     1      44.366   2.875   9.268  0.00  0.00    +0.000 C 
BRANCH  21  22
ATOM     22  C   UNL     1      45.544   2.492   8.394  0.00  0.00    +0.000 A 
ATOM     23  C   UNL     1      46.155   3.448   7.583  0.00  0.00    +0.000 A 
ATOM     24  C   UNL     1      47.227   3.067   6.783  0.00  0.00    +0.000 A 
ATOM     25  C   UNL     1      47.658   1.746   6.809  0.00  0.00    +0.000 A 
ATOM     26  C   UNL     1      46.997   0.859   7.641  0.00  0.00    +0.000 A 
ATOM     27  N   UNL     1      45.956   1.199   8.431  0.00  0.00    +0.000 NA
ENDBRANCH  21  22
ENDBRANCH  19  21
ENDBRANCH  18  19
ENDBRANCH   4  18
TORSDOF 8
ENDMDL
MODEL 8
REMARK VINA RESULT:    -6.734      3.147      7.863
REMARK INTER + INTRA:         -11.047
REMARK INTER:                  -9.793
REMARK INTRA:                  -1.254
REMARK UNBOUND:                -1.163
REMARK  Name = 
REMARK  8 active torsions:
REMARK  status: ('A' for Active; 'I' for Inactive)
REMARK    1  A    between atoms: C_2  and  C_3
REMARK    2  A    between atoms: C_2  and  C_11
REMARK    3  A    between atoms: C_3  and  C_4
REMARK    4  A    between atoms: C_4  and  C_5
REMARK    5  A    between atoms: C_14  and  C_15
REMARK    6  A    between atoms: C_15  and  N_16
REMARK    7  A    between atoms: N_16  and  C_17
REMARK    8  A    between atoms: C_17  and  C_18
REMARK                            x       y       z     vdW  Elec       q    Type
REMARK                         _______ _______ _______ _____ _____    ______ ____
ROOT
ATOM      1  C   UNL     1      47.249   6.531  12.854  0.00  0.00    +0.000 A 
ATOM      2  C   UNL     1      46.209   7.165  12.159  0.00  0.00    +0.000 A 
ATOM      3  C   UNL     1      44.918   6.628  12.159  0.00  0.00    +0.000 A 
ATOM      4  C   UNL     1      44.636   5.447  12.858  0.00  0.00    +0.000 A 
ATOM      5  C   UNL     1      45.675   4.813  13.549  0.00  0.00    +0.000 A 
ATOM      6  C   UNL     1      46.970   5.344  13.542  0.00  0.00    +0.000 A 
ENDROOT
BRANCH   1   8
ATOM      7  N   UNL     1      49.495   6.787  13.702  0.00  0.00    +0.000 NA
ATOM      8  C   UNL     1      48.623   7.141  12.809  0.00  0.00    +0.000 C 
ATOM      9  H   UNL     1      50.379   7.288  13.621  0.00  0.00    +0.000 HD
BRANCH   8  10
ATOM     10  C   UNL     1      48.931   8.214  11.766  0.00  0.00    +0.000 C 
BRANCH  10  11
ATOM     11  C   UNL     1      49.003   9.641  12.308  0.00  0.00    +0.000 C 
BRANCH  11  12
ATOM     12  C   UNL     1      48.219  10.590  11.441  0.00  0.00    +0.000 A 
ATOM     13  C   UNL     1      46.851  10.790  11.642  0.00  0.00    +0.000 A 
ATOM     14  C   UNL     1      46.150  11.656  10.807  0.00  0.00    +0.000 A 
ATOM     15  C   UNL     1      46.842  12.288   9.790  0.00  0.00    +0.000 A 
ATOM     16  N   UNL     1      48.161  12.112   9.557  0.00  0.00    +0.000 NA
ATOM     17  C   UNL     1      48.817  11.270  10.385  0.00  0.00    +0.000 A 
ENDBRANCH  11  12
ENDBRANCH  10  11
ENDBRANCH   8  10
ENDBRANCH   1   8
BRANCH   4  18
ATOM     18  C   UNL     1      43.239   4.877  12.882  0.00  0.00    +0.000 C 
BRANCH  18  19
ATOM     19  N   UNL     1      42.809   4.473  11.547  0.00  0.00    +0.000 NA
ATOM     20  H   UNL     1      43.182   5.134  10.864  0.00  0.00    +0.000 HD
BRANCH  19  21
ATOM     21  C   UNL     1      43.326   3.138  11.220  0.00  0.00    +0.000 C 
BRANCH  21  22
ATOM     22  C   UNL     1      44.250   3.156  10.019  0.00  0.00    +0.000 A 
ATOM     23  C   UNL     1      44.791   1.968   9.532  0.00  0.00    +0.000 A 
ATOM     24  C   UNL     1      45.645   2.015   8.434  0.00  0.00    +0.000 A 
ATOM     25  C   UNL     1      45.938   3.244   7.855  0.00  0.00    +0.000 A 
ATOM     26  C   UNL     1      45.361   4.378   8.400  0.00  0.00    +0.000 A 
ATOM     27  N   UNL     1      44.526   4.364   9.462  0.00  0.00    +0.000 NA
ENDBRANCH  21  22
ENDBRANCH  19  21
ENDBRANCH  18  19
ENDBRANCH   4  18
TORSDOF 8
ENDMDL
MODEL 9
REMARK VINA RESULT:    -6.692      2.045      8.042
REMARK INTER + INTRA:         -10.985
REMARK INTER:                 -10.384
REMARK INTRA:                  -0.601
REMARK UNBOUND:                -1.163
REMARK  Name = 
REMARK  8 active torsions:
REMARK  status: ('A' for Active; 'I' for Inactive)
REMARK    1  A    between atoms: C_2  and  C_3
REMARK    2  A    between atoms: C_2  and  C_11
REMARK    3  A    between atoms: C_3  and  C_4
REMARK    4  A    between atoms: C_4  and  C_5
REMARK    5  A    between atoms: C_14  and  C_15
REMARK    6  A    between atoms: C_15  and  N_16
REMARK    7  A    between atoms: N_16  and  C_17
REMARK    8  A    between atoms: C_17  and  C_18
REMARK                            x       y       z     vdW  Elec       q    Type
REMARK                         _______ _______ _______ _____ _____    ______ ____
ROOT
ATOM      1  C   UNL     1      45.408   7.162  12.099  0.00  0.00    +0.000 A 
ATOM      2  C   UNL     1      45.866   6.485  10.959  0.00  0.00    +0.000 A 
ATOM      3  C   UNL     1      45.327   5.247  10.597  0.00  0.00    +0.000 A 
ATOM      4  C   UNL     1      44.313   4.659  11.364  0.00  0.00    +0.000 A 
ATOM      5  C   UNL     1      43.857   5.332  12.503  0.00  0.00    +0.000 A 
ATOM      6  C   UNL     1      44.403   6.568  12.872  0.00  0.00    +0.000 A 
ENDROOT
BRANCH   1   8
ATOM      7  N   UNL     1      45.278   9.421  12.938  0.00  0.00    +0.000 NA
ATOM      8  C   UNL     1      46.032   8.484  12.453  0.00  0.00    +0.000 C 
ATOM      9  H   UNL     1      45.779  10.295  13.101  0.00  0.00    +0.000 HD
BRANCH   8  10
ATOM     10  C   UNL     1      47.514   8.713  12.162  0.00  0.00    +0.000 C 
BRANCH  10  11
ATOM     11  C   UNL     1      48.379   7.454  12.184  0.00  0.00    +0.000 C 
BRANCH  11  12
ATOM     12  C   UNL     1      48.851   7.144  13.580  0.00  0.00    +0.000 A 
ATOM     13  C   UNL     1      50.024   7.709  14.087  0.00  0.00    +0.000 A 
ATOM     14  C   UNL     1      50.446   7.383  15.373  0.00  0.00    +0.000 A 
ATOM     15  C   UNL     1      49.681   6.494  16.108  0.00  0.00    +0.000 A 
ATOM     16  N   UNL     1      48.548   5.920  15.648  0.00  0.00    +0.000 NA
ATOM     17  C   UNL     1      48.160   6.257  14.398  0.00  0.00    +0.000 A 
ENDBRANCH  11  12
ENDBRANCH  10  11
ENDBRANCH   8  10
ENDBRANCH   1   8
BRANCH   4  18
ATOM     18  C   UNL     1      43.711   3.334  10.964  0.00  0.00    +0.000 C 
BRANCH  18  19
ATOM     19  N   UNL     1      44.740   2.392  10.535  0.00  0.00    +0.000 NA
ATOM     20  H   UNL     1      44.740   1.590  11.167  0.00  0.00    +0.000 HD
BRANCH  19  21
ATOM     21  C   UNL     1      44.460   1.904   9.178  0.00  0.00    +0.000 C 
BRANCH  21  22
ATOM     22  C   UNL     1      45.620   2.138   8.231  0.00  0.00    +0.000 A 
ATOM     23  C   UNL     1      46.504   1.102   7.936  0.00  0.00    +0.000 A 
ATOM     24  C   UNL     1      47.566   1.347   7.072  0.00  0.00    +0.000 A 
ATOM     25  C   UNL     1      47.720   2.617   6.529  0.00  0.00    +0.000 A 
ATOM     26  C   UNL     1      46.799   3.592   6.874  0.00  0.00    +0.000 A 
ATOM     27  N   UNL     1      45.757   3.384   7.707  0.00  0.00    +0.000 NA
ENDBRANCH  21  22
ENDBRANCH  19  21
ENDBRANCH  18  19
ENDBRANCH   4  18
TORSDOF 8
ENDMDL
