MODEL 1
REMARK VINA RESULT:    -8.344      0.000      0.000
REMARK INTER + INTRA:         -12.700
REMARK INTER:                 -11.515
REMARK INTRA:                  -1.185
REMARK UNBOUND:                -1.185
REMARK  Name = 
REMARK  7 active torsions:
REMARK  status: ('A' for Active; 'I' for Inactive)
REMARK    1  A    between atoms: C_2  and  C_4
REMARK    2  A    between atoms: C_7  and  O_8
REMARK    3  A    between atoms: O_8  and  C_9
REMARK    4  A    between atoms: C_9  and  C_10
REMARK    5  A    between atoms: C_10  and  C_11
REMARK    6  A    between atoms: C_15  and  C_16
REMARK    7  A    between atoms: C_21  and  O_22
REMARK                            x       y       z     vdW  Elec       q    Type
REMARK                         _______ _______ _______ _____ _____    ______ ____
ROOT
ATOM      1  C   UNL     1      45.014   5.228  12.633  0.00  0.00    +0.000 A 
ATOM      2  C   UNL     1      45.642   4.165  13.294  0.00  0.00    +0.000 A 
ATOM      3  C   UNL     1      46.948   4.292  13.742  0.00  0.00    +0.000 A 
ATOM      4  C   UNL     1      47.633   5.494  13.559  0.00  0.00    +0.000 A 
ATOM      5  C   UNL     1      47.077   6.589  12.860  0.00  0.00    +0.000 A 
ATOM      6  C   UNL     1      45.751   6.413  12.373  0.00  0.00    +0.000 A 
ATOM      7 CL   UNL     1      44.987   7.621  11.369  0.00  0.00    +0.000 Cl
ENDROOT
BRANCH   5   8
ATOM      8  C   UNL     1      47.893   7.838  12.689  0.00  0.00    +0.000 A 
ATOM      9  C   UNL     1      48.797   7.973  11.612  0.00  0.00    +0.000 A 
ATOM     10  C   UNL     1      49.620   9.095  11.459  0.00  0.00    +0.000 A 
ATOM     11  C   UNL     1      49.513  10.161  12.339  0.00  0.00    +0.000 A 
ATOM     12  C   UNL     1      48.585  10.104  13.371  0.00  0.00    +0.000 A 
ATOM     13  C   UNL     1      47.797   8.957  13.548  0.00  0.00    +0.000 A 
BRANCH  13  14
ATOM     14  O   UNL     1      46.917   8.951  14.600  0.00  0.00    +0.000 OA
ATOM     15  H   UNL     1      47.370   9.293  15.389  0.00  0.00    +0.000 HD
ENDBRANCH  13  14
ENDBRANCH   5   8
BRANCH   1  16
ATOM     16  C   UNL     1      43.566   5.056  12.231  0.00  0.00    +0.000 C 
BRANCH  16  17
ATOM     17  C   UNL     1      43.349   4.003  11.144  0.00  0.00    +0.000 C 
BRANCH  17  18
ATOM     18  O   UNL     1      43.633   4.624   9.884  0.00  0.00    +0.000 OA
BRANCH  18  22
ATOM     19  C   UNL     1      46.375   2.478   7.801  0.00  0.00    +0.000 A 
ATOM     20  C   UNL     1      46.296   3.854   7.634  0.00  0.00    +0.000 A 
ATOM     21  N   UNL     1      45.396   4.619   8.305  0.00  0.00    +0.000 NA
ATOM     22  C   UNL     1      44.579   3.946   9.142  0.00  0.00    +0.000 A 
ATOM     23  C   UNL     1      44.652   2.564   9.303  0.00  0.00    +0.000 A 
ATOM     24  N   UNL     1      45.546   1.790   8.641  0.00  0.00    +0.000 NA
BRANCH  19  26
ATOM     25  N   UNL     1      48.424   2.437   6.512  0.00  0.00    +0.000 N 
ATOM     26  C   UNL     1      47.400   1.704   7.046  0.00  0.00    +0.000 C 
ATOM     27  O   UNL     1      47.334   0.487   6.912  0.00  0.00    +0.000 OA
ATOM     28  H   UNL     1      49.153   1.966   5.996  0.00  0.00    +0.000 HD
ATOM     29  H   UNL     1      48.464   3.440   6.657  0.00  0.00    +0.000 HD
ENDBRANCH  19  26
ENDBRANCH  18  22
ENDBRANCH  17  18
ENDBRANCH  16  17
ENDBRANCH   1  16
TORSDOF 7
ENDMDL
MODEL 2
REMARK VINA RESULT:    -6.134      5.783      7.233
REMARK INTER + INTRA:          -9.651
REMARK INTER:                  -8.912
REMARK INTRA:                  -0.739
REMARK UNBOUND:                -1.185
REMARK  Name = 
REMARK  7 active torsions:
REMARK  status: ('A' for Active; 'I' for Inactive)
REMARK    1  A    between atoms: C_2  and  C_4
REMARK    2  A    between atoms: C_7  and  O_8
REMARK    3  A    between atoms: O_8  and  C_9
REMARK    4  A    between atoms: C_9  and  C_10
REMARK    5  A    between atoms: C_10  and  C_11
REMARK    6  A    between atoms: C_15  and  C_16
REMARK    7  A    between atoms: C_21  and  O_22
REMARK                            x       y       z     vdW  Elec       q    Type
REMARK                         _______ _______ _______ _____ _____    ______ ____
ROOT
ATOM      1  C   UNL     1      49.093   3.222  17.263  0.00  0.00    +0.000 A 
ATOM      2  C   UNL     1      49.627   2.013  16.796  0.00  0.00    +0.000 A 
ATOM      3  C   UNL     1      50.953   1.691  17.044  0.00  0.00    +0.000 A 
ATOM      4  C   UNL     1      51.754   2.561  17.785  0.00  0.00    +0.000 A 
ATOM      5  C   UNL     1      51.294   3.815  18.245  0.00  0.00    +0.000 A 
ATOM      6  C   UNL     1      49.942   4.138  17.938  0.00  0.00    +0.000 A 
ATOM      7 CL   UNL     1      49.278   5.709  18.314  0.00  0.00    +0.000 Cl
ENDROOT
BRANCH   5   8
ATOM      8  C   UNL     1      52.232   4.699  19.016  0.00  0.00    +0.000 A 
ATOM      9  C   UNL     1      53.252   5.422  18.361  0.00  0.00    +0.000 A 
ATOM     10  C   UNL     1      54.183   6.204  19.055  0.00  0.00    +0.000 A 
ATOM     11  C   UNL     1      54.078   6.353  20.430  0.00  0.00    +0.000 A 
ATOM     12  C   UNL     1      53.045   5.719  21.109  0.00  0.00    +0.000 A 
ATOM     13  C   UNL     1      52.144   4.898  20.413  0.00  0.00    +0.000 A 
BRANCH  13  14
ATOM     14  O   UNL     1      51.161   4.280  21.143  0.00  0.00    +0.000 OA
ATOM     15  H   UNL     1      50.652   4.956  21.621  0.00  0.00    +0.000 HD
ENDBRANCH  13  14
ENDBRANCH   5   8
BRANCH   1  16
ATOM     16  C   UNL     1      47.623   3.486  17.025  0.00  0.00    +0.000 C 
BRANCH  16  17
ATOM     17  C   UNL     1      47.349   4.419  15.844  0.00  0.00    +0.000 C 
BRANCH  17  18
ATOM     18  O   UNL     1      47.334   3.614  14.658  0.00  0.00    +0.000 OA
BRANCH  18  22
ATOM     19  C   UNL     1      44.635   5.032  11.981  0.00  0.00    +0.000 A 
ATOM     20  C   UNL     1      44.914   3.673  12.034  0.00  0.00    +0.000 A 
ATOM     21  N   UNL     1      45.810   3.146  12.910  0.00  0.00    +0.000 NA
ATOM     22  C   UNL     1      46.414   4.038  13.721  0.00  0.00    +0.000 A 
ATOM     23  C   UNL     1      46.141   5.404  13.663  0.00  0.00    +0.000 A 
ATOM     24  N   UNL     1      45.249   5.942  12.796  0.00  0.00    +0.000 NA
BRANCH  19  26
ATOM     25  N   UNL     1      43.179   6.812  11.225  0.00  0.00    +0.000 N 
ATOM     26  C   UNL     1      43.627   5.538  11.009  0.00  0.00    +0.000 C 
ATOM     27  O   UNL     1      43.224   4.859  10.071  0.00  0.00    +0.000 OA
ATOM     28  H   UNL     1      42.500   7.213  10.594  0.00  0.00    +0.000 HD
ATOM     29  H   UNL     1      43.546   7.358  11.997  0.00  0.00    +0.000 HD
ENDBRANCH  19  26
ENDBRANCH  18  22
ENDBRANCH  17  18
ENDBRANCH  16  17
ENDBRANCH   1  16
TORSDOF 7
ENDMDL
MODEL 3
REMARK VINA RESULT:    -6.021      4.553      8.221
REMARK INTER + INTRA:          -9.494
REMARK INTER:                  -8.589
REMARK INTRA:                  -0.905
REMARK UNBOUND:                -1.185
REMARK  Name = 
REMARK  7 active torsions:
REMARK  status: ('A' for Active; 'I' for Inactive)
REMARK    1  A    between atoms: C_2  and  C_4
REMARK    2  A    between atoms: C_7  and  O_8
REMARK    3  A    between atoms: O_8  and  C_9
REMARK    4  A    between atoms: C_9  and  C_10
REMARK    5  A    between atoms: C_10  and  C_11
REMARK    6  A    between atoms: C_15  and  C_16
REMARK    7  A    between atoms: C_21  and  O_22
REMARK                            x       y       z     vdW  Elec       q    Type
REMARK                         _______ _______ _______ _____ _____    ______ ____
ROOT
ATOM      1  C   UNL     1      46.880   8.776  12.567  0.00  0.00    +0.000 A 
ATOM      2  C   UNL     1      46.054   9.836  12.171  0.00  0.00    +0.000 A 
ATOM      3  C   UNL     1      44.840   9.582  11.550  0.00  0.00    +0.000 A 
ATOM      4  C   UNL     1      44.424   8.266  11.343  0.00  0.00    +0.000 A 
ATOM      5  C   UNL     1      45.228   7.153  11.676  0.00  0.00    +0.000 A 
ATOM      6  C   UNL     1      46.488   7.444  12.271  0.00  0.00    +0.000 A 
ATOM      7 CL   UNL     1      47.647   6.181  12.603  0.00  0.00    +0.000 Cl
ENDROOT
BRANCH   5   8
ATOM      8  C   UNL     1      44.712   5.770  11.398  0.00  0.00    +0.000 A 
ATOM      9  C   UNL     1      45.204   5.017  10.310  0.00  0.00    +0.000 A 
ATOM     10  C   UNL     1      44.700   3.752   9.983  0.00  0.00    +0.000 A 
ATOM     11  C   UNL     1      43.734   3.160  10.783  0.00  0.00    +0.000 A 
ATOM     12  C   UNL     1      43.272   3.834  11.908  0.00  0.00    +0.000 A 
ATOM     13  C   UNL     1      43.747   5.121  12.202  0.00  0.00    +0.000 A 
BRANCH  13  14
ATOM     14  O   UNL     1      43.234   5.744  13.311  0.00  0.00    +0.000 OA
ATOM     15  H   UNL     1      43.717   5.435  14.096  0.00  0.00    +0.000 HD
ENDBRANCH  13  14
ENDBRANCH   5   8
BRANCH   1  16
ATOM     16  C   UNL     1      48.159   9.112  13.303  0.00  0.00    +0.000 C 
BRANCH  16  17
ATOM     17  C   UNL     1      48.115   8.784  14.795  0.00  0.00    +0.000 C 
BRANCH  17  18
ATOM     18  O   UNL     1      49.240   7.944  15.082  0.00  0.00    +0.000 OA
BRANCH  18  22
ATOM     19  C   UNL     1      48.631   5.578  18.321  0.00  0.00    +0.000 A 
ATOM     20  C   UNL     1      48.802   5.009  17.066  0.00  0.00    +0.000 A 
ATOM     21  N   UNL     1      49.007   5.755  15.949  0.00  0.00    +0.000 NA
ATOM     22  C   UNL     1      49.028   7.090  16.145  0.00  0.00    +0.000 A 
ATOM     23  C   UNL     1      48.847   7.662  17.403  0.00  0.00    +0.000 A 
ATOM     24  N   UNL     1      48.643   6.929  18.524  0.00  0.00    +0.000 NA
BRANCH  19  26
ATOM     25  N   UNL     1      48.435   3.353  19.255  0.00  0.00    +0.000 N 
ATOM     26  C   UNL     1      48.429   4.698  19.505  0.00  0.00    +0.000 C 
ATOM     27  O   UNL     1      48.269   5.147  20.635  0.00  0.00    +0.000 OA
ATOM     28  H   UNL     1      48.310   2.706  20.020  0.00  0.00    +0.000 HD
ATOM     29  H   UNL     1      48.591   3.010  18.314  0.00  0.00    +0.000 HD
ENDBRANCH  19  26
ENDBRANCH  18  22
ENDBRANCH  17  18
ENDBRANCH  16  17
ENDBRANCH   1  16
TORSDOF 7
ENDMDL
MODEL 4
REMARK VINA RESULT:    -5.927      4.947      7.895
REMARK INTER + INTRA:          -9.365
REMARK INTER:                  -8.357
REMARK INTRA:                  -1.008
REMARK UNBOUND:                -1.185
REMARK  Name = 
REMARK  7 active torsions:
REMARK  status: ('A' for Active; 'I' for Inactive)
REMARK    1  A    between atoms: C_2  and  C_4
REMARK    2  A    between atoms: C_7  and  O_8
REMARK    3  A    between atoms: O_8  and  C_9
REMARK    4  A    between atoms: C_9  and  C_10
REMARK    5  A    between atoms: C_10  and  C_11
REMARK    6  A    between atoms: C_15  and  C_16
REMARK    7  A    between atoms: C_21  and  O_22
REMARK                            x       y       z     vdW  Elec       q    Type
REMARK                         _______ _______ _______ _____ _____    ______ ____
ROOT
ATOM      1  C   UNL     1      48.162   7.574  13.717  0.00  0.00    +0.000 A 
ATOM      2  C   UNL     1      48.005   8.918  13.353  0.00  0.00    +0.000 A 
ATOM      3  C   UNL     1      46.899   9.320  12.620  0.00  0.00    +0.000 A 
ATOM      4  C   UNL     1      45.922   8.388  12.265  0.00  0.00    +0.000 A 
ATOM      5  C   UNL     1      46.041   7.011  12.559  0.00  0.00    +0.000 A 
ATOM      6  C   UNL     1      47.208   6.621  13.274  0.00  0.00    +0.000 A 
ATOM      7 CL   UNL     1      47.563   4.938  13.582  0.00  0.00    +0.000 Cl
ENDROOT
BRANCH   5   8
ATOM      8  C   UNL     1      44.953   6.074  12.120  0.00  0.00    +0.000 A 
ATOM      9  C   UNL     1      43.907   5.712  12.997  0.00  0.00    +0.000 A 
ATOM     10  C   UNL     1      42.914   4.790  12.642  0.00  0.00    +0.000 A 
ATOM     11  C   UNL     1      42.888   4.254  11.363  0.00  0.00    +0.000 A 
ATOM     12  C   UNL     1      43.855   4.638  10.442  0.00  0.00    +0.000 A 
ATOM     13  C   UNL     1      44.875   5.524  10.819  0.00  0.00    +0.000 A 
BRANCH  13  14
ATOM     14  O   UNL     1      45.814   5.845   9.872  0.00  0.00    +0.000 OA
ATOM     15  H   UNL     1      46.034   5.046   9.365  0.00  0.00    +0.000 HD
ENDBRANCH  13  14
ENDBRANCH   5   8
BRANCH   1  16
ATOM     16  C   UNL     1      49.352   7.207  14.577  0.00  0.00    +0.000 C 
BRANCH  16  17
ATOM     17  C   UNL     1      49.193   7.598  16.046  0.00  0.00    +0.000 C 
BRANCH  17  18
ATOM     18  O   UNL     1      48.507   6.524  16.703  0.00  0.00    +0.000 OA
BRANCH  18  22
ATOM     19  C   UNL     1      50.737   3.219  17.452  0.00  0.00    +0.000 A 
ATOM     20  C   UNL     1      51.293   4.482  17.605  0.00  0.00    +0.000 A 
ATOM     21  N   UNL     1      50.591   5.621  17.365  0.00  0.00    +0.000 NA
ATOM     22  C   UNL     1      49.317   5.438  16.963  0.00  0.00    +0.000 A 
ATOM     23  C   UNL     1      48.761   4.170  16.802  0.00  0.00    +0.000 A 
ATOM     24  N   UNL     1      49.449   3.027  17.038  0.00  0.00    +0.000 NA
BRANCH  19  26
ATOM     25  N   UNL     1      52.640   2.218  18.565  0.00  0.00    +0.000 N 
ATOM     26  C   UNL     1      51.560   2.014  17.751  0.00  0.00    +0.000 C 
ATOM     27  O   UNL     1      51.288   0.907  17.299  0.00  0.00    +0.000 OA
ATOM     28  H   UNL     1      53.231   1.436  18.809  0.00  0.00    +0.000 HD
ATOM     29  H   UNL     1      52.828   3.140  18.941  0.00  0.00    +0.000 HD
ENDBRANCH  19  26
ENDBRANCH  18  22
ENDBRANCH  17  18
ENDBRANCH  16  17
ENDBRANCH   1  16
TORSDOF 7
ENDMDL
MODEL 5
REMARK VINA RESULT:    -5.863      4.954      6.826
REMARK INTER + INTRA:          -9.276
REMARK INTER:                  -8.307
REMARK INTRA:                  -0.969
REMARK UNBOUND:                -1.185
REMARK  Name = 
REMARK  7 active torsions:
REMARK  status: ('A' for Active; 'I' for Inactive)
REMARK    1  A    between atoms: C_2  and  C_4
REMARK    2  A    between atoms: C_7  and  O_8
REMARK    3  A    between atoms: O_8  and  C_9
REMARK    4  A    between atoms: C_9  and  C_10
REMARK    5  A    between atoms: C_10  and  C_11
REMARK    6  A    between atoms: C_15  and  C_16
REMARK    7  A    between atoms: C_21  and  O_22
REMARK                            x       y       z     vdW  Elec       q    Type
REMARK                         _______ _______ _______ _____ _____    ______ ____
ROOT
ATOM      1  C   UNL     1      49.146   7.746  16.078  0.00  0.00    +0.000 A 
ATOM      2  C   UNL     1      48.472   8.974  16.124  0.00  0.00    +0.000 A 
ATOM      3  C   UNL     1      47.964   9.448  17.324  0.00  0.00    +0.000 A 
ATOM      4  C   UNL     1      48.149   8.715  18.498  0.00  0.00    +0.000 A 
ATOM      5  C   UNL     1      48.778   7.451  18.514  0.00  0.00    +0.000 A 
ATOM      6  C   UNL     1      49.249   6.968  17.261  0.00  0.00    +0.000 A 
ATOM      7 CL   UNL     1      49.917   5.362  17.100  0.00  0.00    +0.000 Cl
ENDROOT
BRANCH   5   8
ATOM      8  C   UNL     1      48.914   6.719  19.819  0.00  0.00    +0.000 A 
ATOM      9  C   UNL     1      50.006   6.965  20.679  0.00  0.00    +0.000 A 
ATOM     10  C   UNL     1      50.199   6.254  21.870  0.00  0.00    +0.000 A 
ATOM     11  C   UNL     1      49.259   5.322  22.283  0.00  0.00    +0.000 A 
ATOM     12  C   UNL     1      48.130   5.100  21.505  0.00  0.00    +0.000 A 
ATOM     13  C   UNL     1      47.967   5.780  20.289  0.00  0.00    +0.000 A 
BRANCH  13  14
ATOM     14  O   UNL     1      46.844   5.499  19.554  0.00  0.00    +0.000 OA
ATOM     15  H   UNL     1      46.798   6.114  18.803  0.00  0.00    +0.000 HD
ENDBRANCH  13  14
ENDBRANCH   5   8
BRANCH   1  16
ATOM     16  C   UNL     1      49.740   7.314  14.755  0.00  0.00    +0.000 C 
BRANCH  16  17
ATOM     17  C   UNL     1      48.694   6.977  13.692  0.00  0.00    +0.000 C 
BRANCH  17  18
ATOM     18  O   UNL     1      48.050   5.762  14.095  0.00  0.00    +0.000 OA
BRANCH  18  22
ATOM     19  C   UNL     1      45.046   4.472  11.693  0.00  0.00    +0.000 A 
ATOM     20  C   UNL     1      45.608   5.725  11.492  0.00  0.00    +0.000 A 
ATOM     21  N   UNL     1      46.614   6.206  12.268  0.00  0.00    +0.000 NA
ATOM     22  C   UNL     1      47.026   5.381  13.253  0.00  0.00    +0.000 A 
ATOM     23  C   UNL     1      46.456   4.126  13.461  0.00  0.00    +0.000 A 
ATOM     24  N   UNL     1      45.453   3.634  12.693  0.00  0.00    +0.000 NA
BRANCH  19  26
ATOM     25  N   UNL     1      43.898   4.605   9.565  0.00  0.00    +0.000 N 
ATOM     26  C   UNL     1      43.958   4.001  10.791  0.00  0.00    +0.000 C 
ATOM     27  O   UNL     1      43.166   3.126  11.122  0.00  0.00    +0.000 OA
ATOM     28  H   UNL     1      43.186   4.322   8.908  0.00  0.00    +0.000 HD
ATOM     29  H   UNL     1      44.580   5.311   9.311  0.00  0.00    +0.000 HD
ENDBRANCH  19  26
ENDBRANCH  18  22
ENDBRANCH  17  18
ENDBRANCH  16  17
ENDBRANCH   1  16
TORSDOF 7
ENDMDL
MODEL 6
REMARK VINA RESULT:    -5.739      5.901      7.387
REMARK INTER + INTRA:          -9.104
REMARK INTER:                  -8.285
REMARK INTRA:                  -0.820
REMARK UNBOUND:                -1.185
REMARK  Name = 
REMARK  7 active torsions:
REMARK  status: ('A' for Active; 'I' for Inactive)
REMARK    1  A    between atoms: C_2  and  C_4
REMARK    2  A    between atoms: C_7  and  O_8
REMARK    3  A    between atoms: O_8  and  C_9
REMARK    4  A    between atoms: C_9  and  C_10
REMARK    5  A    between atoms: C_10  and  C_11
REMARK    6  A    between atoms: C_15  and  C_16
REMARK    7  A    between atoms: C_21  and  O_22
REMARK                            x       y       z     vdW  Elec       q    Type
REMARK                         _______ _______ _______ _____ _____    ______ ____
ROOT
ATOM      1  C   UNL     1      47.836   4.706  18.198  0.00  0.00    +0.000 A 
ATOM      2  C   UNL     1      46.972   5.583  18.866  0.00  0.00    +0.000 A 
ATOM      3  C   UNL     1      47.438   6.364  19.913  0.00  0.00    +0.000 A 
ATOM      4  C   UNL     1      48.781   6.297  20.287  0.00  0.00    +0.000 A 
ATOM      5  C   UNL     1      49.695   5.402  19.688  0.00  0.00    +0.000 A 
ATOM      6  C   UNL     1      49.178   4.581  18.647  0.00  0.00    +0.000 A 
ATOM      7 CL   UNL     1      50.148   3.328  17.913  0.00  0.00    +0.000 Cl
ENDROOT
BRANCH   5   8
ATOM      8  C   UNL     1      51.118   5.380  20.169  0.00  0.00    +0.000 A 
ATOM      9  C   UNL     1      51.472   4.708  21.359  0.00  0.00    +0.000 A 
ATOM     10  C   UNL     1      52.776   4.722  21.869  0.00  0.00    +0.000 A 
ATOM     11  C   UNL     1      53.792   5.347  21.163  0.00  0.00    +0.000 A 
ATOM     12  C   UNL     1      53.504   5.959  19.949  0.00  0.00    +0.000 A 
ATOM     13  C   UNL     1      52.187   5.982  19.467  0.00  0.00    +0.000 A 
BRANCH  13  14
ATOM     14  O   UNL     1      51.963   6.623  18.275  0.00  0.00    +0.000 OA
ATOM     15  H   UNL     1      51.033   6.500  18.023  0.00  0.00    +0.000 HD
ENDBRANCH  13  14
ENDBRANCH   5   8
BRANCH   1  16
ATOM     16  C   UNL     1      47.289   3.932  17.019  0.00  0.00    +0.000 C 
BRANCH  16  17
ATOM     17  C   UNL     1      47.612   4.564  15.665  0.00  0.00    +0.000 C 
BRANCH  17  18
ATOM     18  O   UNL     1      47.367   3.571  14.660  0.00  0.00    +0.000 OA
BRANCH  18  22
ATOM     19  C   UNL     1      44.714   4.935  11.911  0.00  0.00    +0.000 A 
ATOM     20  C   UNL     1      44.970   3.574  12.015  0.00  0.00    +0.000 A 
ATOM     21  N   UNL     1      45.850   3.065  12.917  0.00  0.00    +0.000 NA
ATOM     22  C   UNL     1      46.462   3.976  13.701  0.00  0.00    +0.000 A 
ATOM     23  C   UNL     1      46.212   5.343  13.590  0.00  0.00    +0.000 A 
ATOM     24  N   UNL     1      45.336   5.863  12.697  0.00  0.00    +0.000 NA
BRANCH  19  26
ATOM     25  N   UNL     1      43.155   6.637  11.180  0.00  0.00    +0.000 N 
ATOM     26  C   UNL     1      43.722   5.421  10.912  0.00  0.00    +0.000 C 
ATOM     27  O   UNL     1      43.431   4.777   9.910  0.00  0.00    +0.000 OA
ATOM     28  H   UNL     1      42.480   7.022  10.535  0.00  0.00    +0.000 HD
ATOM     29  H   UNL     1      43.430   7.158  12.005  0.00  0.00    +0.000 HD
ENDBRANCH  19  26
ENDBRANCH  18  22
ENDBRANCH  17  18
ENDBRANCH  16  17
ENDBRANCH   1  16
TORSDOF 7
ENDMDL
MODEL 7
REMARK VINA RESULT:    -5.726      5.189      6.773
REMARK INTER + INTRA:          -9.087
REMARK INTER:                  -8.229
REMARK INTRA:                  -0.858
REMARK UNBOUND:                -1.185
REMARK  Name = 
REMARK  7 active torsions:
REMARK  status: ('A' for Active; 'I' for Inactive)
REMARK    1  A    between atoms: C_2  and  C_4
REMARK    2  A    between atoms: C_7  and  O_8
REMARK    3  A    between atoms: O_8  and  C_9
REMARK    4  A    between atoms: C_9  and  C_10
REMARK    5  A    between atoms: C_10  and  C_11
REMARK    6  A    between atoms: C_15  and  C_16
REMARK    7  A    between atoms: C_21  and  O_22
REMARK                            x       y       z     vdW  Elec       q    Type
REMARK                         _______ _______ _______ _____ _____    ______ ____
ROOT
ATOM      1  C   UNL     1      48.688   5.624  16.293  0.00  0.00    +0.000 A 
ATOM      2  C   UNL     1      47.612   4.756  16.517  0.00  0.00    +0.000 A 
ATOM      3  C   UNL     1      47.701   3.766  17.484  0.00  0.00    +0.000 A 
ATOM      4  C   UNL     1      48.856   3.651  18.259  0.00  0.00    +0.000 A 
ATOM      5  C   UNL     1      49.993   4.463  18.055  0.00  0.00    +0.000 A 
ATOM      6  C   UNL     1      49.891   5.440  17.026  0.00  0.00    +0.000 A 
ATOM      7 CL   UNL     1      51.262   6.417  16.562  0.00  0.00    +0.000 Cl
ENDROOT
BRANCH   5   8
ATOM      8  C   UNL     1      51.204   4.255  18.921  0.00  0.00    +0.000 A 
ATOM      9  C   UNL     1      51.351   4.947  20.142  0.00  0.00    +0.000 A 
ATOM     10  C   UNL     1      52.495   4.827  20.940  0.00  0.00    +0.000 A 
ATOM     11  C   UNL     1      53.504   3.947  20.581  0.00  0.00    +0.000 A 
ATOM     12  C   UNL     1      53.369   3.190  19.424  0.00  0.00    +0.000 A 
ATOM     13  C   UNL     1      52.243   3.350  18.604  0.00  0.00    +0.000 A 
BRANCH  13  14
ATOM     14  O   UNL     1      52.180   2.592  17.462  0.00  0.00    +0.000 OA
ATOM     15  H   UNL     1      52.779   2.973  16.799  0.00  0.00    +0.000 HD
ENDBRANCH  13  14
ENDBRANCH   5   8
BRANCH   1  16
ATOM     16  C   UNL     1      48.508   6.728  15.275  0.00  0.00    +0.000 C 
BRANCH  16  17
ATOM     17  C   UNL     1      48.258   6.221  13.854  0.00  0.00    +0.000 C 
BRANCH  17  18
ATOM     18  O   UNL     1      46.974   6.710  13.446  0.00  0.00    +0.000 OA
BRANCH  18  22
ATOM     19  C   UNL     1      44.751   3.809  11.685  0.00  0.00    +0.000 A 
ATOM     20  C   UNL     1      45.102   4.947  10.970  0.00  0.00    +0.000 A 
ATOM     21  N   UNL     1      45.842   5.948  11.513  0.00  0.00    +0.000 NA
ATOM     22  C   UNL     1      46.209   5.762  12.797  0.00  0.00    +0.000 A 
ATOM     23  C   UNL     1      45.850   4.624  13.518  0.00  0.00    +0.000 A 
ATOM     24  N   UNL     1      45.113   3.618  12.988  0.00  0.00    +0.000 NA
BRANCH  19  26
ATOM     25  N   UNL     1      44.486   2.229   9.870  0.00  0.00    +0.000 N 
ATOM     26  C   UNL     1      43.953   2.742  11.021  0.00  0.00    +0.000 C 
ATOM     27  O   UNL     1      42.885   2.343  11.474  0.00  0.00    +0.000 OA
ATOM     28  H   UNL     1      43.993   1.497   9.379  0.00  0.00    +0.000 HD
ATOM     29  H   UNL     1      45.381   2.562   9.529  0.00  0.00    +0.000 HD
ENDBRANCH  19  26
ENDBRANCH  18  22
ENDBRANCH  17  18
ENDBRANCH  16  17
ENDBRANCH   1  16
TORSDOF 7
ENDMDL
MODEL 8
REMARK VINA RESULT:    -5.718      5.213      7.607
REMARK INTER + INTRA:          -9.077
REMARK INTER:                  -8.009
REMARK INTRA:                  -1.068
REMARK UNBOUND:                -1.185
REMARK  Name = 
REMARK  7 active torsions:
REMARK  status: ('A' for Active; 'I' for Inactive)
REMARK    1  A    between atoms: C_2  and  C_4
REMARK    2  A    between atoms: C_7  and  O_8
REMARK    3  A    between atoms: O_8  and  C_9
REMARK    4  A    between atoms: C_9  and  C_10
REMARK    5  A    between atoms: C_10  and  C_11
REMARK    6  A    between atoms: C_15  and  C_16
REMARK    7  A    between atoms: C_21  and  O_22
REMARK                            x       y       z     vdW  Elec       q    Type
REMARK                         _______ _______ _______ _____ _____    ______ ____
ROOT
ATOM      1  C   UNL     1      49.306   6.724  17.413  0.00  0.00    +0.000 A 
ATOM      2  C   UNL     1      48.085   6.429  18.034  0.00  0.00    +0.000 A 
ATOM      3  C   UNL     1      47.878   5.187  18.617  0.00  0.00    +0.000 A 
ATOM      4  C   UNL     1      48.899   4.236  18.610  0.00  0.00    +0.000 A 
ATOM      5  C   UNL     1      50.135   4.450  17.962  0.00  0.00    +0.000 A 
ATOM      6  C   UNL     1      50.303   5.716  17.334  0.00  0.00    +0.000 A 
ATOM      7 CL   UNL     1      51.718   6.072  16.373  0.00  0.00    +0.000 Cl
ENDROOT
BRANCH   5   8
ATOM      8  C   UNL     1      51.171   3.362  17.984  0.00  0.00    +0.000 A 
ATOM      9  C   UNL     1      52.352   3.498  18.744  0.00  0.00    +0.000 A 
ATOM     10  C   UNL     1      53.366   2.533  18.736  0.00  0.00    +0.000 A 
ATOM     11  C   UNL     1      53.199   1.355  18.023  0.00  0.00    +0.000 A 
ATOM     12  C   UNL     1      52.020   1.145  17.319  0.00  0.00    +0.000 A 
ATOM     13  C   UNL     1      51.029   2.136  17.292  0.00  0.00    +0.000 A 
BRANCH  13  14
ATOM     14  O   UNL     1      49.898   1.880  16.559  0.00  0.00    +0.000 OA
ATOM     15  H   UNL     1      49.498   1.054  16.877  0.00  0.00    +0.000 HD
ENDBRANCH  13  14
ENDBRANCH   5   8
BRANCH   1  16
ATOM     16  C   UNL     1      49.500   8.117  16.857  0.00  0.00    +0.000 C 
BRANCH  16  17
ATOM     17  C   UNL     1      48.623   8.423  15.643  0.00  0.00    +0.000 C 
BRANCH  17  18
ATOM     18  O   UNL     1      49.030   7.542  14.588  0.00  0.00    +0.000 OA
BRANCH  18  22
ATOM     19  C   UNL     1      45.930   5.384  13.109  0.00  0.00    +0.000 A 
ATOM     20  C   UNL     1      46.879   4.773  13.917  0.00  0.00    +0.000 A 
ATOM     21  N   UNL     1      47.938   5.449  14.436  0.00  0.00    +0.000 NA
ATOM     22  C   UNL     1      48.004   6.755  14.107  0.00  0.00    +0.000 A 
ATOM     23  C   UNL     1      47.055   7.367  13.289  0.00  0.00    +0.000 A 
ATOM     24  N   UNL     1      45.995   6.704  12.766  0.00  0.00    +0.000 NA
BRANCH  19  26
ATOM     25  N   UNL     1      44.376   4.888  11.319  0.00  0.00    +0.000 N 
ATOM     26  C   UNL     1      44.785   4.585  12.589  0.00  0.00    +0.000 C 
ATOM     27  O   UNL     1      44.241   3.710  13.254  0.00  0.00    +0.000 OA
ATOM     28  H   UNL     1      43.609   4.375  10.910  0.00  0.00    +0.000 HD
ATOM     29  H   UNL     1      44.858   5.603  10.785  0.00  0.00    +0.000 HD
ENDBRANCH  19  26
ENDBRANCH  18  22
ENDBRANCH  17  18
ENDBRANCH  16  17
ENDBRANCH   1  16
TORSDOF 7
ENDMDL
MODEL 9
REMARK VINA RESULT:    -5.552      4.370      7.804
REMARK INTER + INTRA:          -8.847
REMARK INTER:                  -7.320
REMARK INTRA:                  -1.527
REMARK UNBOUND:                -1.185
REMARK  Name = 
REMARK  7 active torsions:
REMARK  status: ('A' for Active; 'I' for Inactive)
REMARK    1  A    between atoms: C_2  and  C_4
REMARK    2  A    between atoms: C_7  and  O_8
REMARK    3  A    between atoms: O_8  and  C_9
REMARK    4  A    between atoms: C_9  and  C_10
REMARK    5  A    between atoms: C_10  and  C_11
REMARK    6  A    between atoms: C_15  and  C_16
REMARK    7  A    between atoms: C_21  and  O_22
REMARK                            x       y       z     vdW  Elec       q    Type
REMARK                         _______ _______ _______ _____ _____    ______ ____
ROOT
ATOM      1  C   UNL     1      48.305   9.437  12.000  0.00  0.00    +0.000 A 
ATOM      2  C   UNL     1      47.307  10.415  12.096  0.00  0.00    +0.000 A 
ATOM      3  C   UNL     1      45.972  10.047  12.177  0.00  0.00    +0.000 A 
ATOM      4  C   UNL     1      45.621   8.696  12.190  0.00  0.00    +0.000 A 
ATOM      5  C   UNL     1      46.572   7.661  12.049  0.00  0.00    +0.000 A 
ATOM      6  C   UNL     1      47.930   8.069  11.923  0.00  0.00    +0.000 A 
ATOM      7 CL   UNL     1      49.199   6.914  11.599  0.00  0.00    +0.000 Cl
ENDROOT
BRANCH   5   8
ATOM      8  C   UNL     1      46.105   6.234  12.050  0.00  0.00    +0.000 A 
ATOM      9  C   UNL     1      45.497   5.667  10.909  0.00  0.00    +0.000 A 
ATOM     10  C   UNL     1      44.991   4.362  10.897  0.00  0.00    +0.000 A 
ATOM     11  C   UNL     1      45.146   3.546  12.008  0.00  0.00    +0.000 A 
ATOM     12  C   UNL     1      45.804   4.037  13.129  0.00  0.00    +0.000 A 
ATOM     13  C   UNL     1      46.265   5.361  13.152  0.00  0.00    +0.000 A 
BRANCH  13  14
ATOM     14  O   UNL     1      46.885   5.795  14.297  0.00  0.00    +0.000 OA
ATOM     15  H   UNL     1      47.444   6.559  14.081  0.00  0.00    +0.000 HD
ENDBRANCH  13  14
ENDBRANCH   5   8
BRANCH   1  16
ATOM     16  C   UNL     1      49.747   9.895  11.987  0.00  0.00    +0.000 C 
BRANCH  16  17
ATOM     17  C   UNL     1      50.568   9.381  13.170  0.00  0.00    +0.000 C 
BRANCH  17  18
ATOM     18  O   UNL     1      49.945   9.868  14.366  0.00  0.00    +0.000 OA
BRANCH  18  22
ATOM     19  C   UNL     1      48.914   6.790  16.799  0.00  0.00    +0.000 A 
ATOM     20  C   UNL     1      48.541   8.087  17.123  0.00  0.00    +0.000 A 
ATOM     21  N   UNL     1      48.862   9.154  16.344  0.00  0.00    +0.000 NA
ATOM     22  C   UNL     1      49.574   8.863  15.236  0.00  0.00    +0.000 A 
ATOM     23  C   UNL     1      49.956   7.562  14.915  0.00  0.00    +0.000 A 
ATOM     24  N   UNL     1      49.641   6.490  15.682  0.00  0.00    +0.000 NA
BRANCH  19  26
ATOM     25  N   UNL     1      47.319   5.065  17.387  0.00  0.00    +0.000 N 
ATOM     26  C   UNL     1      48.511   5.666  17.689  0.00  0.00    +0.000 C 
ATOM     27  O   UNL     1      49.201   5.298  18.633  0.00  0.00    +0.000 OA
ATOM     28  H   UNL     1      46.997   4.292  17.951  0.00  0.00    +0.000 HD
ATOM     29  H   UNL     1      46.779   5.377  16.587  0.00  0.00    +0.000 HD
ENDBRANCH  19  26
ENDBRANCH  18  22
ENDBRANCH  17  18
ENDBRANCH  16  17
ENDBRANCH   1  16
TORSDOF 7
ENDMDL
