MODEL 1
REMARK VINA RESULT:    -7.662      0.000      0.000
REMARK INTER + INTRA:         -10.572
REMARK INTER:                  -9.902
REMARK INTRA:                  -0.671
REMARK UNBOUND:                -0.671
REMARK  Name = 
REMARK  5 active torsions:
REMARK  status: ('A' for Active; 'I' for Inactive)
REMARK    1  A    between atoms: C_2  and  C_18
REMARK    2  A    between atoms: N_3  and  C_4
REMARK    3  A    between atoms: C_4  and  C_5
REMARK    4  A    between atoms: C_8  and  C_9
REMARK    5  A    between atoms: C_9  and  C_10
REMARK                            x       y       z     vdW  Elec       q    Type
REMARK                         _______ _______ _______ _____ _____    ______ ____
ROOT
ATOM      1  N   UNL     1      45.981   3.661  13.568  0.00  0.00    +0.000 NA
ATOM      2  C   UNL     1      45.931   4.933  13.773  0.00  0.00    +0.000 C 
ATOM      3  N   UNL     1      44.830   5.733  13.621  0.00  0.00    +0.000 N 
ATOM      4  H   UNL     1      45.067   3.313  13.288  0.00  0.00    +0.000 HD
ATOM      5  H   UNL     1      45.013   6.736  13.647  0.00  0.00    +0.000 HD
ENDROOT
BRANCH   2   6
ATOM      6  C   UNL     1      47.187   5.559  14.206  0.00  0.00    +0.000 A 
ATOM      7  C   UNL     1      47.788   6.550  13.437  0.00  0.00    +0.000 A 
ATOM      8  S   UNL     1      49.157   7.261  14.168  0.00  0.00    +0.000 S 
ATOM      9  C   UNL     1      48.979   6.295  15.555  0.00  0.00    +0.000 A 
ATOM     10  N   UNL     1      49.792   6.463  16.634  0.00  0.00    +0.000 NA
ATOM     11  C   UNL     1      49.515   5.694  17.632  0.00  0.00    +0.000 A 
ATOM     12  N   UNL     1      48.521   4.748  17.639  0.00  0.00    +0.000 N 
ATOM     13  C   UNL     1      47.714   4.507  16.551  0.00  0.00    +0.000 A 
ATOM     14  O   UNL     1      46.900   3.589  16.554  0.00  0.00    +0.000 OA
ATOM     15  C   UNL     1      47.935   5.394  15.430  0.00  0.00    +0.000 A 
ATOM     16  H   UNL     1      48.386   4.151  18.437  0.00  0.00    +0.000 HD
ENDBRANCH   2   6
BRANCH   3  17
ATOM     17  C   UNL     1      43.799   5.416  12.638  0.00  0.00    +0.000 C 
BRANCH  17  18
ATOM     18  C   UNL     1      44.356   5.054  11.274  0.00  0.00    +0.000 A 
ATOM     19  C   UNL     1      45.370   5.837  10.707  0.00  0.00    +0.000 A 
ATOM     20  C   UNL     1      45.938   5.506   9.469  0.00  0.00    +0.000 A 
ATOM     21  C   UNL     1      45.512   4.384   8.750  0.00  0.00    +0.000 A 
ATOM     22  C   UNL     1      44.500   3.588   9.316  0.00  0.00    +0.000 A 
ATOM     23  C   UNL     1      43.926   3.925  10.562  0.00  0.00    +0.000 A 
BRANCH  21  24
ATOM     24  C   UNL     1      46.059   4.142   7.351  0.00  0.00    +0.000 C 
BRANCH  24  25
ATOM     25  C   UNL     1      45.891   2.738   6.712  0.00  0.00    +0.000 C 
ATOM     26  C   UNL     1      46.631   1.588   7.414  0.00  0.00    +0.000 C 
ATOM     27  C   UNL     1      48.141   1.553   7.161  0.00  0.00    +0.000 C 
ATOM     28  N   UNL     1      48.532   1.665   5.757  0.00  0.00    +0.000 NA
ATOM     29  C   UNL     1      47.863   2.759   5.061  0.00  0.00    +0.000 C 
ATOM     30  C   UNL     1      46.341   2.747   5.233  0.00  0.00    +0.000 C 
ATOM     31  H   UNL     1      48.351   0.786   5.273  0.00  0.00    +0.000 HD
ENDBRANCH  24  25
ENDBRANCH  21  24
ENDBRANCH  17  18
ENDBRANCH   3  17
TORSDOF 5
ENDMDL
MODEL 2
REMARK VINA RESULT:    -7.352      4.520      7.304
REMARK INTER + INTRA:         -10.171
REMARK INTER:                  -9.074
REMARK INTRA:                  -1.097
REMARK UNBOUND:                -0.671
REMARK  Name = 
REMARK  5 active torsions:
REMARK  status: ('A' for Active; 'I' for Inactive)
REMARK    1  A    between atoms: C_2  and  C_18
REMARK    2  A    between atoms: N_3  and  C_4
REMARK    3  A    between atoms: C_4  and  C_5
REMARK    4  A    between atoms: C_8  and  C_9
REMARK    5  A    between atoms: C_9  and  C_10
REMARK                            x       y       z     vdW  Elec       q    Type
REMARK                         _______ _______ _______ _____ _____    ______ ____
ROOT
ATOM      1  N   UNL     1      43.647   7.420  11.033  0.00  0.00    +0.000 NA
ATOM      2  C   UNL     1      44.328   6.704  11.861  0.00  0.00    +0.000 C 
ATOM      3  N   UNL     1      45.093   7.174  12.895  0.00  0.00    +0.000 N 
ATOM      4  H   UNL     1      43.737   8.406  11.263  0.00  0.00    +0.000 HD
ATOM      5  H   UNL     1      45.707   6.486  13.333  0.00  0.00    +0.000 HD
ENDROOT
BRANCH   2   6
ATOM      6  C   UNL     1      44.265   5.251  11.652  0.00  0.00    +0.000 A 
ATOM      7  C   UNL     1      43.605   4.431  12.562  0.00  0.00    +0.000 A 
ATOM      8  S   UNL     1      43.509   2.797  12.080  0.00  0.00    +0.000 S 
ATOM      9  C   UNL     1      44.316   3.128  10.622  0.00  0.00    +0.000 A 
ATOM     10  N   UNL     1      44.490   2.158   9.682  0.00  0.00    +0.000 NA
ATOM     11  C   UNL     1      45.079   2.561   8.607  0.00  0.00    +0.000 A 
ATOM     12  N   UNL     1      45.539   3.836   8.397  0.00  0.00    +0.000 N 
ATOM     13  C   UNL     1      45.434   4.831   9.342  0.00  0.00    +0.000 A 
ATOM     14  O   UNL     1      45.943   5.933   9.163  0.00  0.00    +0.000 OA
ATOM     15  C   UNL     1      44.716   4.451  10.539  0.00  0.00    +0.000 A 
ATOM     16  H   UNL     1      46.028   4.073   7.550  0.00  0.00    +0.000 HD
ENDBRANCH   2   6
BRANCH   3  17
ATOM     17  C   UNL     1      45.744   8.477  12.819  0.00  0.00    +0.000 C 
BRANCH  17  18
ATOM     18  C   UNL     1      47.217   8.397  12.463  0.00  0.00    +0.000 A 
ATOM     19  C   UNL     1      47.891   7.172  12.565  0.00  0.00    +0.000 A 
ATOM     20  C   UNL     1      49.240   7.053  12.203  0.00  0.00    +0.000 A 
ATOM     21  C   UNL     1      49.965   8.150  11.729  0.00  0.00    +0.000 A 
ATOM     22  C   UNL     1      49.295   9.381  11.616  0.00  0.00    +0.000 A 
ATOM     23  C   UNL     1      47.937   9.501  11.985  0.00  0.00    +0.000 A 
BRANCH  21  24
ATOM     24  C   UNL     1      51.460   8.005  11.479  0.00  0.00    +0.000 C 
BRANCH  24  25
ATOM     25  C   UNL     1      51.954   7.706  10.039  0.00  0.00    +0.000 C 
ATOM     26  C   UNL     1      52.916   6.516   9.893  0.00  0.00    +0.000 C 
ATOM     27  C   UNL     1      54.349   6.794  10.357  0.00  0.00    +0.000 C 
ATOM     28  N   UNL     1      54.936   8.026   9.833  0.00  0.00    +0.000 NA
ATOM     29  C   UNL     1      54.058   9.184   9.971  0.00  0.00    +0.000 C 
ATOM     30  C   UNL     1      52.648   8.943   9.424  0.00  0.00    +0.000 C 
ATOM     31  H   UNL     1      55.193   7.902   8.855  0.00  0.00    +0.000 HD
ENDBRANCH  24  25
ENDBRANCH  21  24
ENDBRANCH  17  18
ENDBRANCH   3  17
TORSDOF 5
ENDMDL
MODEL 3
REMARK VINA RESULT:    -7.302      3.353      5.064
REMARK INTER + INTRA:         -10.108
REMARK INTER:                  -8.615
REMARK INTRA:                  -1.492
REMARK UNBOUND:                -0.671
REMARK  Name = 
REMARK  5 active torsions:
REMARK  status: ('A' for Active; 'I' for Inactive)
REMARK    1  A    between atoms: C_2  and  C_18
REMARK    2  A    between atoms: N_3  and  C_4
REMARK    3  A    between atoms: C_4  and  C_5
REMARK    4  A    between atoms: C_8  and  C_9
REMARK    5  A    between atoms: C_9  and  C_10
REMARK                            x       y       z     vdW  Elec       q    Type
REMARK                         _______ _______ _______ _____ _____    ______ ____
ROOT
ATOM      1  N   UNL     1      48.084   8.533  16.895  0.00  0.00    +0.000 NA
ATOM      2  C   UNL     1      49.034   7.847  16.358  0.00  0.00    +0.000 C 
ATOM      3  N   UNL     1      49.772   8.209  15.263  0.00  0.00    +0.000 N 
ATOM      4  H   UNL     1      47.960   9.412  16.399  0.00  0.00    +0.000 HD
ATOM      5  H   UNL     1      50.353   7.471  14.864  0.00  0.00    +0.000 HD
ENDROOT
BRANCH   2   6
ATOM      6  C   UNL     1      49.331   6.558  16.997  0.00  0.00    +0.000 A 
ATOM      7  C   UNL     1      50.267   6.473  18.023  0.00  0.00    +0.000 A 
ATOM      8  S   UNL     1      50.373   4.928  18.739  0.00  0.00    +0.000 S 
ATOM      9  C   UNL     1      49.148   4.321  17.729  0.00  0.00    +0.000 A 
ATOM     10  N   UNL     1      48.680   3.052  17.882  0.00  0.00    +0.000 NA
ATOM     11  C   UNL     1      47.722   2.740  17.077  0.00  0.00    +0.000 A 
ATOM     12  N   UNL     1      47.209   3.569  16.111  0.00  0.00    +0.000 N 
ATOM     13  C   UNL     1      47.691   4.838  15.886  0.00  0.00    +0.000 A 
ATOM     14  O   UNL     1      47.279   5.518  14.952  0.00  0.00    +0.000 OA
ATOM     15  C   UNL     1      48.718   5.264  16.811  0.00  0.00    +0.000 A 
ATOM     16  H   UNL     1      46.488   3.248  15.487  0.00  0.00    +0.000 HD
ENDBRANCH   2   6
BRANCH   3  17
ATOM     17  C   UNL     1      49.201   9.045  14.213  0.00  0.00    +0.000 C 
BRANCH  17  18
ATOM     18  C   UNL     1      48.118   8.349  13.408  0.00  0.00    +0.000 A 
ATOM     19  C   UNL     1      46.776   8.698  13.602  0.00  0.00    +0.000 A 
ATOM     20  C   UNL     1      45.755   8.108  12.845  0.00  0.00    +0.000 A 
ATOM     21  C   UNL     1      46.036   7.147  11.869  0.00  0.00    +0.000 A 
ATOM     22  C   UNL     1      47.382   6.796  11.662  0.00  0.00    +0.000 A 
ATOM     23  C   UNL     1      48.410   7.389  12.429  0.00  0.00    +0.000 A 
BRANCH  21  24
ATOM     24  C   UNL     1      44.887   6.434  11.169  0.00  0.00    +0.000 C 
BRANCH  24  25
ATOM     25  C   UNL     1      43.964   5.503  11.998  0.00  0.00    +0.000 C 
ATOM     26  C   UNL     1      44.657   4.664  13.084  0.00  0.00    +0.000 C 
ATOM     27  C   UNL     1      45.442   3.461  12.555  0.00  0.00    +0.000 C 
ATOM     28  N   UNL     1      44.712   2.618  11.609  0.00  0.00    +0.000 NA
ATOM     29  C   UNL     1      44.055   3.379  10.551  0.00  0.00    +0.000 C 
ATOM     30  C   UNL     1      43.193   4.529  11.079  0.00  0.00    +0.000 C 
ATOM     31  H   UNL     1      44.025   2.051  12.105  0.00  0.00    +0.000 HD
ENDBRANCH  24  25
ENDBRANCH  21  24
ENDBRANCH  17  18
ENDBRANCH   3  17
TORSDOF 5
ENDMDL
MODEL 4
REMARK VINA RESULT:    -6.869      4.274      9.583
REMARK INTER + INTRA:          -9.547
REMARK INTER:                  -9.121
REMARK INTRA:                  -0.426
REMARK UNBOUND:                -0.671
REMARK  Name = 
REMARK  5 active torsions:
REMARK  status: ('A' for Active; 'I' for Inactive)
REMARK    1  A    between atoms: C_2  and  C_18
REMARK    2  A    between atoms: N_3  and  C_4
REMARK    3  A    between atoms: C_4  and  C_5
REMARK    4  A    between atoms: C_8  and  C_9
REMARK    5  A    between atoms: C_9  and  C_10
REMARK                            x       y       z     vdW  Elec       q    Type
REMARK                         _______ _______ _______ _____ _____    ______ ____
ROOT
ATOM      1  N   UNL     1      47.225   3.548  13.656  0.00  0.00    +0.000 NA
ATOM      2  C   UNL     1      46.840   4.630  14.241  0.00  0.00    +0.000 C 
ATOM      3  N   UNL     1      47.039   4.951  15.558  0.00  0.00    +0.000 N 
ATOM      4  H   UNL     1      47.727   2.953  14.310  0.00  0.00    +0.000 HD
ATOM      5  H   UNL     1      46.512   5.756  15.896  0.00  0.00    +0.000 HD
ENDROOT
BRANCH   2   6
ATOM      6  C   UNL     1      46.118   5.591  13.397  0.00  0.00    +0.000 A 
ATOM      7  C   UNL     1      46.726   6.775  12.990  0.00  0.00    +0.000 A 
ATOM      8  S   UNL     1      45.791   7.695  11.898  0.00  0.00    +0.000 S 
ATOM      9  C   UNL     1      44.553   6.530  11.900  0.00  0.00    +0.000 A 
ATOM     10  N   UNL     1      43.469   6.661  11.087  0.00  0.00    +0.000 NA
ATOM     11  C   UNL     1      42.631   5.682  11.160  0.00  0.00    +0.000 A 
ATOM     12  N   UNL     1      42.761   4.601  11.994  0.00  0.00    +0.000 N 
ATOM     13  C   UNL     1      43.811   4.457  12.870  0.00  0.00    +0.000 A 
ATOM     14  O   UNL     1      43.849   3.529  13.672  0.00  0.00    +0.000 OA
ATOM     15  C   UNL     1      44.818   5.492  12.777  0.00  0.00    +0.000 A 
ATOM     16  H   UNL     1      42.048   3.892  12.031  0.00  0.00    +0.000 HD
ENDBRANCH   2   6
BRANCH   3  17
ATOM     17  C   UNL     1      47.119   3.915  16.581  0.00  0.00    +0.000 C 
BRANCH  17  18
ATOM     18  C   UNL     1      48.542   3.557  16.970  0.00  0.00    +0.000 A 
ATOM     19  C   UNL     1      49.023   2.264  16.729  0.00  0.00    +0.000 A 
ATOM     20  C   UNL     1      50.346   1.913  17.035  0.00  0.00    +0.000 A 
ATOM     21  C   UNL     1      51.232   2.837  17.595  0.00  0.00    +0.000 A 
ATOM     22  C   UNL     1      50.759   4.139  17.834  0.00  0.00    +0.000 A 
ATOM     23  C   UNL     1      49.426   4.491  17.528  0.00  0.00    +0.000 A 
BRANCH  21  24
ATOM     24  C   UNL     1      52.614   2.373  18.037  0.00  0.00    +0.000 C 
BRANCH  24  25
ATOM     25  C   UNL     1      53.700   3.437  18.341  0.00  0.00    +0.000 C 
ATOM     26  C   UNL     1      55.095   2.893  18.687  0.00  0.00    +0.000 C 
ATOM     27  C   UNL     1      55.223   2.318  20.101  0.00  0.00    +0.000 C 
ATOM     28  N   UNL     1      54.704   3.178  21.163  0.00  0.00    +0.000 NA
ATOM     29  C   UNL     1      53.371   3.700  20.879  0.00  0.00    +0.000 C 
ATOM     30  C   UNL     1      53.261   4.360  19.501  0.00  0.00    +0.000 C 
ATOM     31  H   UNL     1      55.348   3.949  21.334  0.00  0.00    +0.000 HD
ENDBRANCH  24  25
ENDBRANCH  21  24
ENDBRANCH  17  18
ENDBRANCH   3  17
TORSDOF 5
ENDMDL
MODEL 5
REMARK VINA RESULT:    -6.677      4.182      9.185
REMARK INTER + INTRA:          -9.299
REMARK INTER:                  -8.139
REMARK INTRA:                  -1.160
REMARK UNBOUND:                -0.671
REMARK  Name = 
REMARK  5 active torsions:
REMARK  status: ('A' for Active; 'I' for Inactive)
REMARK    1  A    between atoms: C_2  and  C_18
REMARK    2  A    between atoms: N_3  and  C_4
REMARK    3  A    between atoms: C_4  and  C_5
REMARK    4  A    between atoms: C_8  and  C_9
REMARK    5  A    between atoms: C_9  and  C_10
REMARK                            x       y       z     vdW  Elec       q    Type
REMARK                         _______ _______ _______ _____ _____    ______ ____
ROOT
ATOM      1  N   UNL     1      49.201   6.421  12.675  0.00  0.00    +0.000 NA
ATOM      2  C   UNL     1      48.332   7.362  12.825  0.00  0.00    +0.000 C 
ATOM      3  N   UNL     1      48.593   8.644  13.230  0.00  0.00    +0.000 N 
ATOM      4  H   UNL     1      50.134   6.766  12.883  0.00  0.00    +0.000 HD
ATOM      5  H   UNL     1      47.773   9.201  13.471  0.00  0.00    +0.000 HD
ENDROOT
BRANCH   2   6
ATOM      6  C   UNL     1      46.940   6.999  12.531  0.00  0.00    +0.000 A 
ATOM      7  C   UNL     1      46.100   7.886  11.865  0.00  0.00    +0.000 A 
ATOM      8  S   UNL     1      44.568   7.237  11.485  0.00  0.00    +0.000 S 
ATOM      9  C   UNL     1      44.980   5.735  12.164  0.00  0.00    +0.000 A 
ATOM     10  N   UNL     1      44.127   4.677  12.093  0.00  0.00    +0.000 NA
ATOM     11  C   UNL     1      44.586   3.588  12.610  0.00  0.00    +0.000 A 
ATOM     12  N   UNL     1      45.808   3.468  13.222  0.00  0.00    +0.000 N 
ATOM     13  C   UNL     1      46.677   4.525  13.366  0.00  0.00    +0.000 A 
ATOM     14  O   UNL     1      47.719   4.410  14.004  0.00  0.00    +0.000 OA
ATOM     15  C   UNL     1      46.240   5.753  12.738  0.00  0.00    +0.000 A 
ATOM     16  H   UNL     1      46.089   2.598  13.644  0.00  0.00    +0.000 HD
ENDBRANCH   2   6
BRANCH   3  17
ATOM     17  C   UNL     1      49.704   8.939  14.128  0.00  0.00    +0.000 C 
BRANCH  17  18
ATOM     18  C   UNL     1      49.412   8.609  15.580  0.00  0.00    +0.000 A 
ATOM     19  C   UNL     1      50.251   7.727  16.274  0.00  0.00    +0.000 A 
ATOM     20  C   UNL     1      50.037   7.435  17.628  0.00  0.00    +0.000 A 
ATOM     21  C   UNL     1      48.977   8.008  18.337  0.00  0.00    +0.000 A 
ATOM     22  C   UNL     1      48.134   8.900  17.650  0.00  0.00    +0.000 A 
ATOM     23  C   UNL     1      48.349   9.191  16.284  0.00  0.00    +0.000 A 
BRANCH  21  24
ATOM     24  C   UNL     1      48.702   7.556  19.764  0.00  0.00    +0.000 C 
BRANCH  24  25
ATOM     25  C   UNL     1      47.501   6.612  20.035  0.00  0.00    +0.000 C 
ATOM     26  C   UNL     1      47.459   5.959  21.426  0.00  0.00    +0.000 C 
ATOM     27  C   UNL     1      48.446   4.804  21.617  0.00  0.00    +0.000 C 
ATOM     28  N   UNL     1      48.433   3.802  20.553  0.00  0.00    +0.000 NA
ATOM     29  C   UNL     1      48.490   4.384  19.216  0.00  0.00    +0.000 C 
ATOM     30  C   UNL     1      47.443   5.478  18.986  0.00  0.00    +0.000 C 
ATOM     31  H   UNL     1      47.605   3.213  20.638  0.00  0.00    +0.000 HD
ENDBRANCH  24  25
ENDBRANCH  21  24
ENDBRANCH  17  18
ENDBRANCH   3  17
TORSDOF 5
ENDMDL
MODEL 6
REMARK VINA RESULT:    -6.541      4.243      6.408
REMARK INTER + INTRA:          -9.123
REMARK INTER:                  -8.097
REMARK INTRA:                  -1.027
REMARK UNBOUND:                -0.671
REMARK  Name = 
REMARK  5 active torsions:
REMARK  status: ('A' for Active; 'I' for Inactive)
REMARK    1  A    between atoms: C_2  and  C_18
REMARK    2  A    between atoms: N_3  and  C_4
REMARK    3  A    between atoms: C_4  and  C_5
REMARK    4  A    between atoms: C_8  and  C_9
REMARK    5  A    between atoms: C_9  and  C_10
REMARK                            x       y       z     vdW  Elec       q    Type
REMARK                         _______ _______ _______ _____ _____    ______ ____
ROOT
ATOM      1  N   UNL     1      47.570   3.096  14.714  0.00  0.00    +0.000 NA
ATOM      2  C   UNL     1      47.267   4.278  15.131  0.00  0.00    +0.000 C 
ATOM      3  N   UNL     1      46.450   5.174  14.494  0.00  0.00    +0.000 N 
ATOM      4  H   UNL     1      47.097   2.901  13.836  0.00  0.00    +0.000 HD
ATOM      5  H   UNL     1      46.467   6.123  14.868  0.00  0.00    +0.000 HD
ENDROOT
BRANCH   2   6
ATOM      6  C   UNL     1      47.871   4.679  16.409  0.00  0.00    +0.000 A 
ATOM      7  C   UNL     1      47.517   4.039  17.592  0.00  0.00    +0.000 A 
ATOM      8  S   UNL     1      48.425   4.539  18.948  0.00  0.00    +0.000 S 
ATOM      9  C   UNL     1      49.348   5.605  18.000  0.00  0.00    +0.000 A 
ATOM     10  N   UNL     1      50.387   6.300  18.538  0.00  0.00    +0.000 NA
ATOM     11  C   UNL     1      51.027   7.037  17.695  0.00  0.00    +0.000 A 
ATOM     12  N   UNL     1      50.703   7.168  16.368  0.00  0.00    +0.000 N 
ATOM     13  C   UNL     1      49.628   6.529  15.796  0.00  0.00    +0.000 A 
ATOM     14  O   UNL     1      49.306   6.743  14.632  0.00  0.00    +0.000 OA
ATOM     15  C   UNL     1      48.919   5.632  16.683  0.00  0.00    +0.000 A 
ATOM     16  H   UNL     1      51.220   7.794  15.772  0.00  0.00    +0.000 HD
ENDBRANCH   2   6
BRANCH   3  17
ATOM     17  C   UNL     1      46.340   5.191  13.039  0.00  0.00    +0.000 C 
BRANCH  17  18
ATOM     18  C   UNL     1      45.701   6.455  12.496  0.00  0.00    +0.000 A 
ATOM     19  C   UNL     1      46.183   7.707  12.903  0.00  0.00    +0.000 A 
ATOM     20  C   UNL     1      45.645   8.894  12.386  0.00  0.00    +0.000 A 
ATOM     21  C   UNL     1      44.607   8.876  11.450  0.00  0.00    +0.000 A 
ATOM     22  C   UNL     1      44.124   7.624  11.031  0.00  0.00    +0.000 A 
ATOM     23  C   UNL     1      44.663   6.428  11.554  0.00  0.00    +0.000 A 
BRANCH  21  24
ATOM     24  C   UNL     1      43.964  10.188  11.022  0.00  0.00    +0.000 C 
BRANCH  24  25
ATOM     25  C   UNL     1      42.701  10.146  10.124  0.00  0.00    +0.000 C 
ATOM     26  C   UNL     1      42.627  11.212   9.018  0.00  0.00    +0.000 C 
ATOM     27  C   UNL     1      42.265  12.616   9.510  0.00  0.00    +0.000 C 
ATOM     28  N   UNL     1      41.101  12.677  10.392  0.00  0.00    +0.000 NA
ATOM     29  C   UNL     1      41.144  11.691  11.468  0.00  0.00    +0.000 C 
ATOM     30  C   UNL     1      41.415  10.267  10.973  0.00  0.00    +0.000 C 
ATOM     31  H   UNL     1      40.246  12.561   9.851  0.00  0.00    +0.000 HD
ENDBRANCH  24  25
ENDBRANCH  21  24
ENDBRANCH  17  18
ENDBRANCH   3  17
TORSDOF 5
ENDMDL
MODEL 7
REMARK VINA RESULT:    -6.540      3.498      5.293
REMARK INTER + INTRA:          -9.122
REMARK INTER:                  -8.055
REMARK INTRA:                  -1.067
REMARK UNBOUND:                -0.671
REMARK  Name = 
REMARK  5 active torsions:
REMARK  status: ('A' for Active; 'I' for Inactive)
REMARK    1  A    between atoms: C_2  and  C_18
REMARK    2  A    between atoms: N_3  and  C_4
REMARK    3  A    between atoms: C_4  and  C_5
REMARK    4  A    between atoms: C_8  and  C_9
REMARK    5  A    between atoms: C_9  and  C_10
REMARK                            x       y       z     vdW  Elec       q    Type
REMARK                         _______ _______ _______ _____ _____    ______ ____
ROOT
ATOM      1  N   UNL     1      50.282   6.375  16.373  0.00  0.00    +0.000 NA
ATOM      2  C   UNL     1      49.390   7.116  16.936  0.00  0.00    +0.000 C 
ATOM      3  N   UNL     1      48.437   7.861  16.293  0.00  0.00    +0.000 N 
ATOM      4  H   UNL     1      50.174   6.399  15.362  0.00  0.00    +0.000 HD
ATOM      5  H   UNL     1      47.935   8.527  16.880  0.00  0.00    +0.000 HD
ENDROOT
BRANCH   2   6
ATOM      6  C   UNL     1      49.423   7.151  18.404  0.00  0.00    +0.000 A 
ATOM      7  C   UNL     1      49.604   8.353  19.082  0.00  0.00    +0.000 A 
ATOM      8  S   UNL     1      49.468   8.220  20.777  0.00  0.00    +0.000 S 
ATOM      9  C   UNL     1      49.128   6.558  20.669  0.00  0.00    +0.000 A 
ATOM     10  N   UNL     1      48.816   5.834  21.779  0.00  0.00    +0.000 NA
ATOM     11  C   UNL     1      48.538   4.596  21.544  0.00  0.00    +0.000 A 
ATOM     12  N   UNL     1      48.574   4.008  20.306  0.00  0.00    +0.000 N 
ATOM     13  C   UNL     1      48.939   4.688  19.167  0.00  0.00    +0.000 A 
ATOM     14  O   UNL     1      49.056   4.111  18.091  0.00  0.00    +0.000 OA
ATOM     15  C   UNL     1      49.190   6.099  19.364  0.00  0.00    +0.000 A 
ATOM     16  H   UNL     1      48.386   3.025  20.198  0.00  0.00    +0.000 HD
ENDBRANCH   2   6
BRANCH   3  17
ATOM     17  C   UNL     1      48.684   8.418  14.968  0.00  0.00    +0.000 C 
BRANCH  17  18
ATOM     18  C   UNL     1      47.877   7.749  13.871  0.00  0.00    +0.000 A 
ATOM     19  C   UNL     1      47.945   6.359  13.708  0.00  0.00    +0.000 A 
ATOM     20  C   UNL     1      47.179   5.704  12.734  0.00  0.00    +0.000 A 
ATOM     21  C   UNL     1      46.321   6.411  11.886  0.00  0.00    +0.000 A 
ATOM     22  C   UNL     1      46.241   7.805  12.048  0.00  0.00    +0.000 A 
ATOM     23  C   UNL     1      47.016   8.466  13.027  0.00  0.00    +0.000 A 
BRANCH  21  24
ATOM     24  C   UNL     1      45.615   5.676  10.755  0.00  0.00    +0.000 C 
BRANCH  24  25
ATOM     25  C   UNL     1      44.094   5.398  10.876  0.00  0.00    +0.000 C 
ATOM     26  C   UNL     1      43.579   5.075  12.287  0.00  0.00    +0.000 C 
ATOM     27  C   UNL     1      43.904   3.660  12.776  0.00  0.00    +0.000 C 
ATOM     28  N   UNL     1      43.581   2.594  11.830  0.00  0.00    +0.000 NA
ATOM     29  C   UNL     1      44.070   2.857  10.480  0.00  0.00    +0.000 C 
ATOM     30  C   UNL     1      43.669   4.236   9.949  0.00  0.00    +0.000 C 
ATOM     31  H   UNL     1      42.573   2.440  11.808  0.00  0.00    +0.000 HD
ENDBRANCH  24  25
ENDBRANCH  21  24
ENDBRANCH  17  18
ENDBRANCH   3  17
TORSDOF 5
ENDMDL
MODEL 8
REMARK VINA RESULT:    -6.475      3.723      5.736
REMARK INTER + INTRA:          -9.038
REMARK INTER:                  -7.857
REMARK INTRA:                  -1.181
REMARK UNBOUND:                -0.671
REMARK  Name = 
REMARK  5 active torsions:
REMARK  status: ('A' for Active; 'I' for Inactive)
REMARK    1  A    between atoms: C_2  and  C_18
REMARK    2  A    between atoms: N_3  and  C_4
REMARK    3  A    between atoms: C_4  and  C_5
REMARK    4  A    between atoms: C_8  and  C_9
REMARK    5  A    between atoms: C_9  and  C_10
REMARK                            x       y       z     vdW  Elec       q    Type
REMARK                         _______ _______ _______ _____ _____    ______ ____
ROOT
ATOM      1  N   UNL     1      51.011   9.150  16.102  0.00  0.00    +0.000 NA
ATOM      2  C   UNL     1      51.349   8.119  15.405  0.00  0.00    +0.000 C 
ATOM      3  N   UNL     1      51.455   8.066  14.041  0.00  0.00    +0.000 N 
ATOM      4  H   UNL     1      50.847   9.948  15.493  0.00  0.00    +0.000 HD
ATOM      5  H   UNL     1      51.553   7.130  13.647  0.00  0.00    +0.000 HD
ENDROOT
BRANCH   2   6
ATOM      6  C   UNL     1      51.639   6.899  16.170  0.00  0.00    +0.000 A 
ATOM      7  C   UNL     1      52.950   6.479  16.367  0.00  0.00    +0.000 A 
ATOM      8  S   UNL     1      53.098   5.128  17.398  0.00  0.00    +0.000 S 
ATOM      9  C   UNL     1      51.418   5.072  17.649  0.00  0.00    +0.000 A 
ATOM     10  N   UNL     1      50.870   4.182  18.520  0.00  0.00    +0.000 NA
ATOM     11  C   UNL     1      49.589   4.281  18.644  0.00  0.00    +0.000 A 
ATOM     12  N   UNL     1      48.803   5.167  17.953  0.00  0.00    +0.000 N 
ATOM     13  C   UNL     1      49.309   6.045  17.022  0.00  0.00    +0.000 A 
ATOM     14  O   UNL     1      48.569   6.756  16.351  0.00  0.00    +0.000 OA
ATOM     15  C   UNL     1      50.750   6.025  16.898  0.00  0.00    +0.000 A 
ATOM     16  H   UNL     1      47.803   5.164  18.066  0.00  0.00    +0.000 HD
ENDBRANCH   2   6
BRANCH   3  17
ATOM     17  C   UNL     1      50.621   8.905  13.188  0.00  0.00    +0.000 C 
BRANCH  17  18
ATOM     18  C   UNL     1      49.289   8.272  12.832  0.00  0.00    +0.000 A 
ATOM     19  C   UNL     1      49.118   6.888  12.975  0.00  0.00    +0.000 A 
ATOM     20  C   UNL     1      47.888   6.276  12.698  0.00  0.00    +0.000 A 
ATOM     21  C   UNL     1      46.787   7.020  12.265  0.00  0.00    +0.000 A 
ATOM     22  C   UNL     1      46.947   8.410  12.126  0.00  0.00    +0.000 A 
ATOM     23  C   UNL     1      48.188   9.026  12.401  0.00  0.00    +0.000 A 
BRANCH  21  24
ATOM     24  C   UNL     1      45.515   6.297  11.845  0.00  0.00    +0.000 C 
BRANCH  24  25
ATOM     25  C   UNL     1      44.934   5.200  12.775  0.00  0.00    +0.000 C 
ATOM     26  C   UNL     1      45.177   3.747  12.334  0.00  0.00    +0.000 C 
ATOM     27  C   UNL     1      44.291   3.276  11.178  0.00  0.00    +0.000 C 
ATOM     28  N   UNL     1      42.865   3.555  11.342  0.00  0.00    +0.000 NA
ATOM     29  C   UNL     1      42.593   4.931  11.743  0.00  0.00    +0.000 C 
ATOM     30  C   UNL     1      43.410   5.381  12.958  0.00  0.00    +0.000 C 
ATOM     31  H   UNL     1      42.459   2.911  12.020  0.00  0.00    +0.000 HD
ENDBRANCH  24  25
ENDBRANCH  21  24
ENDBRANCH  17  18
ENDBRANCH   3  17
TORSDOF 5
ENDMDL
MODEL 9
REMARK VINA RESULT:    -6.427      4.404      9.239
REMARK INTER + INTRA:          -8.977
REMARK INTER:                  -7.958
REMARK INTRA:                  -1.019
REMARK UNBOUND:                -0.671
REMARK  Name = 
REMARK  5 active torsions:
REMARK  status: ('A' for Active; 'I' for Inactive)
REMARK    1  A    between atoms: C_2  and  C_18
REMARK    2  A    between atoms: N_3  and  C_4
REMARK    3  A    between atoms: C_4  and  C_5
REMARK    4  A    between atoms: C_8  and  C_9
REMARK    5  A    between atoms: C_9  and  C_10
REMARK                            x       y       z     vdW  Elec       q    Type
REMARK                         _______ _______ _______ _____ _____    ______ ____
ROOT
ATOM      1  N   UNL     1      47.347   3.154  13.973  0.00  0.00    +0.000 NA
ATOM      2  C   UNL     1      46.842   4.259  14.402  0.00  0.00    +0.000 C 
ATOM      3  N   UNL     1      46.976   4.773  15.664  0.00  0.00    +0.000 N 
ATOM      4  H   UNL     1      47.890   2.707  14.708  0.00  0.00    +0.000 HD
ATOM      5  H   UNL     1      46.363   5.558  15.884  0.00  0.00    +0.000 HD
ENDROOT
BRANCH   2   6
ATOM      6  C   UNL     1      46.048   5.019  13.426  0.00  0.00    +0.000 A 
ATOM      7  C   UNL     1      44.947   4.441  12.802  0.00  0.00    +0.000 A 
ATOM      8  S   UNL     1      44.066   5.518  11.814  0.00  0.00    +0.000 S 
ATOM      9  C   UNL     1      45.101   6.807  12.210  0.00  0.00    +0.000 A 
ATOM     10  N   UNL     1      44.854   8.067  11.759  0.00  0.00    +0.000 NA
ATOM     11  C   UNL     1      45.695   8.953  12.172  0.00  0.00    +0.000 A 
ATOM     12  N   UNL     1      46.780   8.690  12.969  0.00  0.00    +0.000 N 
ATOM     13  C   UNL     1      47.099   7.423  13.400  0.00  0.00    +0.000 A 
ATOM     14  O   UNL     1      48.130   7.206  14.029  0.00  0.00    +0.000 OA
ATOM     15  C   UNL     1      46.146   6.402  13.025  0.00  0.00    +0.000 A 
ATOM     16  H   UNL     1      47.423   9.423  13.221  0.00  0.00    +0.000 HD
ENDBRANCH   2   6
BRANCH   3  17
ATOM     17  C   UNL     1      47.135   3.898  16.820  0.00  0.00    +0.000 C 
BRANCH  17  18
ATOM     18  C   UNL     1      48.553   3.858  17.359  0.00  0.00    +0.000 A 
ATOM     19  C   UNL     1      49.397   2.794  17.014  0.00  0.00    +0.000 A 
ATOM     20  C   UNL     1      50.726   2.749  17.458  0.00  0.00    +0.000 A 
ATOM     21  C   UNL     1      51.259   3.760  18.263  0.00  0.00    +0.000 A 
ATOM     22  C   UNL     1      50.421   4.835  18.607  0.00  0.00    +0.000 A 
ATOM     23  C   UNL     1      49.080   4.878  18.163  0.00  0.00    +0.000 A 
BRANCH  21  24
ATOM     24  C   UNL     1      52.661   3.599  18.832  0.00  0.00    +0.000 C 
BRANCH  24  25
ATOM     25  C   UNL     1      53.876   4.018  17.964  0.00  0.00    +0.000 C 
ATOM     26  C   UNL     1      55.185   4.289  18.725  0.00  0.00    +0.000 C 
ATOM     27  C   UNL     1      55.223   5.624  19.472  0.00  0.00    +0.000 C 
ATOM     28  N   UNL     1      54.813   6.783  18.681  0.00  0.00    +0.000 NA
ATOM     29  C   UNL     1      53.564   6.571  17.957  0.00  0.00    +0.000 C 
ATOM     30  C   UNL     1      53.552   5.281  17.133  0.00  0.00    +0.000 C 
ATOM     31  H   UNL     1      55.552   7.038  18.026  0.00  0.00    +0.000 HD
ENDBRANCH  24  25
ENDBRANCH  21  24
ENDBRANCH  17  18
ENDBRANCH   3  17
TORSDOF 5
ENDMDL
