MODEL 1
REMARK VINA RESULT:    -8.736      0.000      0.000
REMARK INTER + INTRA:         -11.803
REMARK INTER:                 -11.289
REMARK INTRA:                  -0.514
REMARK UNBOUND:                -0.514
REMARK  Name = 
REMARK  6 active torsions:
REMARK  status: ('A' for Active; 'I' for Inactive)
REMARK    1  A    between atoms: C_1  and  C_2
REMARK    2  A    between atoms: C_2  and  N_3
REMARK    3  A    between atoms: C_2  and  C_16
REMARK    4  A    between atoms: C_4  and  C_6
REMARK    5  A    between atoms: C_19  and  O_20
REMARK    6  A    between atoms: O_20  and  C_21
REMARK                            x       y       z     vdW  Elec       q    Type
REMARK                         _______ _______ _______ _____ _____    ______ ____
ROOT
ATOM      1  C   UNL     1      45.132   8.514  12.612  0.00  0.00    +0.000 C 
ATOM      2  C   UNL     1      46.318   7.558  12.439  0.00  0.00    +0.000 C 
ENDROOT
BRANCH   2   3
ATOM      3  C   UNL     1      45.883   6.341  11.630  0.00  0.00    +0.000 A 
ATOM      4  C   UNL     1      45.116   5.331  12.225  0.00  0.00    +0.000 A 
ATOM      5  C   UNL     1      44.677   4.240  11.471  0.00  0.00    +0.000 A 
ATOM      6  C   UNL     1      44.947   4.167  10.102  0.00  0.00    +0.000 A 
ATOM      7  C   UNL     1      45.753   5.138   9.511  0.00  0.00    +0.000 A 
ATOM      8  C   UNL     1      46.216   6.218  10.269  0.00  0.00    +0.000 A 
BRANCH   6   9
ATOM      9  O   UNL     1      44.507   3.141   9.293  0.00  0.00    +0.000 OA
BRANCH   9  10
ATOM     10  C   UNL     1      45.394   2.630   8.347  0.00  0.00    +0.000 A 
ATOM     11  C   UNL     1      45.647   3.422   7.238  0.00  0.00    +0.000 A 
ATOM     12  C   UNL     1      46.567   2.961   6.297  0.00  0.00    +0.000 A 
ATOM     13  C   UNL     1      47.195   1.735   6.499  0.00  0.00    +0.000 A 
ATOM     14  C   UNL     1      46.857   1.003   7.622  0.00  0.00    +0.000 A 
ATOM     15  N   UNL     1      45.955   1.413   8.536  0.00  0.00    +0.000 NA
ENDBRANCH   9  10
ENDBRANCH   6   9
ENDBRANCH   2   3
BRANCH   2  16
ATOM     16  N   UNL     1      46.874   7.111  13.705  0.00  0.00    +0.000 N 
ATOM     17  C   UNL     1      48.161   6.654  13.854  0.00  0.00    +0.000 C 
ATOM     18  O   UNL     1      48.969   6.626  12.931  0.00  0.00    +0.000 OA
ATOM     19  H   UNL     1      46.191   6.802  14.391  0.00  0.00    +0.000 HD
BRANCH  17  20
ATOM     20  C   UNL     1      48.551   6.264  15.215  0.00  0.00    +0.000 A 
ATOM     21  C   UNL     1      49.477   7.032  15.910  0.00  0.00    +0.000 A 
ATOM     22  S   UNL     1      49.807   6.450  17.480  0.00  0.00    +0.000 S 
ATOM     23  C   UNL     1      48.759   5.127  17.268  0.00  0.00    +0.000 A 
ATOM     24  N   UNL     1      48.607   4.191  18.244  0.00  0.00    +0.000 NA
ATOM     25  C   UNL     1      47.803   3.229  17.938  0.00  0.00    +0.000 A 
ATOM     26  N   UNL     1      47.125   3.125  16.753  0.00  0.00    +0.000 N 
ATOM     27  C   UNL     1      47.220   4.064  15.754  0.00  0.00    +0.000 A 
ATOM     28  O   UNL     1      46.558   3.977  14.725  0.00  0.00    +0.000 OA
ATOM     29  C   UNL     1      48.138   5.150  16.033  0.00  0.00    +0.000 A 
ATOM     30  H   UNL     1      46.493   2.356  16.579  0.00  0.00    +0.000 HD
ENDBRANCH  17  20
ENDBRANCH   2  16
TORSDOF 5
ENDMDL
MODEL 2
REMARK VINA RESULT:    -8.406      1.590      2.316
REMARK INTER + INTRA:         -11.378
REMARK INTER:                 -10.702
REMARK INTRA:                  -0.676
REMARK UNBOUND:                -0.514
REMARK  Name = 
REMARK  6 active torsions:
REMARK  status: ('A' for Active; 'I' for Inactive)
REMARK    1  A    between atoms: C_1  and  C_2
REMARK    2  A    between atoms: C_2  and  N_3
REMARK    3  A    between atoms: C_2  and  C_16
REMARK    4  A    between atoms: C_4  and  C_6
REMARK    5  A    between atoms: C_19  and  O_20
REMARK    6  A    between atoms: O_20  and  C_21
REMARK                            x       y       z     vdW  Elec       q    Type
REMARK                         _______ _______ _______ _____ _____    ______ ____
ROOT
ATOM      1  C   UNL     1      45.791   8.050  13.114  0.00  0.00    +0.000 C 
ATOM      2  C   UNL     1      46.676   6.805  12.983  0.00  0.00    +0.000 C 
ENDROOT
BRANCH   2   3
ATOM      3  C   UNL     1      46.064   5.846  11.968  0.00  0.00    +0.000 A 
ATOM      4  C   UNL     1      46.006   6.191  10.612  0.00  0.00    +0.000 A 
ATOM      5  C   UNL     1      45.489   5.292   9.676  0.00  0.00    +0.000 A 
ATOM      6  C   UNL     1      45.075   4.016  10.068  0.00  0.00    +0.000 A 
ATOM      7  C   UNL     1      45.078   3.682  11.421  0.00  0.00    +0.000 A 
ATOM      8  C   UNL     1      45.571   4.589  12.363  0.00  0.00    +0.000 A 
BRANCH   6   9
ATOM      9  O   UNL     1      44.595   3.067   9.190  0.00  0.00    +0.000 OA
BRANCH   9  10
ATOM     10  C   UNL     1      45.489   2.514   8.276  0.00  0.00    +0.000 A 
ATOM     11  C   UNL     1      45.845   3.307   7.195  0.00  0.00    +0.000 A 
ATOM     12  C   UNL     1      46.775   2.802   6.287  0.00  0.00    +0.000 A 
ATOM     13  C   UNL     1      47.310   1.534   6.491  0.00  0.00    +0.000 A 
ATOM     14  C   UNL     1      46.874   0.806   7.584  0.00  0.00    +0.000 A 
ATOM     15  N   UNL     1      45.959   1.259   8.464  0.00  0.00    +0.000 NA
ENDBRANCH   9  10
ENDBRANCH   6   9
ENDBRANCH   2   3
BRANCH   2  16
ATOM     16  N   UNL     1      46.862   6.107  14.244  0.00  0.00    +0.000 N 
ATOM     17  C   UNL     1      48.084   5.942  14.851  0.00  0.00    +0.000 C 
ATOM     18  O   UNL     1      49.122   6.412  14.397  0.00  0.00    +0.000 OA
ATOM     19  H   UNL     1      46.135   5.437  14.476  0.00  0.00    +0.000 HD
BRANCH  17  20
ATOM     20  C   UNL     1      48.072   5.226  16.132  0.00  0.00    +0.000 A 
ATOM     21  C   UNL     1      47.683   3.892  16.171  0.00  0.00    +0.000 A 
ATOM     22  S   UNL     1      47.740   3.208  17.733  0.00  0.00    +0.000 S 
ATOM     23  C   UNL     1      48.242   4.682  18.419  0.00  0.00    +0.000 A 
ATOM     24  N   UNL     1      48.437   4.799  19.760  0.00  0.00    +0.000 NA
ATOM     25  C   UNL     1      48.790   5.979  20.146  0.00  0.00    +0.000 A 
ATOM     26  N   UNL     1      48.981   7.049  19.312  0.00  0.00    +0.000 N 
ATOM     27  C   UNL     1      48.829   6.968  17.948  0.00  0.00    +0.000 A 
ATOM     28  O   UNL     1      49.062   7.925  17.218  0.00  0.00    +0.000 OA
ATOM     29  C   UNL     1      48.401   5.670  17.466  0.00  0.00    +0.000 A 
ATOM     30  H   UNL     1      49.276   7.944  19.672  0.00  0.00    +0.000 HD
ENDBRANCH  17  20
ENDBRANCH   2  16
TORSDOF 5
ENDMDL
MODEL 3
REMARK VINA RESULT:    -8.024      2.706      4.049
REMARK INTER + INTRA:         -10.883
REMARK INTER:                  -9.851
REMARK INTRA:                  -1.032
REMARK UNBOUND:                -0.514
REMARK  Name = 
REMARK  6 active torsions:
REMARK  status: ('A' for Active; 'I' for Inactive)
REMARK    1  A    between atoms: C_1  and  C_2
REMARK    2  A    between atoms: C_2  and  N_3
REMARK    3  A    between atoms: C_2  and  C_16
REMARK    4  A    between atoms: C_4  and  C_6
REMARK    5  A    between atoms: C_19  and  O_20
REMARK    6  A    between atoms: O_20  and  C_21
REMARK                            x       y       z     vdW  Elec       q    Type
REMARK                         _______ _______ _______ _____ _____    ______ ____
ROOT
ATOM      1  C   UNL     1      46.717   4.627  14.688  0.00  0.00    +0.000 C 
ATOM      2  C   UNL     1      46.372   5.728  13.679  0.00  0.00    +0.000 C 
ENDROOT
BRANCH   2   3
ATOM      3  C   UNL     1      45.837   5.099  12.397  0.00  0.00    +0.000 A 
ATOM      4  C   UNL     1      45.882   5.806  11.189  0.00  0.00    +0.000 A 
ATOM      5  C   UNL     1      45.436   5.212  10.005  0.00  0.00    +0.000 A 
ATOM      6  C   UNL     1      44.991   3.887   9.999  0.00  0.00    +0.000 A 
ATOM      7  C   UNL     1      44.891   3.193  11.202  0.00  0.00    +0.000 A 
ATOM      8  C   UNL     1      45.313   3.793  12.392  0.00  0.00    +0.000 A 
BRANCH   6   9
ATOM      9  O   UNL     1      44.579   3.228   8.860  0.00  0.00    +0.000 OA
BRANCH   9  10
ATOM     10  C   UNL     1      45.555   2.806   7.960  0.00  0.00    +0.000 A 
ATOM     11  C   UNL     1      46.139   1.574   8.208  0.00  0.00    +0.000 A 
ATOM     12  C   UNL     1      47.086   1.101   7.299  0.00  0.00    +0.000 A 
ATOM     13  C   UNL     1      47.411   1.872   6.187  0.00  0.00    +0.000 A 
ATOM     14  C   UNL     1      46.795   3.101   6.040  0.00  0.00    +0.000 A 
ATOM     15  N   UNL     1      45.894   3.593   6.913  0.00  0.00    +0.000 NA
ENDBRANCH   9  10
ENDBRANCH   6   9
ENDBRANCH   2   3
BRANCH   2  16
ATOM     16  N   UNL     1      47.507   6.575  13.354  0.00  0.00    +0.000 N 
ATOM     17  C   UNL     1      47.443   7.946  13.296  0.00  0.00    +0.000 C 
ATOM     18  O   UNL     1      46.424   8.577  13.558  0.00  0.00    +0.000 OA
ATOM     19  H   UNL     1      48.243   6.123  12.821  0.00  0.00    +0.000 HD
BRANCH  17  20
ATOM     20  C   UNL     1      48.698   8.634  12.972  0.00  0.00    +0.000 A 
ATOM     21  C   UNL     1      48.707   9.624  11.997  0.00  0.00    +0.000 A 
ATOM     22  S   UNL     1      50.241  10.331  11.754  0.00  0.00    +0.000 S 
ATOM     23  C   UNL     1      50.956   9.308  12.909  0.00  0.00    +0.000 A 
ATOM     24  N   UNL     1      52.291   9.365  13.164  0.00  0.00    +0.000 NA
ATOM     25  C   UNL     1      52.702   8.514  14.044  0.00  0.00    +0.000 A 
ATOM     26  N   UNL     1      51.898   7.622  14.702  0.00  0.00    +0.000 N 
ATOM     27  C   UNL     1      50.540   7.553  14.503  0.00  0.00    +0.000 A 
ATOM     28  O   UNL     1      49.833   6.785  15.148  0.00  0.00    +0.000 OA
ATOM     29  C   UNL     1      50.031   8.466  13.499  0.00  0.00    +0.000 A 
ATOM     30  H   UNL     1      52.276   6.992  15.396  0.00  0.00    +0.000 HD
ENDBRANCH  17  20
ENDBRANCH   2  16
TORSDOF 5
ENDMDL
MODEL 4
REMARK VINA RESULT:    -7.738      2.447      3.303
REMARK INTER + INTRA:         -10.515
REMARK INTER:                  -9.325
REMARK INTRA:                  -1.189
REMARK UNBOUND:                -0.514
REMARK  Name = 
REMARK  6 active torsions:
REMARK  status: ('A' for Active; 'I' for Inactive)
REMARK    1  A    between atoms: C_1  and  C_2
REMARK    2  A    between atoms: C_2  and  N_3
REMARK    3  A    between atoms: C_2  and  C_16
REMARK    4  A    between atoms: C_4  and  C_6
REMARK    5  A    between atoms: C_19  and  O_20
REMARK    6  A    between atoms: O_20  and  C_21
REMARK                            x       y       z     vdW  Elec       q    Type
REMARK                         _______ _______ _______ _____ _____    ______ ____
ROOT
ATOM      1  C   UNL     1      47.917   9.166  14.018  0.00  0.00    +0.000 C 
ATOM      2  C   UNL     1      48.136   7.649  14.049  0.00  0.00    +0.000 C 
ENDROOT
BRANCH   2   3
ATOM      3  C   UNL     1      47.105   6.964  13.159  0.00  0.00    +0.000 A 
ATOM      4  C   UNL     1      46.440   7.685  12.160  0.00  0.00    +0.000 A 
ATOM      5  C   UNL     1      45.530   7.045  11.314  0.00  0.00    +0.000 A 
ATOM      6  C   UNL     1      45.312   5.669  11.414  0.00  0.00    +0.000 A 
ATOM      7  C   UNL     1      45.927   4.952  12.438  0.00  0.00    +0.000 A 
ATOM      8  C   UNL     1      46.818   5.593  13.303  0.00  0.00    +0.000 A 
BRANCH   6   9
ATOM      9  O   UNL     1      44.462   4.970  10.584  0.00  0.00    +0.000 OA
BRANCH   9  10
ATOM     10  C   UNL     1      45.028   4.142   9.617  0.00  0.00    +0.000 A 
ATOM     11  C   UNL     1      44.841   2.778   9.778  0.00  0.00    +0.000 A 
ATOM     12  C   UNL     1      45.355   1.925   8.801  0.00  0.00    +0.000 A 
ATOM     13  C   UNL     1      46.030   2.463   7.710  0.00  0.00    +0.000 A 
ATOM     14  C   UNL     1      46.191   3.835   7.651  0.00  0.00    +0.000 A 
ATOM     15  N   UNL     1      45.726   4.682   8.591  0.00  0.00    +0.000 NA
ENDBRANCH   9  10
ENDBRANCH   6   9
ENDBRANCH   2   3
BRANCH   2  16
ATOM     16  N   UNL     1      48.052   7.092  15.388  0.00  0.00    +0.000 N 
ATOM     17  C   UNL     1      49.118   6.527  16.047  0.00  0.00    +0.000 C 
ATOM     18  O   UNL     1      50.248   6.485  15.572  0.00  0.00    +0.000 OA
ATOM     19  H   UNL     1      47.124   6.801  15.677  0.00  0.00    +0.000 HD
BRANCH  17  20
ATOM     20  C   UNL     1      48.847   6.035  17.403  0.00  0.00    +0.000 A 
ATOM     21  C   UNL     1      49.056   4.694  17.703  0.00  0.00    +0.000 A 
ATOM     22  S   UNL     1      48.706   4.293  19.323  0.00  0.00    +0.000 S 
ATOM     23  C   UNL     1      48.219   5.885  19.670  0.00  0.00    +0.000 A 
ATOM     24  N   UNL     1      47.752   6.222  20.903  0.00  0.00    +0.000 NA
ATOM     25  C   UNL     1      47.393   7.457  21.017  0.00  0.00    +0.000 A 
ATOM     26  N   UNL     1      47.474   8.389  20.017  0.00  0.00    +0.000 N 
ATOM     27  C   UNL     1      47.971   8.103  18.768  0.00  0.00    +0.000 A 
ATOM     28  O   UNL     1      48.086   8.969  17.908  0.00  0.00    +0.000 OA
ATOM     29  C   UNL     1      48.358   6.719  18.576  0.00  0.00    +0.000 A 
ATOM     30  H   UNL     1      47.195   9.347  20.174  0.00  0.00    +0.000 HD
ENDBRANCH  17  20
ENDBRANCH   2  16
TORSDOF 5
ENDMDL
MODEL 5
REMARK VINA RESULT:    -7.630      3.196      7.766
REMARK INTER + INTRA:         -10.375
REMARK INTER:                  -9.329
REMARK INTRA:                  -1.046
REMARK UNBOUND:                -0.514
REMARK  Name = 
REMARK  6 active torsions:
REMARK  status: ('A' for Active; 'I' for Inactive)
REMARK    1  A    between atoms: C_1  and  C_2
REMARK    2  A    between atoms: C_2  and  N_3
REMARK    3  A    between atoms: C_2  and  C_16
REMARK    4  A    between atoms: C_4  and  C_6
REMARK    5  A    between atoms: C_19  and  O_20
REMARK    6  A    between atoms: O_20  and  C_21
REMARK                            x       y       z     vdW  Elec       q    Type
REMARK                         _______ _______ _______ _____ _____    ______ ____
ROOT
ATOM      1  C   UNL     1      49.730   7.971  12.018  0.00  0.00    +0.000 C 
ATOM      2  C   UNL     1      48.463   7.564  12.780  0.00  0.00    +0.000 C 
ENDROOT
BRANCH   2   3
ATOM      3  C   UNL     1      48.844   6.999  14.143  0.00  0.00    +0.000 A 
ATOM      4  C   UNL     1      47.990   6.107  14.805  0.00  0.00    +0.000 A 
ATOM      5  C   UNL     1      48.361   5.552  16.032  0.00  0.00    +0.000 A 
ATOM      6  C   UNL     1      49.610   5.833  16.591  0.00  0.00    +0.000 A 
ATOM      7  C   UNL     1      50.445   6.759  15.969  0.00  0.00    +0.000 A 
ATOM      8  C   UNL     1      50.066   7.336  14.754  0.00  0.00    +0.000 A 
BRANCH   6   9
ATOM      9  O   UNL     1      50.055   5.286  17.776  0.00  0.00    +0.000 OA
BRANCH   9  10
ATOM     10  C   UNL     1      50.768   4.091  17.715  0.00  0.00    +0.000 A 
ATOM     11  C   UNL     1      52.084   4.128  18.150  0.00  0.00    +0.000 A 
ATOM     12  C   UNL     1      52.811   2.938  18.147  0.00  0.00    +0.000 A 
ATOM     13  C   UNL     1      52.201   1.765  17.714  0.00  0.00    +0.000 A 
ATOM     14  C   UNL     1      50.892   1.832  17.273  0.00  0.00    +0.000 A 
ATOM     15  N   UNL     1      50.172   2.972  17.242  0.00  0.00    +0.000 NA
ENDBRANCH   9  10
ENDBRANCH   6   9
ENDBRANCH   2   3
BRANCH   2  16
ATOM     16  N   UNL     1      47.663   6.583  12.066  0.00  0.00    +0.000 N 
ATOM     17  C   UNL     1      46.375   6.811  11.644  0.00  0.00    +0.000 C 
ATOM     18  O   UNL     1      45.804   7.886  11.799  0.00  0.00    +0.000 OA
ATOM     19  H   UNL     1      47.939   5.617  12.208  0.00  0.00    +0.000 HD
BRANCH  17  20
ATOM     20  C   UNL     1      45.732   5.708  10.920  0.00  0.00    +0.000 A 
ATOM     21  C   UNL     1      45.845   5.635   9.537  0.00  0.00    +0.000 A 
ATOM     22  S   UNL     1      45.054   4.287   8.856  0.00  0.00    +0.000 S 
ATOM     23  C   UNL     1      44.494   3.777  10.379  0.00  0.00    +0.000 A 
ATOM     24  N   UNL     1      43.700   2.679  10.502  0.00  0.00    +0.000 NA
ATOM     25  C   UNL     1      43.328   2.424  11.711  0.00  0.00    +0.000 A 
ATOM     26  N   UNL     1      43.688   3.157  12.811  0.00  0.00    +0.000 N 
ATOM     27  C   UNL     1      44.515   4.252  12.739  0.00  0.00    +0.000 A 
ATOM     28  O   UNL     1      44.869   4.858  13.744  0.00  0.00    +0.000 OA
ATOM     29  C   UNL     1      44.936   4.602  11.397  0.00  0.00    +0.000 A 
ATOM     30  H   UNL     1      43.379   2.896  13.736  0.00  0.00    +0.000 HD
ENDBRANCH  17  20
ENDBRANCH   2  16
TORSDOF 5
ENDMDL
MODEL 6
REMARK VINA RESULT:    -7.594      2.249      3.131
REMARK INTER + INTRA:         -10.328
REMARK INTER:                  -9.558
REMARK INTRA:                  -0.770
REMARK UNBOUND:                -0.514
REMARK  Name = 
REMARK  6 active torsions:
REMARK  status: ('A' for Active; 'I' for Inactive)
REMARK    1  A    between atoms: C_1  and  C_2
REMARK    2  A    between atoms: C_2  and  N_3
REMARK    3  A    between atoms: C_2  and  C_16
REMARK    4  A    between atoms: C_4  and  C_6
REMARK    5  A    between atoms: C_19  and  O_20
REMARK    6  A    between atoms: O_20  and  C_21
REMARK                            x       y       z     vdW  Elec       q    Type
REMARK                         _______ _______ _______ _____ _____    ______ ____
ROOT
ATOM      1  C   UNL     1      49.300   8.417  13.491  0.00  0.00    +0.000 C 
ATOM      2  C   UNL     1      48.835   7.086  14.092  0.00  0.00    +0.000 C 
ENDROOT
BRANCH   2   3
ATOM      3  C   UNL     1      47.619   6.576  13.327  0.00  0.00    +0.000 A 
ATOM      4  C   UNL     1      47.105   7.302  12.245  0.00  0.00    +0.000 A 
ATOM      5  C   UNL     1      46.020   6.811  11.515  0.00  0.00    +0.000 A 
ATOM      6  C   UNL     1      45.467   5.563  11.816  0.00  0.00    +0.000 A 
ATOM      7  C   UNL     1      45.934   4.857  12.922  0.00  0.00    +0.000 A 
ATOM      8  C   UNL     1      47.003   5.358  13.671  0.00  0.00    +0.000 A 
BRANCH   6   9
ATOM      9  O   UNL     1      44.425   5.001  11.109  0.00  0.00    +0.000 OA
BRANCH   9  10
ATOM     10  C   UNL     1      44.738   4.111  10.084  0.00  0.00    +0.000 A 
ATOM     11  C   UNL     1      45.424   4.629   8.997  0.00  0.00    +0.000 A 
ATOM     12  C   UNL     1      45.795   3.754   7.976  0.00  0.00    +0.000 A 
ATOM     13  C   UNL     1      45.467   2.405   8.079  0.00  0.00    +0.000 A 
ATOM     14  C   UNL     1      44.756   1.987   9.189  0.00  0.00    +0.000 A 
ATOM     15  N   UNL     1      44.365   2.814  10.179  0.00  0.00    +0.000 NA
ENDBRANCH   9  10
ENDBRANCH   6   9
ENDBRANCH   2   3
BRANCH   2  16
ATOM     16  N   UNL     1      48.500   7.187  15.502  0.00  0.00    +0.000 N 
ATOM     17  C   UNL     1      49.253   6.627  16.506  0.00  0.00    +0.000 C 
ATOM     18  O   UNL     1      50.302   6.027  16.297  0.00  0.00    +0.000 OA
ATOM     19  H   UNL     1      47.520   7.361  15.701  0.00  0.00    +0.000 HD
BRANCH  17  20
ATOM     20  C   UNL     1      48.768   6.852  17.873  0.00  0.00    +0.000 A 
ATOM     21  C   UNL     1      48.376   8.127  18.263  0.00  0.00    +0.000 A 
ATOM     22  S   UNL     1      47.825   8.211  19.875  0.00  0.00    +0.000 S 
ATOM     23  C   UNL     1      48.135   6.557  20.125  0.00  0.00    +0.000 A 
ATOM     24  N   UNL     1      47.917   5.980  21.337  0.00  0.00    +0.000 NA
ATOM     25  C   UNL     1      48.220   4.726  21.391  0.00  0.00    +0.000 A 
ATOM     26  N   UNL     1      48.706   3.994  20.340  0.00  0.00    +0.000 N 
ATOM     27  C   UNL     1      48.908   4.526  19.090  0.00  0.00    +0.000 A 
ATOM     28  O   UNL     1      49.289   3.836  18.151  0.00  0.00    +0.000 OA
ATOM     29  C   UNL     1      48.614   5.942  18.983  0.00  0.00    +0.000 A 
ATOM     30  H   UNL     1      48.907   3.009  20.440  0.00  0.00    +0.000 HD
ENDBRANCH  17  20
ENDBRANCH   2  16
TORSDOF 5
ENDMDL
MODEL 7
REMARK VINA RESULT:    -7.494      3.348      5.431
REMARK INTER + INTRA:         -10.199
REMARK INTER:                  -8.897
REMARK INTRA:                  -1.302
REMARK UNBOUND:                -0.514
REMARK  Name = 
REMARK  6 active torsions:
REMARK  status: ('A' for Active; 'I' for Inactive)
REMARK    1  A    between atoms: C_1  and  C_2
REMARK    2  A    between atoms: C_2  and  N_3
REMARK    3  A    between atoms: C_2  and  C_16
REMARK    4  A    between atoms: C_4  and  C_6
REMARK    5  A    between atoms: C_19  and  O_20
REMARK    6  A    between atoms: O_20  and  C_21
REMARK                            x       y       z     vdW  Elec       q    Type
REMARK                         _______ _______ _______ _____ _____    ______ ____
ROOT
ATOM      1  C   UNL     1      48.125   6.776  18.432  0.00  0.00    +0.000 C 
ATOM      2  C   UNL     1      49.068   6.340  17.305  0.00  0.00    +0.000 C 
ENDROOT
BRANCH   2   3
ATOM      3  C   UNL     1      48.265   5.666  16.197  0.00  0.00    +0.000 A 
ATOM      4  C   UNL     1      48.174   6.255  14.929  0.00  0.00    +0.000 A 
ATOM      5  C   UNL     1      47.479   5.614  13.901  0.00  0.00    +0.000 A 
ATOM      6  C   UNL     1      46.912   4.353  14.104  0.00  0.00    +0.000 A 
ATOM      7  C   UNL     1      46.950   3.783  15.374  0.00  0.00    +0.000 A 
ATOM      8  C   UNL     1      47.623   4.433  16.413  0.00  0.00    +0.000 A 
BRANCH   6   9
ATOM      9  O   UNL     1      46.250   3.648  13.121  0.00  0.00    +0.000 OA
BRANCH   9  10
ATOM     10  C   UNL     1      45.080   4.196  12.600  0.00  0.00    +0.000 A 
ATOM     11  C   UNL     1      45.058   4.436  11.235  0.00  0.00    +0.000 A 
ATOM     12  C   UNL     1      43.885   4.940  10.675  0.00  0.00    +0.000 A 
ATOM     13  C   UNL     1      42.786   5.183  11.494  0.00  0.00    +0.000 A 
ATOM     14  C   UNL     1      42.912   4.938  12.849  0.00  0.00    +0.000 A 
ATOM     15  N   UNL     1      44.041   4.474  13.421  0.00  0.00    +0.000 NA
ENDBRANCH   9  10
ENDBRANCH   6   9
ENDBRANCH   2   3
BRANCH   2  16
ATOM     16  N   UNL     1      50.108   5.431  17.756  0.00  0.00    +0.000 N 
ATOM     17  C   UNL     1      51.388   5.428  17.254  0.00  0.00    +0.000 C 
ATOM     18  O   UNL     1      51.773   6.228  16.408  0.00  0.00    +0.000 OA
ATOM     19  H   UNL     1      49.775   4.570  18.179  0.00  0.00    +0.000 HD
BRANCH  17  20
ATOM     20  C   UNL     1      52.308   4.450  17.849  0.00  0.00    +0.000 A 
ATOM     21  C   UNL     1      53.438   4.893  18.525  0.00  0.00    +0.000 A 
ATOM     22  S   UNL     1      54.390   3.631  19.166  0.00  0.00    +0.000 S 
ATOM     23  C   UNL     1      53.351   2.447  18.523  0.00  0.00    +0.000 A 
ATOM     24  N   UNL     1      53.619   1.122  18.675  0.00  0.00    +0.000 NA
ATOM     25  C   UNL     1      52.761   0.337  18.114  0.00  0.00    +0.000 A 
ATOM     26  N   UNL     1      51.652   0.756  17.427  0.00  0.00    +0.000 N 
ATOM     27  C   UNL     1      51.323   2.082  17.278  0.00  0.00    +0.000 A 
ATOM     28  O   UNL     1      50.295   2.428  16.708  0.00  0.00    +0.000 OA
ATOM     29  C   UNL     1      52.273   3.008  17.862  0.00  0.00    +0.000 A 
ATOM     30  H   UNL     1      51.007   0.091  17.025  0.00  0.00    +0.000 HD
ENDBRANCH  17  20
ENDBRANCH   2  16
TORSDOF 5
ENDMDL
MODEL 8
REMARK VINA RESULT:    -7.360      3.273      5.102
REMARK INTER + INTRA:         -10.025
REMARK INTER:                  -9.210
REMARK INTRA:                  -0.815
REMARK UNBOUND:                -0.514
REMARK  Name = 
REMARK  6 active torsions:
REMARK  status: ('A' for Active; 'I' for Inactive)
REMARK    1  A    between atoms: C_1  and  C_2
REMARK    2  A    between atoms: C_2  and  N_3
REMARK    3  A    between atoms: C_2  and  C_16
REMARK    4  A    between atoms: C_4  and  C_6
REMARK    5  A    between atoms: C_19  and  O_20
REMARK    6  A    between atoms: O_20  and  C_21
REMARK                            x       y       z     vdW  Elec       q    Type
REMARK                         _______ _______ _______ _____ _____    ______ ____
ROOT
ATOM      1  C   UNL     1      47.353   5.899  14.063  0.00  0.00    +0.000 C 
ATOM      2  C   UNL     1      46.415   6.594  13.069  0.00  0.00    +0.000 C 
ENDROOT
BRANCH   2   3
ATOM      3  C   UNL     1      45.975   5.601  11.999  0.00  0.00    +0.000 A 
ATOM      4  C   UNL     1      45.547   4.316  12.357  0.00  0.00    +0.000 A 
ATOM      5  C   UNL     1      45.099   3.423  11.380  0.00  0.00    +0.000 A 
ATOM      6  C   UNL     1      45.017   3.816  10.042  0.00  0.00    +0.000 A 
ATOM      7  C   UNL     1      45.489   5.072   9.667  0.00  0.00    +0.000 A 
ATOM      8  C   UNL     1      45.963   5.959  10.638  0.00  0.00    +0.000 A 
BRANCH   6   9
ATOM      9  O   UNL     1      44.544   3.000   9.036  0.00  0.00    +0.000 OA
BRANCH   9  10
ATOM     10  C   UNL     1      45.468   2.464   8.142  0.00  0.00    +0.000 A 
ATOM     11  C   UNL     1      45.777   3.232   7.030  0.00  0.00    +0.000 A 
ATOM     12  C   UNL     1      46.734   2.746   6.141  0.00  0.00    +0.000 A 
ATOM     13  C   UNL     1      47.343   1.520   6.394  0.00  0.00    +0.000 A 
ATOM     14  C   UNL     1      46.949   0.812   7.515  0.00  0.00    +0.000 A 
ATOM     15  N   UNL     1      46.010   1.247   8.379  0.00  0.00    +0.000 NA
ENDBRANCH   9  10
ENDBRANCH   6   9
ENDBRANCH   2   3
BRANCH   2  16
ATOM     16  N   UNL     1      47.024   7.746  12.426  0.00  0.00    +0.000 N 
ATOM     17  C   UNL     1      47.282   8.931  13.072  0.00  0.00    +0.000 C 
ATOM     18  O   UNL     1      47.058   9.102  14.266  0.00  0.00    +0.000 OA
ATOM     19  H   UNL     1      46.918   7.782  11.417  0.00  0.00    +0.000 HD
BRANCH  17  20
ATOM     20  C   UNL     1      47.921   9.976  12.263  0.00  0.00    +0.000 A 
ATOM     21  C   UNL     1      47.229  11.149  11.984  0.00  0.00    +0.000 A 
ATOM     22  S   UNL     1      48.119  12.262  11.047  0.00  0.00    +0.000 S 
ATOM     23  C   UNL     1      49.443  11.199  10.942  0.00  0.00    +0.000 A 
ATOM     24  N   UNL     1      50.551  11.529  10.226  0.00  0.00    +0.000 NA
ATOM     25  C   UNL     1      51.466  10.618  10.210  0.00  0.00    +0.000 A 
ATOM     26  N   UNL     1      51.380   9.413  10.857  0.00  0.00    +0.000 N 
ATOM     27  C   UNL     1      50.295   9.052  11.620  0.00  0.00    +0.000 A 
ATOM     28  O   UNL     1      50.267   7.992  12.236  0.00  0.00    +0.000 OA
ATOM     29  C   UNL     1      49.224  10.027  11.644  0.00  0.00    +0.000 A 
ATOM     30  H   UNL     1      52.139   8.748  10.822  0.00  0.00    +0.000 HD
ENDBRANCH  17  20
ENDBRANCH   2  16
TORSDOF 5
ENDMDL
MODEL 9
REMARK VINA RESULT:    -6.898      2.620      3.736
REMARK INTER + INTRA:          -9.428
REMARK INTER:                  -8.047
REMARK INTRA:                  -1.382
REMARK UNBOUND:                -0.514
REMARK  Name = 
REMARK  6 active torsions:
REMARK  status: ('A' for Active; 'I' for Inactive)
REMARK    1  A    between atoms: C_1  and  C_2
REMARK    2  A    between atoms: C_2  and  N_3
REMARK    3  A    between atoms: C_2  and  C_16
REMARK    4  A    between atoms: C_4  and  C_6
REMARK    5  A    between atoms: C_19  and  O_20
REMARK    6  A    between atoms: O_20  and  C_21
REMARK                            x       y       z     vdW  Elec       q    Type
REMARK                         _______ _______ _______ _____ _____    ______ ____
ROOT
ATOM      1  C   UNL     1      49.104  10.141  14.320  0.00  0.00    +0.000 C 
ATOM      2  C   UNL     1      49.209   8.640  14.026  0.00  0.00    +0.000 C 
ENDROOT
BRANCH   2   3
ATOM      3  C   UNL     1      47.988   8.185  13.235  0.00  0.00    +0.000 A 
ATOM      4  C   UNL     1      48.094   7.143  12.305  0.00  0.00    +0.000 A 
ATOM      5  C   UNL     1      46.965   6.695  11.615  0.00  0.00    +0.000 A 
ATOM      6  C   UNL     1      45.706   7.239  11.881  0.00  0.00    +0.000 A 
ATOM      7  C   UNL     1      45.597   8.311  12.764  0.00  0.00    +0.000 A 
ATOM      8  C   UNL     1      46.729   8.780  13.437  0.00  0.00    +0.000 A 
BRANCH   6   9
ATOM      9  O   UNL     1      44.546   6.814  11.268  0.00  0.00    +0.000 OA
BRANCH   9  10
ATOM     10  C   UNL     1      44.200   5.469  11.389  0.00  0.00    +0.000 A 
ATOM     11  C   UNL     1      43.832   5.032  12.652  0.00  0.00    +0.000 A 
ATOM     12  C   UNL     1      43.433   3.704  12.797  0.00  0.00    +0.000 A 
ATOM     13  C   UNL     1      43.418   2.869  11.684  0.00  0.00    +0.000 A 
ATOM     14  C   UNL     1      43.828   3.389  10.470  0.00  0.00    +0.000 A 
ATOM     15  N   UNL     1      44.241   4.661  10.304  0.00  0.00    +0.000 NA
ENDBRANCH   9  10
ENDBRANCH   6   9
ENDBRANCH   2   3
BRANCH   2  16
ATOM     16  N   UNL     1      49.321   7.834  15.230  0.00  0.00    +0.000 N 
ATOM     17  C   UNL     1      50.503   7.292  15.678  0.00  0.00    +0.000 C 
ATOM     18  O   UNL     1      51.577   7.482  15.117  0.00  0.00    +0.000 OA
ATOM     19  H   UNL     1      48.463   7.380  15.526  0.00  0.00    +0.000 HD
BRANCH  17  20
ATOM     20  C   UNL     1      50.424   6.523  16.926  0.00  0.00    +0.000 A 
ATOM     21  C   UNL     1      51.328   6.779  17.949  0.00  0.00    +0.000 A 
ATOM     22  S   UNL     1      51.089   5.810  19.332  0.00  0.00    +0.000 S 
ATOM     23  C   UNL     1      49.798   4.982  18.595  0.00  0.00    +0.000 A 
ATOM     24  N   UNL     1      49.158   3.969  19.239  0.00  0.00    +0.000 NA
ATOM     25  C   UNL     1      48.217   3.413  18.552  0.00  0.00    +0.000 A 
ATOM     26  N   UNL     1      47.847   3.787  17.287  0.00  0.00    +0.000 N 
ATOM     27  C   UNL     1      48.442   4.826  16.613  0.00  0.00    +0.000 A 
ATOM     28  O   UNL     1      48.054   5.179  15.505  0.00  0.00    +0.000 OA
ATOM     29  C   UNL     1      49.529   5.465  17.328  0.00  0.00    +0.000 A 
ATOM     30  H   UNL     1      47.088   3.325  16.808  0.00  0.00    +0.000 HD
ENDBRANCH  17  20
ENDBRANCH   2  16
TORSDOF 5
ENDMDL
