MODEL 1
REMARK VINA RESULT:    -7.505      0.000      0.000
REMARK INTER + INTRA:          -9.683
REMARK INTER:                  -9.480
REMARK INTRA:                  -0.203
REMARK UNBOUND:                -0.203
REMARK  Name = 
REMARK  5 active torsions:
REMARK  status: ('A' for Active; 'I' for Inactive)
REMARK    1  A    between atoms: O_1  and  C_2
REMARK    2  A    between atoms: C_5  and  O_6
REMARK    3  A    between atoms: O_6  and  C_7
REMARK    4  A    between atoms: C_7  and  C_8
REMARK    5  A    between atoms: C_12  and  C_13
REMARK                            x       y       z     vdW  Elec       q    Type
REMARK                         _______ _______ _______ _____ _____    ______ ____
ROOT
ATOM      1  C   UNL     1      46.494   7.238  12.432  0.00  0.00    +0.000 C 
ATOM      2  C   UNL     1      46.694   8.681  11.979  0.00  0.00    +0.000 C 
ATOM      3  C   UNL     1      45.928   8.393  13.232  0.00  0.00    +0.000 C 
ENDROOT
BRANCH   1   4
ATOM      4  C   UNL     1      45.513   6.350  11.660  0.00  0.00    +0.000 A 
ATOM      5  C   UNL     1      44.124   6.486  11.821  0.00  0.00    +0.000 A 
ATOM      6  C   UNL     1      43.217   5.700  11.115  0.00  0.00    +0.000 A 
ATOM      7  C   UNL     1      43.682   4.764  10.198  0.00  0.00    +0.000 A 
ATOM      8  C   UNL     1      45.058   4.588   9.974  0.00  0.00    +0.000 A 
ATOM      9  C   UNL     1      45.946   5.385  10.729  0.00  0.00    +0.000 A 
BRANCH   8  10
ATOM     10  C   UNL     1      45.554   3.609   8.981  0.00  0.00    +0.000 A 
ATOM     11  C   UNL     1      46.121   4.005   7.760  0.00  0.00    +0.000 A 
ATOM     12  C   UNL     1      46.576   3.062   6.843  0.00  0.00    +0.000 A 
ATOM     13  C   UNL     1      46.465   1.722   7.168  0.00  0.00    +0.000 A 
ATOM     14  N   UNL     1      45.931   1.280   8.323  0.00  0.00    +0.000 NA
ATOM     15  C   UNL     1      45.489   2.227   9.189  0.00  0.00    +0.000 A 
ENDBRANCH   8  10
ENDBRANCH   1   4
BRANCH   1  16
ATOM     16  O   UNL     1      47.757   6.661  12.873  0.00  0.00    +0.000 OA
BRANCH  16  20
ATOM     17  C   UNL     1      47.183   4.256  16.067  0.00  0.00    +0.000 A 
ATOM     18  C   UNL     1      48.059   5.325  16.157  0.00  0.00    +0.000 A 
ATOM     19  N   UNL     1      48.343   6.128  15.104  0.00  0.00    +0.000 NA
ATOM     20  C   UNL     1      47.690   5.818  13.964  0.00  0.00    +0.000 A 
ATOM     21  C   UNL     1      46.888   4.688  13.852  0.00  0.00    +0.000 A 
ATOM     22  N   UNL     1      46.614   3.881  14.905  0.00  0.00    +0.000 NA
BRANCH  17  23
ATOM     23  O   UNL     1      46.793   3.547  17.163  0.00  0.00    +0.000 OA
ATOM     24  H   UNL     1      46.436   4.180  17.804  0.00  0.00    +0.000 HD
ENDBRANCH  17  23
ENDBRANCH  16  20
ENDBRANCH   1  16
TORSDOF 5
ENDMDL
MODEL 2
REMARK VINA RESULT:    -7.461      2.800      6.581
REMARK INTER + INTRA:          -9.627
REMARK INTER:                  -9.096
REMARK INTRA:                  -0.530
REMARK UNBOUND:                -0.203
REMARK  Name = 
REMARK  5 active torsions:
REMARK  status: ('A' for Active; 'I' for Inactive)
REMARK    1  A    between atoms: O_1  and  C_2
REMARK    2  A    between atoms: C_5  and  O_6
REMARK    3  A    between atoms: O_6  and  C_7
REMARK    4  A    between atoms: C_7  and  C_8
REMARK    5  A    between atoms: C_12  and  C_13
REMARK                            x       y       z     vdW  Elec       q    Type
REMARK                         _______ _______ _______ _____ _____    ______ ____
ROOT
ATOM      1  C   UNL     1      43.777   4.811  11.435  0.00  0.00    +0.000 C 
ATOM      2  C   UNL     1      42.494   5.163  12.182  0.00  0.00    +0.000 C 
ATOM      3  C   UNL     1      42.952   6.019  11.044  0.00  0.00    +0.000 C 
ENDROOT
BRANCH   1   4
ATOM      4  C   UNL     1      45.124   5.052  12.123  0.00  0.00    +0.000 A 
ATOM      5  C   UNL     1      45.664   4.114  13.018  0.00  0.00    +0.000 A 
ATOM      6  C   UNL     1      46.896   4.307  13.639  0.00  0.00    +0.000 A 
ATOM      7  C   UNL     1      47.640   5.447  13.358  0.00  0.00    +0.000 A 
ATOM      8  C   UNL     1      47.167   6.419  12.459  0.00  0.00    +0.000 A 
ATOM      9  C   UNL     1      45.902   6.199  11.870  0.00  0.00    +0.000 A 
BRANCH   8  10
ATOM     10  C   UNL     1      47.968   7.622  12.140  0.00  0.00    +0.000 A 
ATOM     11  C   UNL     1      49.324   7.544  11.785  0.00  0.00    +0.000 A 
ATOM     12  C   UNL     1      50.055   8.693  11.494  0.00  0.00    +0.000 A 
ATOM     13  C   UNL     1      49.409   9.914  11.551  0.00  0.00    +0.000 A 
ATOM     14  N   UNL     1      48.110  10.054  11.884  0.00  0.00    +0.000 NA
ATOM     15  C   UNL     1      47.432   8.913  12.171  0.00  0.00    +0.000 A 
ENDBRANCH   8  10
ENDBRANCH   1   4
BRANCH   1  16
ATOM     16  O   UNL     1      43.600   3.589  10.662  0.00  0.00    +0.000 OA
BRANCH  16  20
ATOM     17  C   UNL     1      46.092   2.984   7.540  0.00  0.00    +0.000 A 
ATOM     18  C   UNL     1      45.846   1.956   8.436  0.00  0.00    +0.000 A 
ATOM     19  N   UNL     1      45.072   2.115   9.536  0.00  0.00    +0.000 NA
ATOM     20  C   UNL     1      44.543   3.349   9.683  0.00  0.00    +0.000 A 
ATOM     21  C   UNL     1      44.870   4.402   8.836  0.00  0.00    +0.000 A 
ATOM     22  N   UNL     1      45.651   4.241   7.741  0.00  0.00    +0.000 NA
BRANCH  17  23
ATOM     23  O   UNL     1      46.747   2.776   6.364  0.00  0.00    +0.000 OA
ATOM     24  H   UNL     1      46.215   3.181   5.663  0.00  0.00    +0.000 HD
ENDBRANCH  17  23
ENDBRANCH  16  20
ENDBRANCH   1  16
TORSDOF 5
ENDMDL
MODEL 3
REMARK VINA RESULT:    -7.082      2.286      7.042
REMARK INTER + INTRA:          -9.148
REMARK INTER:                  -9.058
REMARK INTRA:                  -0.090
REMARK UNBOUND:                -0.203
REMARK  Name = 
REMARK  5 active torsions:
REMARK  status: ('A' for Active; 'I' for Inactive)
REMARK    1  A    between atoms: O_1  and  C_2
REMARK    2  A    between atoms: C_5  and  O_6
REMARK    3  A    between atoms: O_6  and  C_7
REMARK    4  A    between atoms: C_7  and  C_8
REMARK    5  A    between atoms: C_12  and  C_13
REMARK                            x       y       z     vdW  Elec       q    Type
REMARK                         _______ _______ _______ _____ _____    ______ ____
ROOT
ATOM      1  C   UNL     1      44.314   4.549  11.521  0.00  0.00    +0.000 C 
ATOM      2  C   UNL     1      42.968   4.647  12.232  0.00  0.00    +0.000 C 
ATOM      3  C   UNL     1      43.230   5.478  11.017  0.00  0.00    +0.000 C 
ENDROOT
BRANCH   1   4
ATOM      4  C   UNL     1      45.547   5.174  12.182  0.00  0.00    +0.000 A 
ATOM      5  C   UNL     1      46.250   6.224  11.568  0.00  0.00    +0.000 A 
ATOM      6  C   UNL     1      47.361   6.817  12.162  0.00  0.00    +0.000 A 
ATOM      7  C   UNL     1      47.787   6.387  13.414  0.00  0.00    +0.000 A 
ATOM      8  C   UNL     1      47.119   5.354  14.094  0.00  0.00    +0.000 A 
ATOM      9  C   UNL     1      46.013   4.761  13.446  0.00  0.00    +0.000 A 
BRANCH   8  10
ATOM     10  C   UNL     1      47.556   4.912  15.436  0.00  0.00    +0.000 A 
ATOM     11  C   UNL     1      47.052   3.749  16.040  0.00  0.00    +0.000 A 
ATOM     12  C   UNL     1      47.478   3.359  17.307  0.00  0.00    +0.000 A 
ATOM     13  C   UNL     1      48.419   4.140  17.954  0.00  0.00    +0.000 A 
ATOM     14  N   UNL     1      48.939   5.266  17.427  0.00  0.00    +0.000 NA
ATOM     15  C   UNL     1      48.494   5.621  16.194  0.00  0.00    +0.000 A 
ENDBRANCH   8  10
ENDBRANCH   1   4
BRANCH   1  16
ATOM     16  O   UNL     1      44.456   3.254  10.870  0.00  0.00    +0.000 OA
BRANCH  16  20
ATOM     17  C   UNL     1      46.507   3.124   7.392  0.00  0.00    +0.000 A 
ATOM     18  C   UNL     1      46.015   4.333   7.858  0.00  0.00    +0.000 A 
ATOM     19  N   UNL     1      45.266   4.432   8.982  0.00  0.00    +0.000 NA
ATOM     20  C   UNL     1      45.051   3.264   9.625  0.00  0.00    +0.000 A 
ATOM     21  C   UNL     1      45.464   2.043   9.102  0.00  0.00    +0.000 A 
ATOM     22  N   UNL     1      46.206   1.947   7.973  0.00  0.00    +0.000 NA
BRANCH  17  23
ATOM     23  O   UNL     1      47.379   3.054   6.347  0.00  0.00    +0.000 OA
ATOM     24  H   UNL     1      47.216   2.214   5.893  0.00  0.00    +0.000 HD
ENDBRANCH  17  23
ENDBRANCH  16  20
ENDBRANCH   1  16
TORSDOF 5
ENDMDL
MODEL 4
REMARK VINA RESULT:    -6.889      1.652      2.538
REMARK INTER + INTRA:          -8.904
REMARK INTER:                  -8.322
REMARK INTRA:                  -0.581
REMARK UNBOUND:                -0.203
REMARK  Name = 
REMARK  5 active torsions:
REMARK  status: ('A' for Active; 'I' for Inactive)
REMARK    1  A    between atoms: O_1  and  C_2
REMARK    2  A    between atoms: C_5  and  O_6
REMARK    3  A    between atoms: O_6  and  C_7
REMARK    4  A    between atoms: C_7  and  C_8
REMARK    5  A    between atoms: C_12  and  C_13
REMARK                            x       y       z     vdW  Elec       q    Type
REMARK                         _______ _______ _______ _____ _____    ______ ____
ROOT
ATOM      1  C   UNL     1      48.550   7.627  13.435  0.00  0.00    +0.000 C 
ATOM      2  C   UNL     1      49.638   8.499  12.815  0.00  0.00    +0.000 C 
ATOM      3  C   UNL     1      48.936   8.953  14.055  0.00  0.00    +0.000 C 
ENDROOT
BRANCH   1   4
ATOM      4  C   UNL     1      47.192   7.529  12.734  0.00  0.00    +0.000 A 
ATOM      5  C   UNL     1      46.255   8.572  12.811  0.00  0.00    +0.000 A 
ATOM      6  C   UNL     1      45.022   8.509  12.166  0.00  0.00    +0.000 A 
ATOM      7  C   UNL     1      44.702   7.398  11.394  0.00  0.00    +0.000 A 
ATOM      8  C   UNL     1      45.600   6.325  11.259  0.00  0.00    +0.000 A 
ATOM      9  C   UNL     1      46.829   6.416  11.950  0.00  0.00    +0.000 A 
BRANCH   8  10
ATOM     10  C   UNL     1      45.272   5.152  10.419  0.00  0.00    +0.000 A 
ATOM     11  C   UNL     1      45.701   5.042   9.087  0.00  0.00    +0.000 A 
ATOM     12  C   UNL     1      45.374   3.928   8.319  0.00  0.00    +0.000 A 
ATOM     13  C   UNL     1      44.623   2.925   8.904  0.00  0.00    +0.000 A 
ATOM     14  N   UNL     1      44.182   2.972  10.176  0.00  0.00    +0.000 NA
ATOM     15  C   UNL     1      44.512   4.077  10.892  0.00  0.00    +0.000 A 
ENDBRANCH   8  10
ENDBRANCH   1   4
BRANCH   1  16
ATOM     16  O   UNL     1      49.128   6.417  14.005  0.00  0.00    +0.000 OA
BRANCH  16  20
ATOM     17  C   UNL     1      47.629   4.855  17.415  0.00  0.00    +0.000 A 
ATOM     18  C   UNL     1      47.219   4.356  16.189  0.00  0.00    +0.000 A 
ATOM     19  N   UNL     1      47.635   4.880  15.011  0.00  0.00    +0.000 NA
ATOM     20  C   UNL     1      48.497   5.913  15.124  0.00  0.00    +0.000 A 
ATOM     21  C   UNL     1      48.829   6.471  16.353  0.00  0.00    +0.000 A 
ATOM     22  N   UNL     1      48.404   5.951  17.529  0.00  0.00    +0.000 NA
BRANCH  17  23
ATOM     23  O   UNL     1      47.323   4.232  18.588  0.00  0.00    +0.000 OA
ATOM     24  H   UNL     1      47.335   4.905  19.283  0.00  0.00    +0.000 HD
ENDBRANCH  17  23
ENDBRANCH  16  20
ENDBRANCH   1  16
TORSDOF 5
ENDMDL
MODEL 5
REMARK VINA RESULT:    -6.856      3.128      4.830
REMARK INTER + INTRA:          -8.862
REMARK INTER:                  -8.279
REMARK INTRA:                  -0.583
REMARK UNBOUND:                -0.203
REMARK  Name = 
REMARK  5 active torsions:
REMARK  status: ('A' for Active; 'I' for Inactive)
REMARK    1  A    between atoms: O_1  and  C_2
REMARK    2  A    between atoms: C_5  and  O_6
REMARK    3  A    between atoms: O_6  and  C_7
REMARK    4  A    between atoms: C_7  and  C_8
REMARK    5  A    between atoms: C_12  and  C_13
REMARK                            x       y       z     vdW  Elec       q    Type
REMARK                         _______ _______ _______ _____ _____    ______ ____
ROOT
ATOM      1  C   UNL     1      45.840   7.647  12.336  0.00  0.00    +0.000 C 
ATOM      2  C   UNL     1      46.986   7.349  13.298  0.00  0.00    +0.000 C 
ATOM      3  C   UNL     1      47.283   7.830  11.913  0.00  0.00    +0.000 C 
ENDROOT
BRANCH   1   4
ATOM      4  C   UNL     1      45.057   6.477  11.733  0.00  0.00    +0.000 A 
ATOM      5  C   UNL     1      43.729   6.216  12.111  0.00  0.00    +0.000 A 
ATOM      6  C   UNL     1      42.996   5.168  11.560  0.00  0.00    +0.000 A 
ATOM      7  C   UNL     1      43.570   4.360  10.585  0.00  0.00    +0.000 A 
ATOM      8  C   UNL     1      44.888   4.576  10.147  0.00  0.00    +0.000 A 
ATOM      9  C   UNL     1      45.608   5.632  10.749  0.00  0.00    +0.000 A 
BRANCH   8  10
ATOM     10  C   UNL     1      45.493   3.732   9.093  0.00  0.00    +0.000 A 
ATOM     11  C   UNL     1      46.142   4.282   7.976  0.00  0.00    +0.000 A 
ATOM     12  C   UNL     1      46.699   3.464   6.997  0.00  0.00    +0.000 A 
ATOM     13  C   UNL     1      46.607   2.093   7.156  0.00  0.00    +0.000 A 
ATOM     14  N   UNL     1      45.998   1.506   8.205  0.00  0.00    +0.000 NA
ATOM     15  C   UNL     1      45.459   2.334   9.135  0.00  0.00    +0.000 A 
ENDBRANCH   8  10
ENDBRANCH   1   4
BRANCH   1  16
ATOM     16  O   UNL     1      45.104   8.828  12.768  0.00  0.00    +0.000 OA
BRANCH  16  20
ATOM     17  C   UNL     1      44.729  11.482   9.747  0.00  0.00    +0.000 A 
ATOM     18  C   UNL     1      45.661  11.704  10.748  0.00  0.00    +0.000 A 
ATOM     19  N   UNL     1      45.790  10.886  11.820  0.00  0.00    +0.000 NA
ATOM     20  C   UNL     1      44.954   9.826  11.827  0.00  0.00    +0.000 A 
ATOM     21  C   UNL     1      43.956   9.661  10.872  0.00  0.00    +0.000 A 
ATOM     22  N   UNL     1      43.824  10.487   9.806  0.00  0.00    +0.000 NA
BRANCH  17  23
ATOM     23  O   UNL     1      44.706  12.224   8.604  0.00  0.00    +0.000 OA
ATOM     24  H   UNL     1      44.156  11.749   7.963  0.00  0.00    +0.000 HD
ENDBRANCH  17  23
ENDBRANCH  16  20
ENDBRANCH   1  16
TORSDOF 5
ENDMDL
MODEL 6
REMARK VINA RESULT:    -6.669      2.518      6.719
REMARK INTER + INTRA:          -8.626
REMARK INTER:                  -8.051
REMARK INTRA:                  -0.575
REMARK UNBOUND:                -0.203
REMARK  Name = 
REMARK  5 active torsions:
REMARK  status: ('A' for Active; 'I' for Inactive)
REMARK    1  A    between atoms: O_1  and  C_2
REMARK    2  A    between atoms: C_5  and  O_6
REMARK    3  A    between atoms: O_6  and  C_7
REMARK    4  A    between atoms: C_7  and  C_8
REMARK    5  A    between atoms: C_12  and  C_13
REMARK                            x       y       z     vdW  Elec       q    Type
REMARK                         _______ _______ _______ _____ _____    ______ ____
ROOT
ATOM      1  C   UNL     1      44.204   5.315  11.981  0.00  0.00    +0.000 C 
ATOM      2  C   UNL     1      43.017   5.044  12.901  0.00  0.00    +0.000 C 
ATOM      3  C   UNL     1      42.784   5.571  11.520  0.00  0.00    +0.000 C 
ENDROOT
BRANCH   1   4
ATOM      4  C   UNL     1      45.097   6.526  12.264  0.00  0.00    +0.000 A 
ATOM      5  C   UNL     1      44.727   7.817  11.852  0.00  0.00    +0.000 A 
ATOM      6  C   UNL     1      45.518   8.933  12.116  0.00  0.00    +0.000 A 
ATOM      7  C   UNL     1      46.701   8.788  12.832  0.00  0.00    +0.000 A 
ATOM      8  C   UNL     1      47.123   7.528  13.289  0.00  0.00    +0.000 A 
ATOM      9  C   UNL     1      46.307   6.417  12.978  0.00  0.00    +0.000 A 
BRANCH   8  10
ATOM     10  C   UNL     1      48.369   7.374  14.071  0.00  0.00    +0.000 A 
ATOM     11  C   UNL     1      49.529   8.112  13.783  0.00  0.00    +0.000 A 
ATOM     12  C   UNL     1      50.689   7.944  14.533  0.00  0.00    +0.000 A 
ATOM     13  C   UNL     1      50.670   7.039  15.579  0.00  0.00    +0.000 A 
ATOM     14  N   UNL     1      49.590   6.302  15.905  0.00  0.00    +0.000 NA
ATOM     15  C   UNL     1      48.479   6.486  15.146  0.00  0.00    +0.000 A 
ENDBRANCH   8  10
ENDBRANCH   1   4
BRANCH   1  16
ATOM     16  O   UNL     1      44.833   4.065  11.577  0.00  0.00    +0.000 OA
BRANCH  16  20
ATOM     17  C   UNL     1      45.724   3.323   7.707  0.00  0.00    +0.000 A 
ATOM     18  C   UNL     1      45.899   4.597   8.223  0.00  0.00    +0.000 A 
ATOM     19  N   UNL     1      45.558   4.924   9.493  0.00  0.00    +0.000 NA
ATOM     20  C   UNL     1      45.053   3.907  10.223  0.00  0.00    +0.000 A 
ATOM     21  C   UNL     1      44.791   2.657   9.673  0.00  0.00    +0.000 A 
ATOM     22  N   UNL     1      45.124   2.336   8.400  0.00  0.00    +0.000 NA
BRANCH  17  23
ATOM     23  O   UNL     1      46.204   2.968   6.482  0.00  0.00    +0.000 OA
ATOM     24  H   UNL     1      47.122   2.684   6.604  0.00  0.00    +0.000 HD
ENDBRANCH  17  23
ENDBRANCH  16  20
ENDBRANCH   1  16
TORSDOF 5
ENDMDL
MODEL 7
REMARK VINA RESULT:    -6.589      3.352      6.932
REMARK INTER + INTRA:          -8.526
REMARK INTER:                  -7.914
REMARK INTRA:                  -0.611
REMARK UNBOUND:                -0.203
REMARK  Name = 
REMARK  5 active torsions:
REMARK  status: ('A' for Active; 'I' for Inactive)
REMARK    1  A    between atoms: O_1  and  C_2
REMARK    2  A    between atoms: C_5  and  O_6
REMARK    3  A    between atoms: O_6  and  C_7
REMARK    4  A    between atoms: C_7  and  C_8
REMARK    5  A    between atoms: C_12  and  C_13
REMARK                            x       y       z     vdW  Elec       q    Type
REMARK                         _______ _______ _______ _____ _____    ______ ____
ROOT
ATOM      1  C   UNL     1      44.046   5.240  12.094  0.00  0.00    +0.000 C 
ATOM      2  C   UNL     1      42.927   4.935  13.086  0.00  0.00    +0.000 C 
ATOM      3  C   UNL     1      42.592   5.433  11.716  0.00  0.00    +0.000 C 
ENDROOT
BRANCH   1   4
ATOM      4  C   UNL     1      44.904   6.490  12.310  0.00  0.00    +0.000 A 
ATOM      5  C   UNL     1      46.128   6.425  12.996  0.00  0.00    +0.000 A 
ATOM      6  C   UNL     1      46.931   7.547  13.186  0.00  0.00    +0.000 A 
ATOM      7  C   UNL     1      46.538   8.774  12.665  0.00  0.00    +0.000 A 
ATOM      8  C   UNL     1      45.334   8.908  11.952  0.00  0.00    +0.000 A 
ATOM      9  C   UNL     1      44.535   7.752  11.804  0.00  0.00    +0.000 A 
BRANCH   8  10
ATOM     10  C   UNL     1      44.924  10.208  11.376  0.00  0.00    +0.000 A 
ATOM     11  C   UNL     1      45.614  11.399  11.654  0.00  0.00    +0.000 A 
ATOM     12  C   UNL     1      45.203  12.609  11.101  0.00  0.00    +0.000 A 
ATOM     13  C   UNL     1      44.105  12.608  10.261  0.00  0.00    +0.000 A 
ATOM     14  N   UNL     1      43.403  11.499   9.956  0.00  0.00    +0.000 NA
ATOM     15  C   UNL     1      43.826  10.339  10.521  0.00  0.00    +0.000 A 
ENDBRANCH   8  10
ENDBRANCH   1   4
BRANCH   1  16
ATOM     16  O   UNL     1      44.701   4.011  11.668  0.00  0.00    +0.000 OA
BRANCH  16  20
ATOM     17  C   UNL     1      45.652   3.377   7.793  0.00  0.00    +0.000 A 
ATOM     18  C   UNL     1      45.835   4.631   8.352  0.00  0.00    +0.000 A 
ATOM     19  N   UNL     1      45.476   4.923   9.625  0.00  0.00    +0.000 NA
ATOM     20  C   UNL     1      44.943   3.892  10.314  0.00  0.00    +0.000 A 
ATOM     21  C   UNL     1      44.672   2.664   9.720  0.00  0.00    +0.000 A 
ATOM     22  N   UNL     1      45.025   2.378   8.444  0.00  0.00    +0.000 NA
BRANCH  17  23
ATOM     23  O   UNL     1      46.148   3.053   6.566  0.00  0.00    +0.000 OA
ATOM     24  H   UNL     1      46.313   3.882   6.094  0.00  0.00    +0.000 HD
ENDBRANCH  17  23
ENDBRANCH  16  20
ENDBRANCH   1  16
TORSDOF 5
ENDMDL
MODEL 8
REMARK VINA RESULT:    -6.334      2.963      4.291
REMARK INTER + INTRA:          -8.202
REMARK INTER:                  -7.838
REMARK INTRA:                  -0.364
REMARK UNBOUND:                -0.203
REMARK  Name = 
REMARK  5 active torsions:
REMARK  status: ('A' for Active; 'I' for Inactive)
REMARK    1  A    between atoms: O_1  and  C_2
REMARK    2  A    between atoms: C_5  and  O_6
REMARK    3  A    between atoms: O_6  and  C_7
REMARK    4  A    between atoms: C_7  and  C_8
REMARK    5  A    between atoms: C_12  and  C_13
REMARK                            x       y       z     vdW  Elec       q    Type
REMARK                         _______ _______ _______ _____ _____    ______ ____
ROOT
ATOM      1  C   UNL     1      49.147   7.284  15.291  0.00  0.00    +0.000 C 
ATOM      2  C   UNL     1      49.794   8.610  15.678  0.00  0.00    +0.000 C 
ATOM      3  C   UNL     1      48.493   8.208  16.297  0.00  0.00    +0.000 C 
ENDROOT
BRANCH   1   4
ATOM      4  C   UNL     1      48.500   7.152  13.909  0.00  0.00    +0.000 A 
ATOM      5  C   UNL     1      49.073   7.751  12.775  0.00  0.00    +0.000 A 
ATOM      6  C   UNL     1      48.509   7.627  11.508  0.00  0.00    +0.000 A 
ATOM      7  C   UNL     1      47.357   6.868  11.336  0.00  0.00    +0.000 A 
ATOM      8  C   UNL     1      46.741   6.226  12.424  0.00  0.00    +0.000 A 
ATOM      9  C   UNL     1      47.329   6.398  13.697  0.00  0.00    +0.000 A 
BRANCH   8  10
ATOM     10  C   UNL     1      45.528   5.398  12.240  0.00  0.00    +0.000 A 
ATOM     11  C   UNL     1      44.520   5.744  11.326  0.00  0.00    +0.000 A 
ATOM     12  C   UNL     1      43.387   4.948  11.177  0.00  0.00    +0.000 A 
ATOM     13  C   UNL     1      43.284   3.801  11.943  0.00  0.00    +0.000 A 
ATOM     14  N   UNL     1      44.217   3.417  12.835  0.00  0.00    +0.000 NA
ATOM     15  C   UNL     1      45.303   4.222  12.961  0.00  0.00    +0.000 A 
ENDBRANCH   8  10
ENDBRANCH   1   4
BRANCH   1  16
ATOM     16  O   UNL     1      49.927   6.166  15.805  0.00  0.00    +0.000 OA
BRANCH  16  20
ATOM     17  C   UNL     1      48.520   3.793  18.755  0.00  0.00    +0.000 A 
ATOM     18  C   UNL     1      47.874   3.826  17.530  0.00  0.00    +0.000 A 
ATOM     19  N   UNL     1      48.259   4.648  16.524  0.00  0.00    +0.000 NA
ATOM     20  C   UNL     1      49.332   5.418  16.801  0.00  0.00    +0.000 A 
ATOM     21  C   UNL     1      49.917   5.451  18.062  0.00  0.00    +0.000 A 
ATOM     22  N   UNL     1      49.524   4.634  19.069  0.00  0.00    +0.000 NA
BRANCH  17  23
ATOM     23  O   UNL     1      48.221   2.862  19.705  0.00  0.00    +0.000 OA
ATOM     24  H   UNL     1      48.972   2.253  19.758  0.00  0.00    +0.000 HD
ENDBRANCH  17  23
ENDBRANCH  16  20
ENDBRANCH   1  16
TORSDOF 5
ENDMDL
MODEL 9
REMARK VINA RESULT:    -5.880      3.251      6.859
REMARK INTER + INTRA:          -7.629
REMARK INTER:                  -6.991
REMARK INTRA:                  -0.639
REMARK UNBOUND:                -0.203
REMARK  Name = 
REMARK  5 active torsions:
REMARK  status: ('A' for Active; 'I' for Inactive)
REMARK    1  A    between atoms: O_1  and  C_2
REMARK    2  A    between atoms: C_5  and  O_6
REMARK    3  A    between atoms: O_6  and  C_7
REMARK    4  A    between atoms: C_7  and  C_8
REMARK    5  A    between atoms: C_12  and  C_13
REMARK                            x       y       z     vdW  Elec       q    Type
REMARK                         _______ _______ _______ _____ _____    ______ ____
ROOT
ATOM      1  C   UNL     1      45.700   7.616  12.543  0.00  0.00    +0.000 C 
ATOM      2  C   UNL     1      45.044   8.990  12.454  0.00  0.00    +0.000 C 
ATOM      3  C   UNL     1      45.129   8.127  11.236  0.00  0.00    +0.000 C 
ENDROOT
BRANCH   1   4
ATOM      4  C   UNL     1      47.223   7.530  12.677  0.00  0.00    +0.000 A 
ATOM      5  C   UNL     1      48.065   7.716  11.568  0.00  0.00    +0.000 A 
ATOM      6  C   UNL     1      49.452   7.660  11.673  0.00  0.00    +0.000 A 
ATOM      7  C   UNL     1      50.042   7.439  12.913  0.00  0.00    +0.000 A 
ATOM      8  C   UNL     1      49.261   7.262  14.068  0.00  0.00    +0.000 A 
ATOM      9  C   UNL     1      47.857   7.300  13.914  0.00  0.00    +0.000 A 
BRANCH   8  10
ATOM     10  C   UNL     1      49.886   7.051  15.392  0.00  0.00    +0.000 A 
ATOM     11  C   UNL     1      49.334   6.186  16.350  0.00  0.00    +0.000 A 
ATOM     12  C   UNL     1      49.943   6.009  17.590  0.00  0.00    +0.000 A 
ATOM     13  C   UNL     1      51.112   6.699  17.852  0.00  0.00    +0.000 A 
ATOM     14  N   UNL     1      51.690   7.542  16.974  0.00  0.00    +0.000 NA
ATOM     15  C   UNL     1      51.065   7.697  15.779  0.00  0.00    +0.000 A 
ENDBRANCH   8  10
ENDBRANCH   1   4
BRANCH   1  16
ATOM     16  O   UNL     1      44.879   6.708  13.333  0.00  0.00    +0.000 OA
BRANCH  16  20
ATOM     17  C   UNL     1      43.646   3.162  11.841  0.00  0.00    +0.000 A 
ATOM     18  C   UNL     1      44.964   3.324  12.232  0.00  0.00    +0.000 A 
ATOM     19  N   UNL     1      45.454   4.506  12.679  0.00  0.00    +0.000 NA
ATOM     20  C   UNL     1      44.552   5.509  12.732  0.00  0.00    +0.000 A 
ATOM     21  C   UNL     1      43.256   5.368  12.248  0.00  0.00    +0.000 A 
ATOM     22  N   UNL     1      42.772   4.187  11.793  0.00  0.00    +0.000 NA
BRANCH  17  23
ATOM     23  O   UNL     1      43.128   1.939  11.534  0.00  0.00    +0.000 OA
ATOM     24  H   UNL     1      42.403   2.083  10.907  0.00  0.00    +0.000 HD
ENDBRANCH  17  23
ENDBRANCH  16  20
ENDBRANCH   1  16
TORSDOF 5
ENDMDL
