MODEL 1
REMARK VINA RESULT:    -7.771      0.000      0.000
REMARK INTER + INTRA:         -11.483
REMARK INTER:                 -10.496
REMARK INTRA:                  -0.987
REMARK UNBOUND:                -0.987
REMARK  Name = 
REMARK  7 active torsions:
REMARK  status: ('A' for Active; 'I' for Inactive)
REMARK    1  A    between atoms: C_1  and  C_2
REMARK    2  A    between atoms: C_2  and  N_3
REMARK    3  A    between atoms: C_2  and  C_16
REMARK    4  A    between atoms: C_4  and  C_6
REMARK    5  A    between atoms: C_19  and  C_20
REMARK    6  A    between atoms: C_20  and  N_21
REMARK    7  A    between atoms: C_22  and  C_24
REMARK                            x       y       z     vdW  Elec       q    Type
REMARK                         _______ _______ _______ _____ _____    ______ ____
ROOT
ATOM      1  C   UNL     1      47.800   5.890  14.900  0.00  0.00    +0.000 A 
ATOM      2  C   UNL     1      47.453   6.335  13.620  0.00  0.00    +0.000 A 
ATOM      3  C   UNL     1      46.625   5.559  12.811  0.00  0.00    +0.000 A 
ATOM      4  C   UNL     1      46.134   4.356  13.308  0.00  0.00    +0.000 A 
ATOM      5  N   UNL     1      46.446   3.900  14.546  0.00  0.00    +0.000 NA
ATOM      6  C   UNL     1      47.250   4.679  15.309  0.00  0.00    +0.000 A 
ENDROOT
BRANCH   1   8
ATOM      7  C   UNL     1      49.281   7.951  15.064  0.00  0.00    +0.000 C 
ATOM      8  C   UNL     1      48.708   6.722  15.781  0.00  0.00    +0.000 C 
BRANCH   8   9
ATOM      9  N   UNL     1      49.770   5.891  16.318  0.00  0.00    +0.000 N 
ATOM     10  C   UNL     1      49.753   5.390  17.594  0.00  0.00    +0.000 C 
ATOM     11  O   UNL     1      48.810   5.605  18.356  0.00  0.00    +0.000 OA
ATOM     12  H   UNL     1      50.569   5.719  15.716  0.00  0.00    +0.000 HD
BRANCH  10  13
ATOM     13  C   UNL     1      50.913   4.590  18.026  0.00  0.00    +0.000 A 
ATOM     14  C   UNL     1      51.922   5.202  18.762  0.00  0.00    +0.000 A 
ATOM     15  S   UNL     1      53.214   4.168  19.162  0.00  0.00    +0.000 S 
ATOM     16  C   UNL     1      52.479   2.856  18.368  0.00  0.00    +0.000 A 
ATOM     17  N   UNL     1      53.100   1.646  18.307  0.00  0.00    +0.000 NA
ATOM     18  C   UNL     1      52.439   0.739  17.671  0.00  0.00    +0.000 A 
ATOM     19  N   UNL     1      51.209   0.927  17.102  0.00  0.00    +0.000 N 
ATOM     20  C   UNL     1      50.539   2.126  17.148  0.00  0.00    +0.000 A 
ATOM     21  O   UNL     1      49.429   2.249  16.640  0.00  0.00    +0.000 OA
ATOM     22  C   UNL     1      51.250   3.195  17.827  0.00  0.00    +0.000 A 
ATOM     23  H   UNL     1      50.735   0.171  16.628  0.00  0.00    +0.000 HD
ENDBRANCH  10  13
ENDBRANCH   8   9
ENDBRANCH   1   8
BRANCH   4  24
ATOM     24  C   UNL     1      45.231   3.488  12.467  0.00  0.00    +0.000 C 
BRANCH  24  25
ATOM     25  N   UNL     1      45.787   3.231  11.154  0.00  0.00    +0.000 N 
ATOM     26  C   UNL     1      45.018   2.744  10.117  0.00  0.00    +0.000 C 
ATOM     27  O   UNL     1      43.827   2.496  10.229  0.00  0.00    +0.000 OA
ATOM     28  H   UNL     1      46.702   3.621  10.974  0.00  0.00    +0.000 HD
BRANCH  26  29
ATOM     29  C   UNL     1      45.752   2.492   8.853  0.00  0.00    +0.000 A 
ATOM     30  C   UNL     1      45.957   1.171   8.426  0.00  0.00    +0.000 A 
ATOM     31  C   UNL     1      46.641   0.922   7.239  0.00  0.00    +0.000 A 
ATOM     32  C   UNL     1      47.088   2.006   6.503  0.00  0.00    +0.000 A 
ATOM     33  N   UNL     1      46.895   3.289   6.874  0.00  0.00    +0.000 NA
ATOM     34  C   UNL     1      46.225   3.509   8.036  0.00  0.00    +0.000 A 
ATOM     35 CL   UNL     1      46.110   5.187   8.396  0.00  0.00    +0.000 Cl
ENDBRANCH  26  29
ENDBRANCH  24  25
ENDBRANCH   4  24
TORSDOF 6
ENDMDL
MODEL 2
REMARK VINA RESULT:    -7.616      3.475      5.201
REMARK INTER + INTRA:         -11.273
REMARK INTER:                 -10.303
REMARK INTRA:                  -0.971
REMARK UNBOUND:                -0.987
REMARK  Name = 
REMARK  7 active torsions:
REMARK  status: ('A' for Active; 'I' for Inactive)
REMARK    1  A    between atoms: C_1  and  C_2
REMARK    2  A    between atoms: C_2  and  N_3
REMARK    3  A    between atoms: C_2  and  C_16
REMARK    4  A    between atoms: C_4  and  C_6
REMARK    5  A    between atoms: C_19  and  C_20
REMARK    6  A    between atoms: C_20  and  N_21
REMARK    7  A    between atoms: C_22  and  C_24
REMARK                            x       y       z     vdW  Elec       q    Type
REMARK                         _______ _______ _______ _____ _____    ______ ____
ROOT
ATOM      1  C   UNL     1      46.841   4.578  14.104  0.00  0.00    +0.000 A 
ATOM      2  C   UNL     1      46.318   5.641  13.360  0.00  0.00    +0.000 A 
ATOM      3  C   UNL     1      45.536   5.389  12.235  0.00  0.00    +0.000 A 
ATOM      4  C   UNL     1      45.268   4.070  11.884  0.00  0.00    +0.000 A 
ATOM      5  N   UNL     1      45.755   3.018  12.587  0.00  0.00    +0.000 NA
ATOM      6  C   UNL     1      46.508   3.296  13.677  0.00  0.00    +0.000 A 
ENDROOT
BRANCH   1   8
ATOM      7  C   UNL     1      47.087   4.308  16.620  0.00  0.00    +0.000 C 
ATOM      8  C   UNL     1      47.700   4.845  15.322  0.00  0.00    +0.000 C 
BRANCH   8   9
ATOM      9  N   UNL     1      47.979   6.265  15.427  0.00  0.00    +0.000 N 
ATOM     10  C   UNL     1      49.179   6.761  15.867  0.00  0.00    +0.000 C 
ATOM     11  O   UNL     1      50.106   6.013  16.181  0.00  0.00    +0.000 OA
ATOM     12  H   UNL     1      47.222   6.901  15.194  0.00  0.00    +0.000 HD
BRANCH  10  13
ATOM     13  C   UNL     1      49.318   8.225  15.959  0.00  0.00    +0.000 A 
ATOM     14  C   UNL     1      49.643   8.798  17.184  0.00  0.00    +0.000 A 
ATOM     15  S   UNL     1      49.736  10.498  17.152  0.00  0.00    +0.000 S 
ATOM     16  C   UNL     1      49.345  10.540  15.498  0.00  0.00    +0.000 A 
ATOM     17  N   UNL     1      49.225  11.728  14.843  0.00  0.00    +0.000 NA
ATOM     18  C   UNL     1      48.919  11.621  13.594  0.00  0.00    +0.000 A 
ATOM     19  N   UNL     1      48.737  10.436  12.937  0.00  0.00    +0.000 N 
ATOM     20  C   UNL     1      48.858   9.212  13.552  0.00  0.00    +0.000 A 
ATOM     21  O   UNL     1      48.704   8.171  12.923  0.00  0.00    +0.000 OA
ATOM     22  C   UNL     1      49.173   9.272  14.968  0.00  0.00    +0.000 A 
ATOM     23  H   UNL     1      48.511  10.417  11.952  0.00  0.00    +0.000 HD
ENDBRANCH  10  13
ENDBRANCH   8   9
ENDBRANCH   1   8
BRANCH   4  24
ATOM     24  C   UNL     1      44.422   3.752  10.675  0.00  0.00    +0.000 C 
BRANCH  24  25
ATOM     25  N   UNL     1      45.220   3.603   9.474  0.00  0.00    +0.000 N 
ATOM     26  C   UNL     1      45.259   2.419   8.766  0.00  0.00    +0.000 C 
ATOM     27  O   UNL     1      44.634   1.423   9.095  0.00  0.00    +0.000 OA
ATOM     28  H   UNL     1      45.572   4.457   9.065  0.00  0.00    +0.000 HD
BRANCH  26  29
ATOM     29  C   UNL     1      46.161   2.420   7.589  0.00  0.00    +0.000 A 
ATOM     30  C   UNL     1      46.351   3.606   6.864  0.00  0.00    +0.000 A 
ATOM     31  C   UNL     1      47.199   3.619   5.760  0.00  0.00    +0.000 A 
ATOM     32  C   UNL     1      47.846   2.444   5.420  0.00  0.00    +0.000 A 
ATOM     33  N   UNL     1      47.701   1.288   6.102  0.00  0.00    +0.000 NA
ATOM     34  C   UNL     1      46.868   1.298   7.177  0.00  0.00    +0.000 A 
ATOM     35 CL   UNL     1      46.748  -0.257   7.902  0.00  0.00    +0.000 Cl
ENDBRANCH  26  29
ENDBRANCH  24  25
ENDBRANCH   4  24
TORSDOF 6
ENDMDL
MODEL 3
REMARK VINA RESULT:    -7.542      3.332      8.996
REMARK INTER + INTRA:         -11.174
REMARK INTER:                 -10.688
REMARK INTRA:                  -0.486
REMARK UNBOUND:                -0.987
REMARK  Name = 
REMARK  7 active torsions:
REMARK  status: ('A' for Active; 'I' for Inactive)
REMARK    1  A    between atoms: C_1  and  C_2
REMARK    2  A    between atoms: C_2  and  N_3
REMARK    3  A    between atoms: C_2  and  C_16
REMARK    4  A    between atoms: C_4  and  C_6
REMARK    5  A    between atoms: C_19  and  C_20
REMARK    6  A    between atoms: C_20  and  N_21
REMARK    7  A    between atoms: C_22  and  C_24
REMARK                            x       y       z     vdW  Elec       q    Type
REMARK                         _______ _______ _______ _____ _____    ______ ____
ROOT
ATOM      1  C   UNL     1      47.970   7.797  13.345  0.00  0.00    +0.000 A 
ATOM      2  C   UNL     1      47.848   8.715  14.394  0.00  0.00    +0.000 A 
ATOM      3  C   UNL     1      48.545   8.513  15.584  0.00  0.00    +0.000 A 
ATOM      4  C   UNL     1      49.375   7.402  15.697  0.00  0.00    +0.000 A 
ATOM      5  N   UNL     1      49.519   6.498  14.697  0.00  0.00    +0.000 NA
ATOM      6  C   UNL     1      48.833   6.724  13.553  0.00  0.00    +0.000 A 
ENDROOT
BRANCH   1   8
ATOM      7  C   UNL     1      46.219   9.173  12.118  0.00  0.00    +0.000 C 
ATOM      8  C   UNL     1      47.209   8.005  12.053  0.00  0.00    +0.000 C 
BRANCH   8   9
ATOM      9  N   UNL     1      46.537   6.775  11.674  0.00  0.00    +0.000 N 
ATOM     10  C   UNL     1      45.328   6.392  12.195  0.00  0.00    +0.000 C 
ATOM     11  O   UNL     1      44.729   7.096  13.010  0.00  0.00    +0.000 OA
ATOM     12  H   UNL     1      47.022   6.168  11.020  0.00  0.00    +0.000 HD
BRANCH  10  13
ATOM     13  C   UNL     1      44.773   5.101  11.751  0.00  0.00    +0.000 A 
ATOM     14  C   UNL     1      44.020   4.345  12.643  0.00  0.00    +0.000 A 
ATOM     15  S   UNL     1      43.472   2.864  12.006  0.00  0.00    +0.000 S 
ATOM     16  C   UNL     1      44.220   3.170  10.510  0.00  0.00    +0.000 A 
ATOM     17  N   UNL     1      44.161   2.255   9.504  0.00  0.00    +0.000 NA
ATOM     18  C   UNL     1      44.774   2.606   8.425  0.00  0.00    +0.000 A 
ATOM     19  N   UNL     1      45.428   3.796   8.254  0.00  0.00    +0.000 N 
ATOM     20  C   UNL     1      45.505   4.755   9.236  0.00  0.00    +0.000 A 
ATOM     21  O   UNL     1      46.086   5.816   9.037  0.00  0.00    +0.000 OA
ATOM     22  C   UNL     1      44.856   4.400  10.486  0.00  0.00    +0.000 A 
ATOM     23  H   UNL     1      45.879   4.019   7.378  0.00  0.00    +0.000 HD
ENDBRANCH  10  13
ENDBRANCH   8   9
ENDBRANCH   1   8
BRANCH   4  24
ATOM     24  C   UNL     1      50.150   7.148  16.966  0.00  0.00    +0.000 C 
BRANCH  24  25
ATOM     25  N   UNL     1      50.727   5.818  16.998  0.00  0.00    +0.000 N 
ATOM     26  C   UNL     1      50.168   4.796  17.737  0.00  0.00    +0.000 C 
ATOM     27  O   UNL     1      49.159   4.935  18.411  0.00  0.00    +0.000 OA
ATOM     28  H   UNL     1      51.426   5.620  16.295  0.00  0.00    +0.000 HD
BRANCH  26  29
ATOM     29  C   UNL     1      50.909   3.513  17.698  0.00  0.00    +0.000 A 
ATOM     30  C   UNL     1      52.215   3.454  18.206  0.00  0.00    +0.000 A 
ATOM     31  C   UNL     1      52.919   2.252  18.179  0.00  0.00    +0.000 A 
ATOM     32  C   UNL     1      52.289   1.138  17.656  0.00  0.00    +0.000 A 
ATOM     33  N   UNL     1      51.028   1.152  17.173  0.00  0.00    +0.000 NA
ATOM     34  C   UNL     1      50.360   2.335  17.209  0.00  0.00    +0.000 A 
ATOM     35 CL   UNL     1      48.794   2.202  16.510  0.00  0.00    +0.000 Cl
ENDBRANCH  26  29
ENDBRANCH  24  25
ENDBRANCH   4  24
TORSDOF 6
ENDMDL
MODEL 4
REMARK VINA RESULT:    -7.501      2.306      3.410
REMARK INTER + INTRA:         -11.119
REMARK INTER:                  -9.977
REMARK INTRA:                  -1.142
REMARK UNBOUND:                -0.987
REMARK  Name = 
REMARK  7 active torsions:
REMARK  status: ('A' for Active; 'I' for Inactive)
REMARK    1  A    between atoms: C_1  and  C_2
REMARK    2  A    between atoms: C_2  and  N_3
REMARK    3  A    between atoms: C_2  and  C_16
REMARK    4  A    between atoms: C_4  and  C_6
REMARK    5  A    between atoms: C_19  and  C_20
REMARK    6  A    between atoms: C_20  and  N_21
REMARK    7  A    between atoms: C_22  and  C_24
REMARK                            x       y       z     vdW  Elec       q    Type
REMARK                         _______ _______ _______ _____ _____    ______ ____
ROOT
ATOM      1  C   UNL     1      47.988   4.798  16.537  0.00  0.00    +0.000 A 
ATOM      2  C   UNL     1      48.660   5.985  16.227  0.00  0.00    +0.000 A 
ATOM      3  C   UNL     1      48.437   6.616  15.004  0.00  0.00    +0.000 A 
ATOM      4  C   UNL     1      47.521   6.058  14.117  0.00  0.00    +0.000 A 
ATOM      5  N   UNL     1      46.850   4.912  14.390  0.00  0.00    +0.000 NA
ATOM      6  C   UNL     1      47.086   4.326  15.588  0.00  0.00    +0.000 A 
ENDROOT
BRANCH   1   8
ATOM      7  C   UNL     1      47.808   4.940  19.069  0.00  0.00    +0.000 C 
ATOM      8  C   UNL     1      48.233   4.101  17.859  0.00  0.00    +0.000 C 
BRANCH   8   9
ATOM      9  N   UNL     1      49.628   3.712  17.959  0.00  0.00    +0.000 N 
ATOM     10  C   UNL     1      50.151   2.629  17.301  0.00  0.00    +0.000 C 
ATOM     11  O   UNL     1      49.457   1.931  16.561  0.00  0.00    +0.000 OA
ATOM     12  H   UNL     1      50.215   4.260  18.581  0.00  0.00    +0.000 HD
BRANCH  10  13
ATOM     13  C   UNL     1      51.577   2.324  17.519  0.00  0.00    +0.000 A 
ATOM     14  C   UNL     1      51.982   0.995  17.585  0.00  0.00    +0.000 A 
ATOM     15  S   UNL     1      53.648   0.792  17.874  0.00  0.00    +0.000 S 
ATOM     16  C   UNL     1      53.898   2.473  17.924  0.00  0.00    +0.000 A 
ATOM     17  N   UNL     1      55.135   2.983  18.175  0.00  0.00    +0.000 NA
ATOM     18  C   UNL     1      55.187   4.272  18.192  0.00  0.00    +0.000 A 
ATOM     19  N   UNL     1      54.120   5.097  17.966  0.00  0.00    +0.000 N 
ATOM     20  C   UNL     1      52.856   4.629  17.697  0.00  0.00    +0.000 A 
ATOM     21  O   UNL     1      51.928   5.402  17.483  0.00  0.00    +0.000 OA
ATOM     22  C   UNL     1      52.731   3.182  17.695  0.00  0.00    +0.000 A 
ATOM     23  H   UNL     1      54.228   6.102  17.979  0.00  0.00    +0.000 HD
ENDBRANCH  10  13
ENDBRANCH   8   9
ENDBRANCH   1   8
BRANCH   4  24
ATOM     24  C   UNL     1      47.247   6.711  12.785  0.00  0.00    +0.000 C 
BRANCH  24  25
ATOM     25  N   UNL     1      46.768   5.762  11.799  0.00  0.00    +0.000 N 
ATOM     26  C   UNL     1      45.487   5.822  11.290  0.00  0.00    +0.000 C 
ATOM     27  O   UNL     1      44.673   6.667  11.627  0.00  0.00    +0.000 OA
ATOM     28  H   UNL     1      47.472   5.193  11.351  0.00  0.00    +0.000 HD
BRANCH  26  29
ATOM     29  C   UNL     1      45.142   4.748  10.327  0.00  0.00    +0.000 A 
ATOM     30  C   UNL     1      45.607   4.829   9.006  0.00  0.00    +0.000 A 
ATOM     31  C   UNL     1      45.293   3.824   8.094  0.00  0.00    +0.000 A 
ATOM     32  C   UNL     1      44.532   2.757   8.536  0.00  0.00    +0.000 A 
ATOM     33  N   UNL     1      44.081   2.636   9.803  0.00  0.00    +0.000 NA
ATOM     34  C   UNL     1      44.399   3.629  10.675  0.00  0.00    +0.000 A 
ATOM     35 CL   UNL     1      43.706   3.358  12.227  0.00  0.00    +0.000 Cl
ENDBRANCH  26  29
ENDBRANCH  24  25
ENDBRANCH   4  24
TORSDOF 6
ENDMDL
MODEL 5
REMARK VINA RESULT:    -7.299      2.184      2.817
REMARK INTER + INTRA:         -10.846
REMARK INTER:                 -10.173
REMARK INTRA:                  -0.674
REMARK UNBOUND:                -0.987
REMARK  Name = 
REMARK  7 active torsions:
REMARK  status: ('A' for Active; 'I' for Inactive)
REMARK    1  A    between atoms: C_1  and  C_2
REMARK    2  A    between atoms: C_2  and  N_3
REMARK    3  A    between atoms: C_2  and  C_16
REMARK    4  A    between atoms: C_4  and  C_6
REMARK    5  A    between atoms: C_19  and  C_20
REMARK    6  A    between atoms: C_20  and  N_21
REMARK    7  A    between atoms: C_22  and  C_24
REMARK                            x       y       z     vdW  Elec       q    Type
REMARK                         _______ _______ _______ _____ _____    ______ ____
ROOT
ATOM      1  C   UNL     1      46.440   7.041  12.931  0.00  0.00    +0.000 A 
ATOM      2  C   UNL     1      45.670   7.583  11.895  0.00  0.00    +0.000 A 
ATOM      3  C   UNL     1      44.989   6.742  11.018  0.00  0.00    +0.000 A 
ATOM      4  C   UNL     1      45.070   5.366  11.206  0.00  0.00    +0.000 A 
ATOM      5  N   UNL     1      45.803   4.810  12.202  0.00  0.00    +0.000 NA
ATOM      6  C   UNL     1      46.449   5.654  13.041  0.00  0.00    +0.000 A 
ENDROOT
BRANCH   1   8
ATOM      7  C   UNL     1      47.905   9.106  13.174  0.00  0.00    +0.000 C 
ATOM      8  C   UNL     1      47.191   7.949  13.882  0.00  0.00    +0.000 C 
BRANCH   8   9
ATOM      9  N   UNL     1      48.125   7.168  14.673  0.00  0.00    +0.000 N 
ATOM     10  C   UNL     1      48.637   7.603  15.869  0.00  0.00    +0.000 C 
ATOM     11  O   UNL     1      48.308   8.688  16.351  0.00  0.00    +0.000 OA
ATOM     12  H   UNL     1      48.427   6.280  14.285  0.00  0.00    +0.000 HD
BRANCH  10  13
ATOM     13  C   UNL     1      49.604   6.727  16.553  0.00  0.00    +0.000 A 
ATOM     14  C   UNL     1      50.829   7.252  16.952  0.00  0.00    +0.000 A 
ATOM     15  S   UNL     1      51.859   6.120  17.699  0.00  0.00    +0.000 S 
ATOM     16  C   UNL     1      50.711   4.879  17.520  0.00  0.00    +0.000 A 
ATOM     17  N   UNL     1      50.989   3.612  17.934  0.00  0.00    +0.000 NA
ATOM     18  C   UNL     1      50.037   2.764  17.735  0.00  0.00    +0.000 A 
ATOM     19  N   UNL     1      48.828   3.070  17.173  0.00  0.00    +0.000 N 
ATOM     20  C   UNL     1      48.498   4.336  16.751  0.00  0.00    +0.000 A 
ATOM     21  O   UNL     1      47.396   4.574  16.268  0.00  0.00    +0.000 OA
ATOM     22  C   UNL     1      49.545   5.327  16.924  0.00  0.00    +0.000 A 
ATOM     23  H   UNL     1      48.116   2.363  17.056  0.00  0.00    +0.000 HD
ENDBRANCH  10  13
ENDBRANCH   8   9
ENDBRANCH   1   8
BRANCH   4  24
ATOM     24  C   UNL     1      44.345   4.420  10.281  0.00  0.00    +0.000 C 
BRANCH  24  25
ATOM     25  N   UNL     1      45.133   4.087   9.111  0.00  0.00    +0.000 N 
ATOM     26  C   UNL     1      45.375   2.780   8.741  0.00  0.00    +0.000 C 
ATOM     27  O   UNL     1      44.950   1.820   9.364  0.00  0.00    +0.000 OA
ATOM     28  H   UNL     1      45.316   4.844   8.467  0.00  0.00    +0.000 HD
BRANCH  26  29
ATOM     29  C   UNL     1      46.240   2.614   7.547  0.00  0.00    +0.000 A 
ATOM     30  C   UNL     1      46.523   3.725   6.739  0.00  0.00    +0.000 A 
ATOM     31  C   UNL     1      47.337   3.581   5.618  0.00  0.00    +0.000 A 
ATOM     32  C   UNL     1      47.859   2.329   5.347  0.00  0.00    +0.000 A 
ATOM     33  N   UNL     1      47.622   1.241   6.109  0.00  0.00    +0.000 NA
ATOM     34  C   UNL     1      46.824   1.404   7.198  0.00  0.00    +0.000 A 
ATOM     35 CL   UNL     1      46.575  -0.080   8.032  0.00  0.00    +0.000 Cl
ENDBRANCH  26  29
ENDBRANCH  24  25
ENDBRANCH   4  24
TORSDOF 6
ENDMDL
MODEL 6
REMARK VINA RESULT:    -6.976      2.314      3.127
REMARK INTER + INTRA:         -10.409
REMARK INTER:                  -9.346
REMARK INTRA:                  -1.064
REMARK UNBOUND:                -0.987
REMARK  Name = 
REMARK  7 active torsions:
REMARK  status: ('A' for Active; 'I' for Inactive)
REMARK    1  A    between atoms: C_1  and  C_2
REMARK    2  A    between atoms: C_2  and  N_3
REMARK    3  A    between atoms: C_2  and  C_16
REMARK    4  A    between atoms: C_4  and  C_6
REMARK    5  A    between atoms: C_19  and  C_20
REMARK    6  A    between atoms: C_20  and  N_21
REMARK    7  A    between atoms: C_22  and  C_24
REMARK                            x       y       z     vdW  Elec       q    Type
REMARK                         _______ _______ _______ _____ _____    ______ ____
ROOT
ATOM      1  C   UNL     1      49.099   7.883  15.932  0.00  0.00    +0.000 A 
ATOM      2  C   UNL     1      48.527   8.994  15.302  0.00  0.00    +0.000 A 
ATOM      3  C   UNL     1      48.057   8.892  13.995  0.00  0.00    +0.000 A 
ATOM      4  C   UNL     1      48.145   7.666  13.343  0.00  0.00    +0.000 A 
ATOM      5  N   UNL     1      48.689   6.569  13.927  0.00  0.00    +0.000 NA
ATOM      6  C   UNL     1      49.133   6.701  15.199  0.00  0.00    +0.000 A 
ENDROOT
BRANCH   1   8
ATOM      7  C   UNL     1      50.283   9.340  17.647  0.00  0.00    +0.000 C 
ATOM      8  C   UNL     1      49.621   7.990  17.349  0.00  0.00    +0.000 C 
BRANCH   8   9
ATOM      9  N   UNL     1      50.532   6.893  17.623  0.00  0.00    +0.000 N 
ATOM     10  C   UNL     1      50.226   5.863  18.474  0.00  0.00    +0.000 C 
ATOM     11  O   UNL     1      49.136   5.803  19.044  0.00  0.00    +0.000 OA
ATOM     12  H   UNL     1      51.445   6.932  17.182  0.00  0.00    +0.000 HD
BRANCH  10  13
ATOM     13  C   UNL     1      51.256   4.831  18.691  0.00  0.00    +0.000 A 
ATOM     14  C   UNL     1      52.345   5.123  19.506  0.00  0.00    +0.000 A 
ATOM     15  S   UNL     1      53.471   3.852  19.638  0.00  0.00    +0.000 S 
ATOM     16  C   UNL     1      52.550   2.858  18.612  0.00  0.00    +0.000 A 
ATOM     17  N   UNL     1      52.985   1.612  18.279  0.00  0.00    +0.000 NA
ATOM     18  C   UNL     1      52.198   0.964  17.489  0.00  0.00    +0.000 A 
ATOM     19  N   UNL     1      51.008   1.443  17.013  0.00  0.00    +0.000 N 
ATOM     20  C   UNL     1      50.522   2.689  17.330  0.00  0.00    +0.000 A 
ATOM     21  O   UNL     1      49.442   3.075  16.896  0.00  0.00    +0.000 OA
ATOM     22  C   UNL     1      51.383   3.476  18.194  0.00  0.00    +0.000 A 
ATOM     23  H   UNL     1      50.428   0.881  16.406  0.00  0.00    +0.000 HD
ENDBRANCH  10  13
ENDBRANCH   8   9
ENDBRANCH   1   8
BRANCH   4  24
ATOM     24  C   UNL     1      47.645   7.510  11.928  0.00  0.00    +0.000 C 
BRANCH  24  25
ATOM     25  N   UNL     1      46.856   6.306  11.756  0.00  0.00    +0.000 N 
ATOM     26  C   UNL     1      45.505   6.352  11.481  0.00  0.00    +0.000 C 
ATOM     27  O   UNL     1      44.882   7.396  11.364  0.00  0.00    +0.000 OA
ATOM     28  H   UNL     1      47.375   5.448  11.637  0.00  0.00    +0.000 HD
BRANCH  26  29
ATOM     29  C   UNL     1      44.837   5.031  11.383  0.00  0.00    +0.000 A 
ATOM     30  C   UNL     1      44.166   4.511  12.500  0.00  0.00    +0.000 A 
ATOM     31  C   UNL     1      43.532   3.274  12.418  0.00  0.00    +0.000 A 
ATOM     32  C   UNL     1      43.576   2.597  11.212  0.00  0.00    +0.000 A 
ATOM     33  N   UNL     1      44.197   3.072  10.112  0.00  0.00    +0.000 NA
ATOM     34  C   UNL     1      44.810   4.281  10.215  0.00  0.00    +0.000 A 
ATOM     35 CL   UNL     1      45.601   4.720   8.751  0.00  0.00    +0.000 Cl
ENDBRANCH  26  29
ENDBRANCH  24  25
ENDBRANCH   4  24
TORSDOF 6
ENDMDL
MODEL 7
REMARK VINA RESULT:    -6.860      4.282      9.034
REMARK INTER + INTRA:         -10.253
REMARK INTER:                  -9.444
REMARK INTRA:                  -0.809
REMARK UNBOUND:                -0.987
REMARK  Name = 
REMARK  7 active torsions:
REMARK  status: ('A' for Active; 'I' for Inactive)
REMARK    1  A    between atoms: C_1  and  C_2
REMARK    2  A    between atoms: C_2  and  N_3
REMARK    3  A    between atoms: C_2  and  C_16
REMARK    4  A    between atoms: C_4  and  C_6
REMARK    5  A    between atoms: C_19  and  C_20
REMARK    6  A    between atoms: C_20  and  N_21
REMARK    7  A    between atoms: C_22  and  C_24
REMARK                            x       y       z     vdW  Elec       q    Type
REMARK                         _______ _______ _______ _____ _____    ______ ____
ROOT
ATOM      1  C   UNL     1      48.851   6.570  15.574  0.00  0.00    +0.000 A 
ATOM      2  C   UNL     1      50.034   6.869  16.259  0.00  0.00    +0.000 A 
ATOM      3  C   UNL     1      50.406   6.116  17.372  0.00  0.00    +0.000 A 
ATOM      4  C   UNL     1      49.598   5.056  17.768  0.00  0.00    +0.000 A 
ATOM      5  N   UNL     1      48.449   4.738  17.122  0.00  0.00    +0.000 NA
ATOM      6  C   UNL     1      48.116   5.485  16.043  0.00  0.00    +0.000 A 
ENDROOT
BRANCH   1   8
ATOM      7  C   UNL     1      48.292   8.884  14.680  0.00  0.00    +0.000 C 
ATOM      8  C   UNL     1      48.435   7.389  14.371  0.00  0.00    +0.000 C 
BRANCH   8   9
ATOM      9  N   UNL     1      47.207   6.854  13.812  0.00  0.00    +0.000 N 
ATOM     10  C   UNL     1      46.905   6.916  12.475  0.00  0.00    +0.000 C 
ATOM     11  O   UNL     1      47.684   7.418  11.664  0.00  0.00    +0.000 OA
ATOM     12  H   UNL     1      46.539   6.455  14.464  0.00  0.00    +0.000 HD
BRANCH  10  13
ATOM     13  C   UNL     1      45.607   6.366  12.045  0.00  0.00    +0.000 A 
ATOM     14  C   UNL     1      44.671   7.216  11.466  0.00  0.00    +0.000 A 
ATOM     15  S   UNL     1      43.206   6.453  11.050  0.00  0.00    +0.000 S 
ATOM     16  C   UNL     1      43.762   4.954  11.626  0.00  0.00    +0.000 A 
ATOM     17  N   UNL     1      42.958   3.856  11.593  0.00  0.00    +0.000 NA
ATOM     18  C   UNL     1      43.497   2.784  12.066  0.00  0.00    +0.000 A 
ATOM     19  N   UNL     1      44.773   2.705  12.555  0.00  0.00    +0.000 N 
ATOM     20  C   UNL     1      45.625   3.783  12.598  0.00  0.00    +0.000 A 
ATOM     21  O   UNL     1      46.768   3.667  13.029  0.00  0.00    +0.000 OA
ATOM     22  C   UNL     1      45.060   5.026  12.105  0.00  0.00    +0.000 A 
ATOM     23  H   UNL     1      45.143   1.831  12.900  0.00  0.00    +0.000 HD
ENDBRANCH  10  13
ENDBRANCH   8   9
ENDBRANCH   1   8
BRANCH   4  24
ATOM     24  C   UNL     1      49.966   4.214  18.965  0.00  0.00    +0.000 C 
BRANCH  24  25
ATOM     25  N   UNL     1      51.230   3.528  18.783  0.00  0.00    +0.000 N 
ATOM     26  C   UNL     1      51.422   2.604  17.777  0.00  0.00    +0.000 C 
ATOM     27  O   UNL     1      50.552   2.298  16.977  0.00  0.00    +0.000 OA
ATOM     28  H   UNL     1      52.019   3.910  19.286  0.00  0.00    +0.000 HD
BRANCH  26  29
ATOM     29  C   UNL     1      52.758   1.960  17.760  0.00  0.00    +0.000 A 
ATOM     30  C   UNL     1      52.850   0.560  17.775  0.00  0.00    +0.000 A 
ATOM     31  C   UNL     1      54.099  -0.055  17.755  0.00  0.00    +0.000 A 
ATOM     32  C   UNL     1      55.223   0.750  17.705  0.00  0.00    +0.000 A 
ATOM     33  N   UNL     1      55.174   2.098  17.672  0.00  0.00    +0.000 NA
ATOM     34  C   UNL     1      53.944   2.678  17.693  0.00  0.00    +0.000 A 
ATOM     35 CL   UNL     1      54.051   4.395  17.704  0.00  0.00    +0.000 Cl
ENDBRANCH  26  29
ENDBRANCH  24  25
ENDBRANCH   4  24
TORSDOF 6
ENDMDL
MODEL 8
REMARK VINA RESULT:    -6.837      5.986      7.704
REMARK INTER + INTRA:         -10.222
REMARK INTER:                  -9.118
REMARK INTRA:                  -1.105
REMARK UNBOUND:                -0.987
REMARK  Name = 
REMARK  7 active torsions:
REMARK  status: ('A' for Active; 'I' for Inactive)
REMARK    1  A    between atoms: C_1  and  C_2
REMARK    2  A    between atoms: C_2  and  N_3
REMARK    3  A    between atoms: C_2  and  C_16
REMARK    4  A    between atoms: C_4  and  C_6
REMARK    5  A    between atoms: C_19  and  C_20
REMARK    6  A    between atoms: C_20  and  N_21
REMARK    7  A    between atoms: C_22  and  C_24
REMARK                            x       y       z     vdW  Elec       q    Type
REMARK                         _______ _______ _______ _____ _____    ______ ____
ROOT
ATOM      1  C   UNL     1      50.094   9.041  11.717  0.00  0.00    +0.000 A 
ATOM      2  C   UNL     1      48.852   9.682  11.794  0.00  0.00    +0.000 A 
ATOM      3  C   UNL     1      47.733   8.984  12.244  0.00  0.00    +0.000 A 
ATOM      4  C   UNL     1      47.880   7.657  12.635  0.00  0.00    +0.000 A 
ATOM      5  N   UNL     1      49.070   7.010  12.578  0.00  0.00    +0.000 NA
ATOM      6  C   UNL     1      50.139   7.717  12.140  0.00  0.00    +0.000 A 
ENDROOT
BRANCH   1   8
ATOM      7  C   UNL     1      51.091  11.304  11.121  0.00  0.00    +0.000 C 
ATOM      8  C   UNL     1      51.313   9.790  11.219  0.00  0.00    +0.000 C 
BRANCH   8   9
ATOM      9  N   UNL     1      51.740   9.243   9.945  0.00  0.00    +0.000 N 
ATOM     10  C   UNL     1      52.961   8.648   9.758  0.00  0.00    +0.000 C 
ATOM     11  O   UNL     1      53.763   8.526  10.685  0.00  0.00    +0.000 OA
ATOM     12  H   UNL     1      51.104   9.352   9.160  0.00  0.00    +0.000 HD
BRANCH  10  13
ATOM     13  C   UNL     1      53.284   8.167   8.403  0.00  0.00    +0.000 A 
ATOM     14  C   UNL     1      53.352   9.082   7.358  0.00  0.00    +0.000 A 
ATOM     15  S   UNL     1      53.699   8.382   5.845  0.00  0.00    +0.000 S 
ATOM     16  C   UNL     1      53.773   6.825   6.523  0.00  0.00    +0.000 A 
ATOM     17  N   UNL     1      54.007   5.737   5.739  0.00  0.00    +0.000 NA
ATOM     18  C   UNL     1      54.032   4.615   6.375  0.00  0.00    +0.000 A 
ATOM     19  N   UNL     1      53.858   4.483   7.726  0.00  0.00    +0.000 N 
ATOM     20  C   UNL     1      53.631   5.552   8.559  0.00  0.00    +0.000 A 
ATOM     21  O   UNL     1      53.498   5.394   9.768  0.00  0.00    +0.000 OA
ATOM     22  C   UNL     1      53.563   6.840   7.892  0.00  0.00    +0.000 A 
ATOM     23  H   UNL     1      53.902   3.576   8.168  0.00  0.00    +0.000 HD
ENDBRANCH  10  13
ENDBRANCH   8   9
ENDBRANCH   1   8
BRANCH   4  24
ATOM     24  C   UNL     1      46.695   6.867  13.133  0.00  0.00    +0.000 C 
BRANCH  24  25
ATOM     25  N   UNL     1      46.313   5.816  12.210  0.00  0.00    +0.000 N 
ATOM     26  C   UNL     1      45.283   5.977  11.306  0.00  0.00    +0.000 C 
ATOM     27  O   UNL     1      44.626   7.002  11.217  0.00  0.00    +0.000 OA
ATOM     28  H   UNL     1      46.963   5.049  12.115  0.00  0.00    +0.000 HD
BRANCH  26  29
ATOM     29  C   UNL     1      44.990   4.788  10.469  0.00  0.00    +0.000 A 
ATOM     30  C   UNL     1      45.475   4.733   9.153  0.00  0.00    +0.000 A 
ATOM     31  C   UNL     1      45.209   3.619   8.360  0.00  0.00    +0.000 A 
ATOM     32  C   UNL     1      44.475   2.584   8.912  0.00  0.00    +0.000 A 
ATOM     33  N   UNL     1      44.006   2.595  10.178  0.00  0.00    +0.000 NA
ATOM     34  C   UNL     1      44.277   3.691  10.934  0.00  0.00    +0.000 A 
ATOM     35 CL   UNL     1      43.567   3.577  12.497  0.00  0.00    +0.000 Cl
ENDBRANCH  26  29
ENDBRANCH  24  25
ENDBRANCH   4  24
TORSDOF 6
ENDMDL
MODEL 9
REMARK VINA RESULT:    -6.837      5.980      7.301
REMARK INTER + INTRA:         -10.221
REMARK INTER:                  -9.222
REMARK INTRA:                  -1.000
REMARK UNBOUND:                -0.987
REMARK  Name = 
REMARK  7 active torsions:
REMARK  status: ('A' for Active; 'I' for Inactive)
REMARK    1  A    between atoms: C_1  and  C_2
REMARK    2  A    between atoms: C_2  and  N_3
REMARK    3  A    between atoms: C_2  and  C_16
REMARK    4  A    between atoms: C_4  and  C_6
REMARK    5  A    between atoms: C_19  and  C_20
REMARK    6  A    between atoms: C_20  and  N_21
REMARK    7  A    between atoms: C_22  and  C_24
REMARK                            x       y       z     vdW  Elec       q    Type
REMARK                         _______ _______ _______ _____ _____    ______ ____
ROOT
ATOM      1  C   UNL     1      45.494   7.290  12.339  0.00  0.00    +0.000 A 
ATOM      2  C   UNL     1      46.016   8.465  12.892  0.00  0.00    +0.000 A 
ATOM      3  C   UNL     1      45.526   9.705  12.488  0.00  0.00    +0.000 A 
ATOM      4  C   UNL     1      44.499   9.750  11.551  0.00  0.00    +0.000 A 
ATOM      5  N   UNL     1      43.968   8.630  11.001  0.00  0.00    +0.000 NA
ATOM      6  C   UNL     1      44.462   7.440  11.417  0.00  0.00    +0.000 A 
ENDROOT
BRANCH   1   8
ATOM      7  C   UNL     1      44.946   4.856  12.830  0.00  0.00    +0.000 C 
ATOM      8  C   UNL     1      46.028   5.939  12.766  0.00  0.00    +0.000 C 
BRANCH   8   9
ATOM      9  N   UNL     1      46.718   6.062  14.038  0.00  0.00    +0.000 N 
ATOM     10  C   UNL     1      48.082   6.154  14.142  0.00  0.00    +0.000 C 
ATOM     11  O   UNL     1      48.803   6.159  13.144  0.00  0.00    +0.000 OA
ATOM     12  H   UNL     1      46.146   6.037  14.876  0.00  0.00    +0.000 HD
BRANCH  10  13
ATOM     13  C   UNL     1      48.656   6.237  15.497  0.00  0.00    +0.000 A 
ATOM     14  C   UNL     1      49.548   7.263  15.792  0.00  0.00    +0.000 A 
ATOM     15  S   UNL     1      50.157   7.216  17.382  0.00  0.00    +0.000 S 
ATOM     16  C   UNL     1      49.254   5.822  17.743  0.00  0.00    +0.000 A 
ATOM     17  N   UNL     1      49.350   5.231  18.966  0.00  0.00    +0.000 NA
ATOM     18  C   UNL     1      48.619   4.178  19.109  0.00  0.00    +0.000 A 
ATOM     19  N   UNL     1      47.790   3.670  18.146  0.00  0.00    +0.000 N 
ATOM     20  C   UNL     1      47.652   4.238  16.902  0.00  0.00    +0.000 A 
ATOM     21  O   UNL     1      46.885   3.761  16.072  0.00  0.00    +0.000 OA
ATOM     22  C   UNL     1      48.475   5.412  16.674  0.00  0.00    +0.000 A 
ATOM     23  H   UNL     1      47.231   2.847  18.324  0.00  0.00    +0.000 HD
ENDBRANCH  10  13
ENDBRANCH   8   9
ENDBRANCH   1   8
BRANCH   4  24
ATOM     24  C   UNL     1      43.937  11.071  11.089  0.00  0.00    +0.000 C 
BRANCH  24  25
ATOM     25  N   UNL     1      42.552  10.961  10.672  0.00  0.00    +0.000 N 
ATOM     26  C   UNL     1      41.512  11.373  11.479  0.00  0.00    +0.000 C 
ATOM     27  O   UNL     1      41.678  11.853  12.589  0.00  0.00    +0.000 OA
ATOM     28  H   UNL     1      42.397  10.770   9.692  0.00  0.00    +0.000 HD
BRANCH  26  29
ATOM     29  C   UNL     1      40.156  11.147  10.922  0.00  0.00    +0.000 A 
ATOM     30  C   UNL     1      39.284  10.258  11.568  0.00  0.00    +0.000 A 
ATOM     31  C   UNL     1      38.007  10.041  11.057  0.00  0.00    +0.000 A 
ATOM     32  C   UNL     1      37.633  10.733   9.919  0.00  0.00    +0.000 A 
ATOM     33  N   UNL     1      38.438  11.607   9.279  0.00  0.00    +0.000 NA
ATOM     34  C   UNL     1      39.681  11.803   9.795  0.00  0.00    +0.000 A 
ATOM     35 CL   UNL     1      40.600  12.899   8.839  0.00  0.00    +0.000 Cl
ENDBRANCH  26  29
ENDBRANCH  24  25
ENDBRANCH   4  24
TORSDOF 6
ENDMDL
