MODEL 1
REMARK VINA RESULT:    -8.378      0.000      0.000
REMARK INTER + INTRA:         -12.828
REMARK INTER:                 -11.807
REMARK INTRA:                  -1.022
REMARK UNBOUND:                -1.022
REMARK  Name = 
REMARK  7 active torsions:
REMARK  status: ('A' for Active; 'I' for Inactive)
REMARK    1  A    between atoms: C_2  and  C_4
REMARK    2  A    between atoms: C_7  and  O_8
REMARK    3  A    between atoms: O_8  and  C_9
REMARK    4  A    between atoms: C_9  and  C_10
REMARK    5  A    between atoms: C_10  and  C_11
REMARK    6  A    between atoms: C_13  and  O_14
REMARK    7  A    between atoms: O_14  and  C_15
REMARK                            x       y       z     vdW  Elec       q    Type
REMARK                         _______ _______ _______ _____ _____    ______ ____
ROOT
ATOM      1  C   UNL     1      43.409   5.090  12.547  0.00  0.00    +0.000 C 
ENDROOT
BRANCH   1   2
ATOM      2  C   UNL     1      44.866   5.452  12.792  0.00  0.00    +0.000 A 
ATOM      3  C   UNL     1      45.664   4.618  13.611  0.00  0.00    +0.000 A 
ATOM      4  C   UNL     1      47.025   4.888  13.826  0.00  0.00    +0.000 A 
ATOM      5  C   UNL     1      47.614   5.958  13.150  0.00  0.00    +0.000 A 
ATOM      6  C   UNL     1      46.831   6.825  12.389  0.00  0.00    +0.000 A 
ATOM      7  C   UNL     1      45.462   6.595  12.237  0.00  0.00    +0.000 A 
ATOM      8 CL   UNL     1      44.553   7.779  11.371  0.00  0.00    +0.000 Cl
BRANCH   4   9
ATOM      9  O   UNL     1      47.677   4.073  14.727  0.00  0.00    +0.000 OA
BRANCH   9  10
ATOM     10  C   UNL     1      47.375   4.295  16.118  0.00  0.00    +0.000 C 
ATOM     11  C   UNL     1      48.307   5.329  16.717  0.00  0.00    +0.000 C 
ATOM     12  C   UNL     1      49.402   4.533  17.393  0.00  0.00    +0.000 C 
ATOM     13  O   UNL     1      48.946   3.192  17.564  0.00  0.00    +0.000 OA
ATOM     14  C   UNL     1      47.646   3.063  16.978  0.00  0.00    +0.000 C 
ENDBRANCH   9  10
ENDBRANCH   4   9
ENDBRANCH   1   2
BRANCH   1  15
ATOM     15  C   UNL     1      43.232   4.054  11.436  0.00  0.00    +0.000 C 
BRANCH  15  16
ATOM     16  O   UNL     1      43.575   4.600  10.149  0.00  0.00    +0.000 OA
BRANCH  16  20
ATOM     17  C   UNL     1      46.180   2.182   8.051  0.00  0.00    +0.000 A 
ATOM     18  C   UNL     1      46.190   3.539   7.751  0.00  0.00    +0.000 A 
ATOM     19  C   UNL     1      45.320   4.378   8.438  0.00  0.00    +0.000 A 
ATOM     20  C   UNL     1      44.465   3.859   9.411  0.00  0.00    +0.000 A 
ATOM     21  C   UNL     1      44.529   2.487   9.638  0.00  0.00    +0.000 A 
ATOM     22  N   UNL     1      45.359   1.620   8.985  0.00  0.00    +0.000 NA
BRANCH  17  24
ATOM     23  N   UNL     1      48.213   1.888   6.754  0.00  0.00    +0.000 N 
ATOM     24  C   UNL     1      47.117   1.283   7.308  0.00  0.00    +0.000 C 
ATOM     25  O   UNL     1      46.928   0.078   7.197  0.00  0.00    +0.000 OA
ATOM     26  H   UNL     1      48.883   1.328   6.246  0.00  0.00    +0.000 HD
ATOM     27  H   UNL     1      48.350   2.885   6.870  0.00  0.00    +0.000 HD
ENDBRANCH  17  24
ENDBRANCH  16  20
ENDBRANCH  15  16
ENDBRANCH   1  15
TORSDOF 7
ENDMDL
MODEL 2
REMARK VINA RESULT:    -7.629      2.811      4.520
REMARK INTER + INTRA:         -11.772
REMARK INTER:                 -10.740
REMARK INTRA:                  -1.033
REMARK UNBOUND:                -1.022
REMARK  Name = 
REMARK  7 active torsions:
REMARK  status: ('A' for Active; 'I' for Inactive)
REMARK    1  A    between atoms: C_2  and  C_4
REMARK    2  A    between atoms: C_7  and  O_8
REMARK    3  A    between atoms: O_8  and  C_9
REMARK    4  A    between atoms: C_9  and  C_10
REMARK    5  A    between atoms: C_10  and  C_11
REMARK    6  A    between atoms: C_13  and  O_14
REMARK    7  A    between atoms: O_14  and  C_15
REMARK                            x       y       z     vdW  Elec       q    Type
REMARK                         _______ _______ _______ _____ _____    ______ ____
ROOT
ATOM      1  C   UNL     1      43.591   4.941  12.500  0.00  0.00    +0.000 C 
ENDROOT
BRANCH   1   2
ATOM      2  C   UNL     1      44.922   5.619  12.787  0.00  0.00    +0.000 A 
ATOM      3  C   UNL     1      44.987   7.031  12.853  0.00  0.00    +0.000 A 
ATOM      4  C   UNL     1      46.184   7.696  13.161  0.00  0.00    +0.000 A 
ATOM      5  C   UNL     1      47.311   6.939  13.486  0.00  0.00    +0.000 A 
ATOM      6  C   UNL     1      47.282   5.550  13.366  0.00  0.00    +0.000 A 
ATOM      7  C   UNL     1      46.108   4.895  12.987  0.00  0.00    +0.000 A 
ATOM      8 CL   UNL     1      46.196   3.187  12.757  0.00  0.00    +0.000 Cl
BRANCH   4   9
ATOM      9  O   UNL     1      46.156   9.073  13.091  0.00  0.00    +0.000 OA
BRANCH   9  10
ATOM     10  C   UNL     1      45.882   9.637  11.794  0.00  0.00    +0.000 C 
ATOM     11  C   UNL     1      46.869  10.738  11.462  0.00  0.00    +0.000 C 
ATOM     12  C   UNL     1      46.167  12.026  11.836  0.00  0.00    +0.000 C 
ATOM     13  O   UNL     1      44.771  11.761  11.957  0.00  0.00    +0.000 OA
ATOM     14  C   UNL     1      44.541  10.364  11.746  0.00  0.00    +0.000 C 
ENDBRANCH   9  10
ENDBRANCH   4   9
ENDBRANCH   1   2
BRANCH   1  15
ATOM     15  C   UNL     1      43.284   4.841  11.005  0.00  0.00    +0.000 C 
BRANCH  15  16
ATOM     16  O   UNL     1      43.419   3.488  10.530  0.00  0.00    +0.000 OA
BRANCH  16  20
ATOM     17  C   UNL     1      46.361   2.656   7.758  0.00  0.00    +0.000 A 
ATOM     18  C   UNL     1      45.980   3.984   7.902  0.00  0.00    +0.000 A 
ATOM     19  C   UNL     1      44.987   4.295   8.824  0.00  0.00    +0.000 A 
ATOM     20  C   UNL     1      44.400   3.287   9.590  0.00  0.00    +0.000 A 
ATOM     21  C   UNL     1      44.848   1.987   9.371  0.00  0.00    +0.000 A 
ATOM     22  N   UNL     1      45.812   1.629   8.472  0.00  0.00    +0.000 NA
BRANCH  17  24
ATOM     23  N   UNL     1      47.465   3.113   5.643  0.00  0.00    +0.000 N 
ATOM     24  C   UNL     1      47.428   2.326   6.762  0.00  0.00    +0.000 C 
ATOM     25  O   UNL     1      48.226   1.411   6.927  0.00  0.00    +0.000 OA
ATOM     26  H   UNL     1      48.169   2.939   4.939  0.00  0.00    +0.000 HD
ATOM     27  H   UNL     1      46.799   3.869   5.537  0.00  0.00    +0.000 HD
ENDBRANCH  17  24
ENDBRANCH  16  20
ENDBRANCH  15  16
ENDBRANCH   1  15
TORSDOF 7
ENDMDL
MODEL 3
REMARK VINA RESULT:    -7.310      1.376      1.714
REMARK INTER + INTRA:         -11.323
REMARK INTER:                 -10.560
REMARK INTRA:                  -0.764
REMARK UNBOUND:                -1.022
REMARK  Name = 
REMARK  7 active torsions:
REMARK  status: ('A' for Active; 'I' for Inactive)
REMARK    1  A    between atoms: C_2  and  C_4
REMARK    2  A    between atoms: C_7  and  O_8
REMARK    3  A    between atoms: O_8  and  C_9
REMARK    4  A    between atoms: C_9  and  C_10
REMARK    5  A    between atoms: C_10  and  C_11
REMARK    6  A    between atoms: C_13  and  O_14
REMARK    7  A    between atoms: O_14  and  C_15
REMARK                            x       y       z     vdW  Elec       q    Type
REMARK                         _______ _______ _______ _____ _____    ______ ____
ROOT
ATOM      1  C   UNL     1      44.017   5.824  12.282  0.00  0.00    +0.000 C 
ENDROOT
BRANCH   1   2
ATOM      2  C   UNL     1      45.349   6.512  12.534  0.00  0.00    +0.000 A 
ATOM      3  C   UNL     1      46.341   5.855  13.301  0.00  0.00    +0.000 A 
ATOM      4  C   UNL     1      47.602   6.433  13.520  0.00  0.00    +0.000 A 
ATOM      5  C   UNL     1      47.903   7.645  12.898  0.00  0.00    +0.000 A 
ATOM      6  C   UNL     1      46.920   8.336  12.190  0.00  0.00    +0.000 A 
ATOM      7  C   UNL     1      45.642   7.792  12.037  0.00  0.00    +0.000 A 
ATOM      8 CL   UNL     1      44.459   8.765  11.242  0.00  0.00    +0.000 Cl
BRANCH   4   9
ATOM      9  O   UNL     1      48.448   5.754  14.371  0.00  0.00    +0.000 OA
BRANCH   9  10
ATOM     10  C   UNL     1      48.405   6.148  15.756  0.00  0.00    +0.000 C 
ATOM     11  C   UNL     1      49.641   6.939  16.133  0.00  0.00    +0.000 C 
ATOM     12  C   UNL     1      50.580   5.932  16.762  0.00  0.00    +0.000 C 
ATOM     13  O   UNL     1      49.828   4.776  17.122  0.00  0.00    +0.000 OA
ATOM     14  C   UNL     1      48.470   4.953  16.704  0.00  0.00    +0.000 C 
ENDBRANCH   9  10
ENDBRANCH   4   9
ENDBRANCH   1   2
BRANCH   1  15
ATOM     15  C   UNL     1      44.175   4.392  11.767  0.00  0.00    +0.000 C 
BRANCH  15  16
ATOM     16  O   UNL     1      43.697   4.264  10.415  0.00  0.00    +0.000 OA
BRANCH  16  20
ATOM     17  C   UNL     1      46.418   2.836   7.661  0.00  0.00    +0.000 A 
ATOM     18  C   UNL     1      45.742   1.898   8.432  0.00  0.00    +0.000 A 
ATOM     19  C   UNL     1      44.823   2.350   9.372  0.00  0.00    +0.000 A 
ATOM     20  C   UNL     1      44.586   3.717   9.523  0.00  0.00    +0.000 A 
ATOM     21  C   UNL     1      45.314   4.577   8.705  0.00  0.00    +0.000 A 
ATOM     22  N   UNL     1      46.234   4.184   7.774  0.00  0.00    +0.000 NA
BRANCH  17  24
ATOM     23  N   UNL     1      47.424   3.013   5.457  0.00  0.00    +0.000 N 
ATOM     24  C   UNL     1      47.409   2.346   6.652  0.00  0.00    +0.000 C 
ATOM     25  O   UNL     1      48.166   1.408   6.871  0.00  0.00    +0.000 OA
ATOM     26  H   UNL     1      48.077   2.728   4.740  0.00  0.00    +0.000 HD
ATOM     27  H   UNL     1      46.794   3.792   5.307  0.00  0.00    +0.000 HD
ENDBRANCH  17  24
ENDBRANCH  16  20
ENDBRANCH  15  16
ENDBRANCH   1  15
TORSDOF 7
ENDMDL
MODEL 4
REMARK VINA RESULT:    -7.189      3.320      5.717
REMARK INTER + INTRA:         -11.153
REMARK INTER:                 -10.289
REMARK INTRA:                  -0.864
REMARK UNBOUND:                -1.022
REMARK  Name = 
REMARK  7 active torsions:
REMARK  status: ('A' for Active; 'I' for Inactive)
REMARK    1  A    between atoms: C_2  and  C_4
REMARK    2  A    between atoms: C_7  and  O_8
REMARK    3  A    between atoms: O_8  and  C_9
REMARK    4  A    between atoms: C_9  and  C_10
REMARK    5  A    between atoms: C_10  and  C_11
REMARK    6  A    between atoms: C_13  and  O_14
REMARK    7  A    between atoms: O_14  and  C_15
REMARK                            x       y       z     vdW  Elec       q    Type
REMARK                         _______ _______ _______ _____ _____    ______ ____
ROOT
ATOM      1  C   UNL     1      44.530   4.957  12.063  0.00  0.00    +0.000 C 
ENDROOT
BRANCH   1   2
ATOM      2  C   UNL     1      45.000   6.399  12.173  0.00  0.00    +0.000 A 
ATOM      3  C   UNL     1      44.320   7.412  11.457  0.00  0.00    +0.000 A 
ATOM      4  C   UNL     1      44.691   8.763  11.565  0.00  0.00    +0.000 A 
ATOM      5  C   UNL     1      45.702   9.113  12.462  0.00  0.00    +0.000 A 
ATOM      6  C   UNL     1      46.423   8.123  13.129  0.00  0.00    +0.000 A 
ATOM      7  C   UNL     1      46.100   6.775  12.961  0.00  0.00    +0.000 A 
ATOM      8 CL   UNL     1      47.115   5.616  13.738  0.00  0.00    +0.000 Cl
BRANCH   4   9
ATOM      9  O   UNL     1      44.030   9.648  10.741  0.00  0.00    +0.000 OA
BRANCH   9  10
ATOM     10  C   UNL     1      43.690  10.922  11.321  0.00  0.00    +0.000 C 
ATOM     11  C   UNL     1      42.187  11.106  11.383  0.00  0.00    +0.000 C 
ATOM     12  C   UNL     1      41.835  11.913  10.152  0.00  0.00    +0.000 C 
ATOM     13  O   UNL     1      43.025  12.519   9.653  0.00  0.00    +0.000 OA
ATOM     14  C   UNL     1      44.135  12.096  10.453  0.00  0.00    +0.000 C 
ENDBRANCH   9  10
ENDBRANCH   4   9
ENDBRANCH   1   2
BRANCH   1  15
ATOM     15  C   UNL     1      43.521   4.745  10.933  0.00  0.00    +0.000 C 
BRANCH  15  16
ATOM     16  O   UNL     1      43.601   3.409  10.402  0.00  0.00    +0.000 OA
BRANCH  16  20
ATOM     17  C   UNL     1      46.437   2.616   7.510  0.00  0.00    +0.000 A 
ATOM     18  C   UNL     1      45.978   3.924   7.609  0.00  0.00    +0.000 A 
ATOM     19  C   UNL     1      45.018   4.220   8.570  0.00  0.00    +0.000 A 
ATOM     20  C   UNL     1      44.540   3.220   9.418  0.00  0.00    +0.000 A 
ATOM     21  C   UNL     1      45.062   1.941   9.240  0.00  0.00    +0.000 A 
ATOM     22  N   UNL     1      45.998   1.597   8.306  0.00  0.00    +0.000 NA
BRANCH  17  24
ATOM     23  N   UNL     1      47.484   3.121   5.377  0.00  0.00    +0.000 N 
ATOM     24  C   UNL     1      47.469   2.301   6.473  0.00  0.00    +0.000 C 
ATOM     25  O   UNL     1      48.258   1.371   6.586  0.00  0.00    +0.000 OA
ATOM     26  H   UNL     1      48.163   2.959   4.647  0.00  0.00    +0.000 HD
ATOM     27  H   UNL     1      46.826   3.889   5.314  0.00  0.00    +0.000 HD
ENDBRANCH  17  24
ENDBRANCH  16  20
ENDBRANCH  15  16
ENDBRANCH   1  15
TORSDOF 7
ENDMDL
MODEL 5
REMARK VINA RESULT:    -6.953      3.218      4.710
REMARK INTER + INTRA:         -10.819
REMARK INTER:                  -9.985
REMARK INTRA:                  -0.835
REMARK UNBOUND:                -1.022
REMARK  Name = 
REMARK  7 active torsions:
REMARK  status: ('A' for Active; 'I' for Inactive)
REMARK    1  A    between atoms: C_2  and  C_4
REMARK    2  A    between atoms: C_7  and  O_8
REMARK    3  A    between atoms: O_8  and  C_9
REMARK    4  A    between atoms: C_9  and  C_10
REMARK    5  A    between atoms: C_10  and  C_11
REMARK    6  A    between atoms: C_13  and  O_14
REMARK    7  A    between atoms: O_14  and  C_15
REMARK                            x       y       z     vdW  Elec       q    Type
REMARK                         _______ _______ _______ _____ _____    ______ ____
ROOT
ATOM      1  C   UNL     1      45.448   4.917  12.076  0.00  0.00    +0.000 C 
ENDROOT
BRANCH   1   2
ATOM      2  C   UNL     1      46.586   5.788  12.583  0.00  0.00    +0.000 A 
ATOM      3  C   UNL     1      47.060   6.855  11.783  0.00  0.00    +0.000 A 
ATOM      4  C   UNL     1      48.076   7.713  12.232  0.00  0.00    +0.000 A 
ATOM      5  C   UNL     1      48.569   7.553  13.527  0.00  0.00    +0.000 A 
ATOM      6  C   UNL     1      48.159   6.472  14.306  0.00  0.00    +0.000 A 
ATOM      7  C   UNL     1      47.200   5.576  13.828  0.00  0.00    +0.000 A 
ATOM      8 CL   UNL     1      46.835   4.207  14.814  0.00  0.00    +0.000 Cl
BRANCH   4   9
ATOM      9  O   UNL     1      48.533   8.648  11.327  0.00  0.00    +0.000 OA
BRANCH   9  10
ATOM     10  C   UNL     1      49.160   9.819  11.886  0.00  0.00    +0.000 C 
ATOM     11  C   UNL     1      48.516  11.084  11.356  0.00  0.00    +0.000 C 
ATOM     12  C   UNL     1      49.399  11.529  10.210  0.00  0.00    +0.000 C 
ATOM     13  O   UNL     1      50.657  10.866  10.326  0.00  0.00    +0.000 OA
ATOM     14  C   UNL     1      50.612   9.971  11.442  0.00  0.00    +0.000 C 
ENDBRANCH   9  10
ENDBRANCH   4   9
ENDBRANCH   1   2
BRANCH   1  15
ATOM     15  C   UNL     1      44.569   5.626  11.045  0.00  0.00    +0.000 C 
BRANCH  15  16
ATOM     16  O   UNL     1      43.915   4.684  10.174  0.00  0.00    +0.000 OA
BRANCH  16  20
ATOM     17  C   UNL     1      46.507   2.592   7.736  0.00  0.00    +0.000 A 
ATOM     18  C   UNL     1      45.692   1.851   8.584  0.00  0.00    +0.000 A 
ATOM     19  C   UNL     1      44.812   2.528   9.421  0.00  0.00    +0.000 A 
ATOM     20  C   UNL     1      44.751   3.922   9.396  0.00  0.00    +0.000 A 
ATOM     21  C   UNL     1      45.609   4.574   8.513  0.00  0.00    +0.000 A 
ATOM     22  N   UNL     1      46.496   3.956   7.678  0.00  0.00    +0.000 NA
BRANCH  17  24
ATOM     23  N   UNL     1      48.502   2.591   6.351  0.00  0.00    +0.000 N 
ATOM     24  C   UNL     1      47.454   1.859   6.839  0.00  0.00    +0.000 C 
ATOM     25  O   UNL     1      47.312   0.676   6.553  0.00  0.00    +0.000 OA
ATOM     26  H   UNL     1      49.176   2.146   5.744  0.00  0.00    +0.000 HD
ATOM     27  H   UNL     1      48.600   3.566   6.612  0.00  0.00    +0.000 HD
ENDBRANCH  17  24
ENDBRANCH  16  20
ENDBRANCH  15  16
ENDBRANCH   1  15
TORSDOF 7
ENDMDL
MODEL 6
REMARK VINA RESULT:    -6.410      2.944      4.118
REMARK INTER + INTRA:         -10.055
REMARK INTER:                  -8.861
REMARK INTRA:                  -1.194
REMARK UNBOUND:                -1.022
REMARK  Name = 
REMARK  7 active torsions:
REMARK  status: ('A' for Active; 'I' for Inactive)
REMARK    1  A    between atoms: C_2  and  C_4
REMARK    2  A    between atoms: C_7  and  O_8
REMARK    3  A    between atoms: O_8  and  C_9
REMARK    4  A    between atoms: C_9  and  C_10
REMARK    5  A    between atoms: C_10  and  C_11
REMARK    6  A    between atoms: C_13  and  O_14
REMARK    7  A    between atoms: O_14  and  C_15
REMARK                            x       y       z     vdW  Elec       q    Type
REMARK                         _______ _______ _______ _____ _____    ______ ____
ROOT
ATOM      1  C   UNL     1      46.339   9.823  12.295  0.00  0.00    +0.000 C 
ENDROOT
BRANCH   1   2
ATOM      2  C   UNL     1      47.621   9.008  12.372  0.00  0.00    +0.000 A 
ATOM      3  C   UNL     1      47.672   7.864  13.203  0.00  0.00    +0.000 A 
ATOM      4  C   UNL     1      48.818   7.055  13.269  0.00  0.00    +0.000 A 
ATOM      5  C   UNL     1      49.896   7.347  12.432  0.00  0.00    +0.000 A 
ATOM      6  C   UNL     1      49.888   8.504  11.653  0.00  0.00    +0.000 A 
ATOM      7  C   UNL     1      48.774   9.347  11.646  0.00  0.00    +0.000 A 
ATOM      8 CL   UNL     1      48.895  10.810  10.739  0.00  0.00    +0.000 Cl
BRANCH   4   9
ATOM      9  O   UNL     1      48.795   6.032  14.192  0.00  0.00    +0.000 OA
BRANCH   9  10
ATOM     10  C   UNL     1      47.492   5.530  14.550  0.00  0.00    +0.000 C 
ATOM     11  C   UNL     1      47.494   4.973  15.959  0.00  0.00    +0.000 C 
ATOM     12  C   UNL     1      47.691   3.481  15.797  0.00  0.00    +0.000 C 
ATOM     13  O   UNL     1      47.396   3.131  14.446  0.00  0.00    +0.000 OA
ATOM     14  C   UNL     1      47.083   4.321  13.713  0.00  0.00    +0.000 C 
ENDBRANCH   9  10
ENDBRANCH   4   9
ENDBRANCH   1   2
BRANCH   1  15
ATOM     15  C   UNL     1      45.087   8.993  12.579  0.00  0.00    +0.000 C 
BRANCH  15  16
ATOM     16  O   UNL     1      44.473   8.534  11.360  0.00  0.00    +0.000 OA
BRANCH  16  20
ATOM     17  C   UNL     1      44.072   4.447  10.950  0.00  0.00    +0.000 A 
ATOM     18  C   UNL     1      45.336   4.985  10.744  0.00  0.00    +0.000 A 
ATOM     19  C   UNL     1      45.501   6.360  10.871  0.00  0.00    +0.000 A 
ATOM     20  C   UNL     1      44.416   7.171  11.205  0.00  0.00    +0.000 A 
ATOM     21  C   UNL     1      43.189   6.536  11.390  0.00  0.00    +0.000 A 
ATOM     22  N   UNL     1      42.974   5.193  11.269  0.00  0.00    +0.000 NA
BRANCH  17  24
ATOM     23  N   UNL     1      43.618   2.287  11.966  0.00  0.00    +0.000 N 
ATOM     24  C   UNL     1      43.898   2.967  10.811  0.00  0.00    +0.000 C 
ATOM     25  O   UNL     1      43.996   2.388   9.736  0.00  0.00    +0.000 OA
ATOM     26  H   UNL     1      43.485   1.286  11.931  0.00  0.00    +0.000 HD
ATOM     27  H   UNL     1      43.533   2.793  12.840  0.00  0.00    +0.000 HD
ENDBRANCH  17  24
ENDBRANCH  16  20
ENDBRANCH  15  16
ENDBRANCH   1  15
TORSDOF 7
ENDMDL
MODEL 7
REMARK VINA RESULT:    -6.313      3.131      7.575
REMARK INTER + INTRA:          -9.917
REMARK INTER:                  -9.018
REMARK INTRA:                  -0.899
REMARK UNBOUND:                -1.022
REMARK  Name = 
REMARK  7 active torsions:
REMARK  status: ('A' for Active; 'I' for Inactive)
REMARK    1  A    between atoms: C_2  and  C_4
REMARK    2  A    between atoms: C_7  and  O_8
REMARK    3  A    between atoms: O_8  and  C_9
REMARK    4  A    between atoms: C_9  and  C_10
REMARK    5  A    between atoms: C_10  and  C_11
REMARK    6  A    between atoms: C_13  and  O_14
REMARK    7  A    between atoms: O_14  and  C_15
REMARK                            x       y       z     vdW  Elec       q    Type
REMARK                         _______ _______ _______ _____ _____    ______ ____
ROOT
ATOM      1  C   UNL     1      48.315   8.228  12.192  0.00  0.00    +0.000 C 
ENDROOT
BRANCH   1   2
ATOM      2  C   UNL     1      46.922   7.697  11.889  0.00  0.00    +0.000 A 
ATOM      3  C   UNL     1      46.743   6.319  11.623  0.00  0.00    +0.000 A 
ATOM      4  C   UNL     1      45.469   5.777  11.385  0.00  0.00    +0.000 A 
ATOM      5  C   UNL     1      44.353   6.609  11.494  0.00  0.00    +0.000 A 
ATOM      6  C   UNL     1      44.515   7.979  11.695  0.00  0.00    +0.000 A 
ATOM      7  C   UNL     1      45.790   8.527  11.857  0.00  0.00    +0.000 A 
ATOM      8 CL   UNL     1      45.902  10.244  11.990  0.00  0.00    +0.000 Cl
BRANCH   4   9
ATOM      9  O   UNL     1      45.425   4.446  11.030  0.00  0.00    +0.000 OA
BRANCH   9  10
ATOM     10  C   UNL     1      44.595   4.118   9.899  0.00  0.00    +0.000 C 
ATOM     11  C   UNL     1      44.259   2.640   9.884  0.00  0.00    +0.000 C 
ATOM     12  C   UNL     1      45.266   2.014   8.942  0.00  0.00    +0.000 C 
ATOM     13  O   UNL     1      45.846   3.048   8.149  0.00  0.00    +0.000 OA
ATOM     14  C   UNL     1      45.319   4.310   8.569  0.00  0.00    +0.000 C 
ENDBRANCH   9  10
ENDBRANCH   4   9
ENDBRANCH   1   2
BRANCH   1  15
ATOM     15  C   UNL     1      49.130   7.288  13.081  0.00  0.00    +0.000 C 
BRANCH  15  16
ATOM     16  O   UNL     1      49.050   7.674  14.466  0.00  0.00    +0.000 OA
BRANCH  16  20
ATOM     17  C   UNL     1      48.001   4.538  16.935  0.00  0.00    +0.000 A 
ATOM     18  C   UNL     1      48.810   5.529  17.476  0.00  0.00    +0.000 A 
ATOM     19  C   UNL     1      49.185   6.596  16.666  0.00  0.00    +0.000 A 
ATOM     20  C   UNL     1      48.744   6.664  15.344  0.00  0.00    +0.000 A 
ATOM     21  C   UNL     1      47.937   5.620  14.895  0.00  0.00    +0.000 A 
ATOM     22  N   UNL     1      47.549   4.547  15.647  0.00  0.00    +0.000 NA
BRANCH  17  24
ATOM     23  N   UNL     1      48.392   3.172  18.905  0.00  0.00    +0.000 N 
ATOM     24  C   UNL     1      47.602   3.390  17.809  0.00  0.00    +0.000 C 
ATOM     25  O   UNL     1      46.629   2.684  17.571  0.00  0.00    +0.000 OA
ATOM     26  H   UNL     1      48.166   2.413  19.534  0.00  0.00    +0.000 HD
ATOM     27  H   UNL     1      49.184   3.778  19.084  0.00  0.00    +0.000 HD
ENDBRANCH  17  24
ENDBRANCH  16  20
ENDBRANCH  15  16
ENDBRANCH   1  15
TORSDOF 7
ENDMDL
MODEL 8
REMARK VINA RESULT:    -6.283      3.476      7.167
REMARK INTER + INTRA:          -9.876
REMARK INTER:                  -8.839
REMARK INTRA:                  -1.037
REMARK UNBOUND:                -1.022
REMARK  Name = 
REMARK  7 active torsions:
REMARK  status: ('A' for Active; 'I' for Inactive)
REMARK    1  A    between atoms: C_2  and  C_4
REMARK    2  A    between atoms: C_7  and  O_8
REMARK    3  A    between atoms: O_8  and  C_9
REMARK    4  A    between atoms: C_9  and  C_10
REMARK    5  A    between atoms: C_10  and  C_11
REMARK    6  A    between atoms: C_13  and  O_14
REMARK    7  A    between atoms: O_14  and  C_15
REMARK                            x       y       z     vdW  Elec       q    Type
REMARK                         _______ _______ _______ _____ _____    ______ ____
ROOT
ATOM      1  C   UNL     1      49.049   7.829  11.725  0.00  0.00    +0.000 C 
ENDROOT
BRANCH   1   2
ATOM      2  C   UNL     1      47.531   7.909  11.771  0.00  0.00    +0.000 A 
ATOM      3  C   UNL     1      46.761   6.779  11.407  0.00  0.00    +0.000 A 
ATOM      4  C   UNL     1      45.359   6.794  11.479  0.00  0.00    +0.000 A 
ATOM      5  C   UNL     1      44.723   7.922  11.999  0.00  0.00    +0.000 A 
ATOM      6  C   UNL     1      45.461   9.066  12.304  0.00  0.00    +0.000 A 
ATOM      7  C   UNL     1      46.850   9.073  12.161  0.00  0.00    +0.000 A 
ATOM      8 CL   UNL     1      47.667  10.564  12.456  0.00  0.00    +0.000 Cl
BRANCH   4   9
ATOM      9  O   UNL     1      44.708   5.677  10.998  0.00  0.00    +0.000 OA
BRANCH   9  10
ATOM     10  C   UNL     1      45.181   4.407  11.487  0.00  0.00    +0.000 C 
ATOM     11  C   UNL     1      44.505   3.261  10.761  0.00  0.00    +0.000 C 
ATOM     12  C   UNL     1      43.363   2.841  11.661  0.00  0.00    +0.000 C 
ATOM     13  O   UNL     1      43.597   3.369  12.965  0.00  0.00    +0.000 OA
ATOM     14  C   UNL     1      44.790   4.160  12.941  0.00  0.00    +0.000 C 
ENDBRANCH   9  10
ENDBRANCH   4   9
ENDBRANCH   1   2
BRANCH   1  15
ATOM     15  C   UNL     1      49.657   7.289  13.020  0.00  0.00    +0.000 C 
BRANCH  15  16
ATOM     16  O   UNL     1      48.910   7.723  14.172  0.00  0.00    +0.000 OA
BRANCH  16  20
ATOM     17  C   UNL     1      47.864   4.666  16.739  0.00  0.00    +0.000 A 
ATOM     18  C   UNL     1      48.660   5.682  17.252  0.00  0.00    +0.000 A 
ATOM     19  C   UNL     1      49.033   6.724  16.409  0.00  0.00    +0.000 A 
ATOM     20  C   UNL     1      48.604   6.741  15.082  0.00  0.00    +0.000 A 
ATOM     21  C   UNL     1      47.811   5.676  14.662  0.00  0.00    +0.000 A 
ATOM     22  N   UNL     1      47.425   4.627  15.447  0.00  0.00    +0.000 NA
BRANCH  17  24
ATOM     23  N   UNL     1      48.220   3.402  18.783  0.00  0.00    +0.000 N 
ATOM     24  C   UNL     1      47.467   3.546  17.649  0.00  0.00    +0.000 C 
ATOM     25  O   UNL     1      46.526   2.799  17.407  0.00  0.00    +0.000 OA
ATOM     26  H   UNL     1      47.993   2.665  19.437  0.00  0.00    +0.000 HD
ATOM     27  H   UNL     1      48.986   4.040  18.963  0.00  0.00    +0.000 HD
ENDBRANCH  17  24
ENDBRANCH  16  20
ENDBRANCH  15  16
ENDBRANCH   1  15
TORSDOF 7
ENDMDL
MODEL 9
REMARK VINA RESULT:    -6.204      1.631      2.142
REMARK INTER + INTRA:          -9.765
REMARK INTER:                  -9.427
REMARK INTRA:                  -0.338
REMARK UNBOUND:                -1.022
REMARK  Name = 
REMARK  7 active torsions:
REMARK  status: ('A' for Active; 'I' for Inactive)
REMARK    1  A    between atoms: C_2  and  C_4
REMARK    2  A    between atoms: C_7  and  O_8
REMARK    3  A    between atoms: O_8  and  C_9
REMARK    4  A    between atoms: C_9  and  C_10
REMARK    5  A    between atoms: C_10  and  C_11
REMARK    6  A    between atoms: C_13  and  O_14
REMARK    7  A    between atoms: O_14  and  C_15
REMARK                            x       y       z     vdW  Elec       q    Type
REMARK                         _______ _______ _______ _____ _____    ______ ____
ROOT
ATOM      1  C   UNL     1      46.006   4.418  11.997  0.00  0.00    +0.000 C 
ENDROOT
BRANCH   1   2
ATOM      2  C   UNL     1      46.827   5.198  13.011  0.00  0.00    +0.000 A 
ATOM      3  C   UNL     1      46.931   4.722  14.340  0.00  0.00    +0.000 A 
ATOM      4  C   UNL     1      47.716   5.385  15.297  0.00  0.00    +0.000 A 
ATOM      5  C   UNL     1      48.471   6.490  14.900  0.00  0.00    +0.000 A 
ATOM      6  C   UNL     1      48.335   7.008  13.613  0.00  0.00    +0.000 A 
ATOM      7  C   UNL     1      47.494   6.389  12.684  0.00  0.00    +0.000 A 
ATOM      8 CL   UNL     1      47.302   7.163  11.154  0.00  0.00    +0.000 Cl
BRANCH   4   9
ATOM      9  O   UNL     1      47.657   4.895  16.585  0.00  0.00    +0.000 OA
BRANCH   9  10
ATOM     10  C   UNL     1      48.782   5.200  17.432  0.00  0.00    +0.000 C 
ATOM     11  C   UNL     1      49.291   3.952  18.126  0.00  0.00    +0.000 C 
ATOM     12  C   UNL     1      48.643   3.967  19.494  0.00  0.00    +0.000 C 
ATOM     13  O   UNL     1      48.161   5.285  19.751  0.00  0.00    +0.000 OA
ATOM     14  C   UNL     1      48.404   6.104  18.602  0.00  0.00    +0.000 C 
ENDBRANCH   9  10
ENDBRANCH   4   9
ENDBRANCH   1   2
BRANCH   1  15
ATOM     15  C   UNL     1      44.660   5.077  11.688  0.00  0.00    +0.000 C 
BRANCH  15  16
ATOM     16  O   UNL     1      43.958   4.374  10.645  0.00  0.00    +0.000 OA
BRANCH  16  20
ATOM     17  C   UNL     1      46.391   2.896   7.656  0.00  0.00    +0.000 A 
ATOM     18  C   UNL     1      45.758   1.970   8.477  0.00  0.00    +0.000 A 
ATOM     19  C   UNL     1      44.936   2.439   9.496  0.00  0.00    +0.000 A 
ATOM     20  C   UNL     1      44.751   3.810   9.676  0.00  0.00    +0.000 A 
ATOM     21  C   UNL     1      45.430   4.657   8.803  0.00  0.00    +0.000 A 
ATOM     22  N   UNL     1      46.254   4.248   7.793  0.00  0.00    +0.000 NA
BRANCH  17  24
ATOM     23  N   UNL     1      47.317   3.149   5.425  0.00  0.00    +0.000 N 
ATOM     24  C   UNL     1      47.276   2.388   6.562  0.00  0.00    +0.000 C 
ATOM     25  O   UNL     1      47.930   1.357   6.666  0.00  0.00    +0.000 OA
ATOM     26  H   UNL     1      47.903   2.856   4.655  0.00  0.00    +0.000 HD
ATOM     27  H   UNL     1      46.774   4.002   5.370  0.00  0.00    +0.000 HD
ENDBRANCH  17  24
ENDBRANCH  16  20
ENDBRANCH  15  16
ENDBRANCH   1  15
TORSDOF 7
ENDMDL
