MODEL 1
REMARK VINA RESULT:    -7.512      0.000      0.000
REMARK INTER + INTRA:          -9.509
REMARK INTER:                  -9.268
REMARK INTRA:                  -0.241
REMARK UNBOUND:                -0.241
REMARK  Name = 
REMARK  4 active torsions:
REMARK  status: ('A' for Active; 'I' for Inactive)
REMARK    1  A    between atoms: C_5  and  O_6
REMARK    2  A    between atoms: O_6  and  C_7
REMARK    3  A    between atoms: C_7  and  C_8
REMARK    4  A    between atoms: C_13  and  C_14
REMARK                            x       y       z     vdW  Elec       q    Type
REMARK                         _______ _______ _______ _____ _____    ______ ____
ROOT
ATOM      1  C   UNL     1      45.158   5.181  12.162  0.00  0.00    +0.000 A 
ATOM      2  C   UNL     1      45.586   4.412  13.252  0.00  0.00    +0.000 A 
ATOM      3  C   UNL     1      46.817   4.658  13.856  0.00  0.00    +0.000 A 
ATOM      4 CL   UNL     1      47.320   3.682  15.183  0.00  0.00    +0.000 Cl
ATOM      5  C   UNL     1      47.651   5.676  13.391  0.00  0.00    +0.000 A 
ATOM      6  C   UNL     1      47.250   6.482  12.317  0.00  0.00    +0.000 A 
ATOM      7  C   UNL     1      46.001   6.219  11.742  0.00  0.00    +0.000 A 
ENDROOT
BRANCH   6   8
ATOM      8  C   UNL     1      48.162   7.587  11.800  0.00  0.00    +0.000 C 
ATOM      9  C   UNL     1      49.637   7.406  12.187  0.00  0.00    +0.000 C 
ATOM     10  C   UNL     1      49.974   7.890  13.598  0.00  0.00    +0.000 C 
ATOM     11  N   UNL     1      49.496   9.245  13.869  0.00  0.00    +0.000 NA
ATOM     12  C   UNL     1      48.074   9.429  13.586  0.00  0.00    +0.000 C 
ATOM     13  C   UNL     1      47.683   8.999  12.172  0.00  0.00    +0.000 C 
ATOM     14  H   UNL     1      50.031   9.899  13.299  0.00  0.00    +0.000 HD
ENDBRANCH   6   8
BRANCH   1  15
ATOM     15  C   UNL     1      43.850   4.914  11.443  0.00  0.00    +0.000 C 
ATOM     16  C   UNL     1      42.528   5.271  12.124  0.00  0.00    +0.000 C 
ATOM     17  C   UNL     1      43.024   6.104  10.994  0.00  0.00    +0.000 C 
BRANCH  15  18
ATOM     18  O   UNL     1      43.748   3.633  10.775  0.00  0.00    +0.000 OA
BRANCH  18  23
ATOM     19 CL   UNL     1      46.989   2.378   6.179  0.00  0.00    +0.000 Cl
ATOM     20  C   UNL     1      46.144   2.780   7.606  0.00  0.00    +0.000 A 
ATOM     21  C   UNL     1      45.797   4.077   7.911  0.00  0.00    +0.000 A 
ATOM     22  N   UNL     1      45.068   4.415   8.991  0.00  0.00    +0.000 NA
ATOM     23  C   UNL     1      44.669   3.400   9.778  0.00  0.00    +0.000 A 
ATOM     24  N   UNL     1      44.988   2.104   9.603  0.00  0.00    +0.000 NA
ATOM     25  C   UNL     1      45.732   1.829   8.508  0.00  0.00    +0.000 A 
ENDBRANCH  18  23
ENDBRANCH  15  18
ENDBRANCH   1  15
TORSDOF 4
ENDMDL
MODEL 2
REMARK VINA RESULT:    -7.041      3.150      4.088
REMARK INTER + INTRA:          -8.928
REMARK INTER:                  -8.451
REMARK INTRA:                  -0.477
REMARK UNBOUND:                -0.241
REMARK  Name = 
REMARK  4 active torsions:
REMARK  status: ('A' for Active; 'I' for Inactive)
REMARK    1  A    between atoms: C_5  and  O_6
REMARK    2  A    between atoms: O_6  and  C_7
REMARK    3  A    between atoms: C_7  and  C_8
REMARK    4  A    between atoms: C_13  and  C_14
REMARK                            x       y       z     vdW  Elec       q    Type
REMARK                         _______ _______ _______ _____ _____    ______ ____
ROOT
ATOM      1  C   UNL     1      44.546   6.854  12.030  0.00  0.00    +0.000 A 
ATOM      2  C   UNL     1      45.620   7.195  12.862  0.00  0.00    +0.000 A 
ATOM      3  C   UNL     1      46.141   8.487  12.858  0.00  0.00    +0.000 A 
ATOM      4 CL   UNL     1      47.473   8.868  13.881  0.00  0.00    +0.000 Cl
ATOM      5  C   UNL     1      45.605   9.471  12.025  0.00  0.00    +0.000 A 
ATOM      6  C   UNL     1      44.516   9.177  11.195  0.00  0.00    +0.000 A 
ATOM      7  C   UNL     1      44.006   7.874  11.233  0.00  0.00    +0.000 A 
ENDROOT
BRANCH   6   8
ATOM      8  C   UNL     1      43.935  10.245  10.277  0.00  0.00    +0.000 C 
ATOM      9  C   UNL     1      44.658  11.597  10.364  0.00  0.00    +0.000 C 
ATOM     10  C   UNL     1      44.211  12.468  11.538  0.00  0.00    +0.000 C 
ATOM     11  N   UNL     1      42.759  12.614  11.625  0.00  0.00    +0.000 NA
ATOM     12  C   UNL     1      42.044  11.339  11.626  0.00  0.00    +0.000 C 
ATOM     13  C   UNL     1      42.420  10.440  10.449  0.00  0.00    +0.000 C 
ATOM     14  H   UNL     1      42.440  13.169  10.831  0.00  0.00    +0.000 HD
ENDBRANCH   6   8
BRANCH   1  15
ATOM     15  C   UNL     1      43.982   5.448  11.966  0.00  0.00    +0.000 C 
ATOM     16  C   UNL     1      42.968   4.993  13.016  0.00  0.00    +0.000 C 
ATOM     17  C   UNL     1      42.513   5.280  11.627  0.00  0.00    +0.000 C 
BRANCH  15  18
ATOM     18  O   UNL     1      44.941   4.396  11.696  0.00  0.00    +0.000 OA
BRANCH  18  23
ATOM     19 CL   UNL     1      46.319   2.880   6.310  0.00  0.00    +0.000 Cl
ATOM     20  C   UNL     1      45.782   3.343   7.863  0.00  0.00    +0.000 A 
ATOM     21  C   UNL     1      45.239   2.440   8.750  0.00  0.00    +0.000 A 
ATOM     22  N   UNL     1      44.875   2.761  10.005  0.00  0.00    +0.000 NA
ATOM     23  C   UNL     1      45.083   4.038  10.374  0.00  0.00    +0.000 A 
ATOM     24  N   UNL     1      45.561   5.013   9.579  0.00  0.00    +0.000 NA
ATOM     25  C   UNL     1      45.896   4.631   8.325  0.00  0.00    +0.000 A 
ENDBRANCH  18  23
ENDBRANCH  15  18
ENDBRANCH   1  15
TORSDOF 4
ENDMDL
MODEL 3
REMARK VINA RESULT:    -7.028      3.243      6.913
REMARK INTER + INTRA:          -8.912
REMARK INTER:                  -8.440
REMARK INTRA:                  -0.472
REMARK UNBOUND:                -0.241
REMARK  Name = 
REMARK  4 active torsions:
REMARK  status: ('A' for Active; 'I' for Inactive)
REMARK    1  A    between atoms: C_5  and  O_6
REMARK    2  A    between atoms: O_6  and  C_7
REMARK    3  A    between atoms: C_7  and  C_8
REMARK    4  A    between atoms: C_13  and  C_14
REMARK                            x       y       z     vdW  Elec       q    Type
REMARK                         _______ _______ _______ _____ _____    ______ ____
ROOT
ATOM      1  C   UNL     1      47.012   7.622  12.104  0.00  0.00    +0.000 A 
ATOM      2  C   UNL     1      46.418   8.890  12.135  0.00  0.00    +0.000 A 
ATOM      3  C   UNL     1      45.082   9.059  11.777  0.00  0.00    +0.000 A 
ATOM      4 CL   UNL     1      44.388  10.635  11.811  0.00  0.00    +0.000 Cl
ATOM      5  C   UNL     1      44.306   7.969  11.380  0.00  0.00    +0.000 A 
ATOM      6  C   UNL     1      44.856   6.681  11.356  0.00  0.00    +0.000 A 
ATOM      7  C   UNL     1      46.197   6.543  11.736  0.00  0.00    +0.000 A 
ENDROOT
BRANCH   6   8
ATOM      8  C   UNL     1      44.015   5.491  10.913  0.00  0.00    +0.000 C 
ATOM      9  C   UNL     1      42.790   5.232  11.802  0.00  0.00    +0.000 C 
ATOM     10  C   UNL     1      43.101   4.444  13.075  0.00  0.00    +0.000 C 
ATOM     11  N   UNL     1      43.866   3.224  12.824  0.00  0.00    +0.000 NA
ATOM     12  C   UNL     1      45.083   3.449  12.047  0.00  0.00    +0.000 C 
ATOM     13  C   UNL     1      44.829   4.199  10.739  0.00  0.00    +0.000 C 
ATOM     14  H   UNL     1      43.273   2.565  12.321  0.00  0.00    +0.000 HD
ENDBRANCH   6   8
BRANCH   1  15
ATOM     15  C   UNL     1      48.475   7.402  12.436  0.00  0.00    +0.000 C 
ATOM     16  C   UNL     1      49.551   7.877  11.459  0.00  0.00    +0.000 C 
ATOM     17  C   UNL     1      49.333   8.618  12.732  0.00  0.00    +0.000 C 
BRANCH  15  18
ATOM     18  O   UNL     1      48.812   6.098  12.969  0.00  0.00    +0.000 OA
BRANCH  18  23
ATOM     19 CL   UNL     1      47.843   4.531  18.429  0.00  0.00    +0.000 Cl
ATOM     20  C   UNL     1      48.040   5.095  16.830  0.00  0.00    +0.000 A 
ATOM     21  C   UNL     1      48.901   6.123  16.517  0.00  0.00    +0.000 A 
ATOM     22  N   UNL     1      49.131   6.540  15.258  0.00  0.00    +0.000 NA
ATOM     23  C   UNL     1      48.474   5.881  14.286  0.00  0.00    +0.000 A 
ATOM     24  N   UNL     1      47.577   4.897  14.479  0.00  0.00    +0.000 NA
ATOM     25  C   UNL     1      47.379   4.531  15.766  0.00  0.00    +0.000 A 
ENDBRANCH  18  23
ENDBRANCH  15  18
ENDBRANCH   1  15
TORSDOF 4
ENDMDL
MODEL 4
REMARK VINA RESULT:    -7.027      2.324      3.096
REMARK INTER + INTRA:          -8.912
REMARK INTER:                  -8.277
REMARK INTRA:                  -0.634
REMARK UNBOUND:                -0.241
REMARK  Name = 
REMARK  4 active torsions:
REMARK  status: ('A' for Active; 'I' for Inactive)
REMARK    1  A    between atoms: C_5  and  O_6
REMARK    2  A    between atoms: O_6  and  C_7
REMARK    3  A    between atoms: C_7  and  C_8
REMARK    4  A    between atoms: C_13  and  C_14
REMARK                            x       y       z     vdW  Elec       q    Type
REMARK                         _______ _______ _______ _____ _____    ______ ____
ROOT
ATOM      1  C   UNL     1      44.531   6.835  11.989  0.00  0.00    +0.000 A 
ATOM      2  C   UNL     1      43.971   7.885  11.252  0.00  0.00    +0.000 A 
ATOM      3  C   UNL     1      44.488   9.176  11.345  0.00  0.00    +0.000 A 
ATOM      4 CL   UNL     1      43.764  10.447  10.437  0.00  0.00    +0.000 Cl
ATOM      5  C   UNL     1      45.578   9.450  12.174  0.00  0.00    +0.000 A 
ATOM      6  C   UNL     1      46.181   8.423  12.910  0.00  0.00    +0.000 A 
ATOM      7  C   UNL     1      45.646   7.135  12.784  0.00  0.00    +0.000 A 
ENDROOT
BRANCH   6   8
ATOM      8  C   UNL     1      47.363   8.721  13.824  0.00  0.00    +0.000 C 
ATOM      9  C   UNL     1      48.295   9.820  13.294  0.00  0.00    +0.000 C 
ATOM     10  C   UNL     1      49.311   9.330  12.262  0.00  0.00    +0.000 C 
ATOM     11  N   UNL     1      50.050   8.147  12.700  0.00  0.00    +0.000 NA
ATOM     12  C   UNL     1      49.187   7.050  13.136  0.00  0.00    +0.000 C 
ATOM     13  C   UNL     1      48.175   7.471  14.201  0.00  0.00    +0.000 C 
ATOM     14  H   UNL     1      50.660   8.411  13.472  0.00  0.00    +0.000 HD
ENDBRANCH   6   8
BRANCH   1  15
ATOM     15  C   UNL     1      43.967   5.428  11.956  0.00  0.00    +0.000 C 
ATOM     16  C   UNL     1      42.960   4.993  13.022  0.00  0.00    +0.000 C 
ATOM     17  C   UNL     1      42.496   5.253  11.631  0.00  0.00    +0.000 C 
BRANCH  15  18
ATOM     18  O   UNL     1      44.924   4.371  11.699  0.00  0.00    +0.000 OA
BRANCH  18  23
ATOM     19 CL   UNL     1      46.349   2.854   6.326  0.00  0.00    +0.000 Cl
ATOM     20  C   UNL     1      45.798   3.313   7.875  0.00  0.00    +0.000 A 
ATOM     21  C   UNL     1      45.279   2.402   8.768  0.00  0.00    +0.000 A 
ATOM     22  N   UNL     1      44.905   2.722  10.020  0.00  0.00    +0.000 NA
ATOM     23  C   UNL     1      45.077   4.007  10.380  0.00  0.00    +0.000 A 
ATOM     24  N   UNL     1      45.530   4.989   9.578  0.00  0.00    +0.000 NA
ATOM     25  C   UNL     1      45.876   4.607   8.328  0.00  0.00    +0.000 A 
ENDBRANCH  18  23
ENDBRANCH  15  18
ENDBRANCH   1  15
TORSDOF 4
ENDMDL
MODEL 5
REMARK VINA RESULT:    -6.479      3.209      7.524
REMARK INTER + INTRA:          -8.235
REMARK INTER:                  -7.991
REMARK INTRA:                  -0.244
REMARK UNBOUND:                -0.241
REMARK  Name = 
REMARK  4 active torsions:
REMARK  status: ('A' for Active; 'I' for Inactive)
REMARK    1  A    between atoms: C_5  and  O_6
REMARK    2  A    between atoms: O_6  and  C_7
REMARK    3  A    between atoms: C_7  and  C_8
REMARK    4  A    between atoms: C_13  and  C_14
REMARK                            x       y       z     vdW  Elec       q    Type
REMARK                         _______ _______ _______ _____ _____    ______ ____
ROOT
ATOM      1  C   UNL     1      47.486   7.441  12.673  0.00  0.00    +0.000 A 
ATOM      2  C   UNL     1      46.686   8.483  12.190  0.00  0.00    +0.000 A 
ATOM      3  C   UNL     1      45.315   8.305  12.012  0.00  0.00    +0.000 A 
ATOM      4 CL   UNL     1      44.364   9.603  11.400  0.00  0.00    +0.000 Cl
ATOM      5  C   UNL     1      44.709   7.083  12.312  0.00  0.00    +0.000 A 
ATOM      6  C   UNL     1      45.471   6.022  12.819  0.00  0.00    +0.000 A 
ATOM      7  C   UNL     1      46.842   6.239  13.000  0.00  0.00    +0.000 A 
ENDROOT
BRANCH   6   8
ATOM      8  C   UNL     1      44.816   4.685  13.137  0.00  0.00    +0.000 C 
ATOM      9  C   UNL     1      45.422   3.499  12.371  0.00  0.00    +0.000 C 
ATOM     10  C   UNL     1      44.888   3.339  10.947  0.00  0.00    +0.000 C 
ATOM     11  N   UNL     1      43.428   3.350  10.877  0.00  0.00    +0.000 NA
ATOM     12  C   UNL     1      42.822   4.510  11.527  0.00  0.00    +0.000 C 
ATOM     13  C   UNL     1      43.287   4.699  12.971  0.00  0.00    +0.000 C 
ATOM     14  H   UNL     1      43.074   2.503  11.320  0.00  0.00    +0.000 HD
ENDBRANCH   6   8
BRANCH   1  15
ATOM     15  C   UNL     1      48.988   7.577  12.833  0.00  0.00    +0.000 C 
ATOM     16  C   UNL     1      49.879   7.609  11.591  0.00  0.00    +0.000 C 
ATOM     17  C   UNL     1      49.645   8.861  12.363  0.00  0.00    +0.000 C 
BRANCH  15  18
ATOM     18  O   UNL     1      49.588   6.761  13.869  0.00  0.00    +0.000 OA
BRANCH  18  23
ATOM     19 CL   UNL     1      48.392   7.441  19.464  0.00  0.00    +0.000 Cl
ATOM     20  C   UNL     1      48.616   7.268  17.781  0.00  0.00    +0.000 A 
ATOM     21  C   UNL     1      48.864   8.346  16.960  0.00  0.00    +0.000 A 
ATOM     22  N   UNL     1      49.116   8.232  15.644  0.00  0.00    +0.000 NA
ATOM     23  C   UNL     1      49.130   6.982  15.148  0.00  0.00    +0.000 A 
ATOM     24  N   UNL     1      48.857   5.863  15.845  0.00  0.00    +0.000 NA
ATOM     25  C   UNL     1      48.598   6.043  17.160  0.00  0.00    +0.000 A 
ENDBRANCH  18  23
ENDBRANCH  15  18
ENDBRANCH   1  15
TORSDOF 4
ENDMDL
MODEL 6
REMARK VINA RESULT:    -6.437      4.571      6.547
REMARK INTER + INTRA:          -8.184
REMARK INTER:                  -7.605
REMARK INTRA:                  -0.578
REMARK UNBOUND:                -0.241
REMARK  Name = 
REMARK  4 active torsions:
REMARK  status: ('A' for Active; 'I' for Inactive)
REMARK    1  A    between atoms: C_5  and  O_6
REMARK    2  A    between atoms: O_6  and  C_7
REMARK    3  A    between atoms: C_7  and  C_8
REMARK    4  A    between atoms: C_13  and  C_14
REMARK                            x       y       z     vdW  Elec       q    Type
REMARK                         _______ _______ _______ _____ _____    ______ ____
ROOT
ATOM      1  C   UNL     1      49.479   3.483  17.132  0.00  0.00    +0.000 A 
ATOM      2  C   UNL     1      50.207   2.295  17.278  0.00  0.00    +0.000 A 
ATOM      3  C   UNL     1      51.571   2.327  17.563  0.00  0.00    +0.000 A 
ATOM      4 CL   UNL     1      52.439   0.848  17.719  0.00  0.00    +0.000 Cl
ATOM      5  C   UNL     1      52.242   3.542  17.712  0.00  0.00    +0.000 A 
ATOM      6  C   UNL     1      51.545   4.752  17.597  0.00  0.00    +0.000 A 
ATOM      7  C   UNL     1      50.173   4.685  17.324  0.00  0.00    +0.000 A 
ENDROOT
BRANCH   6   8
ATOM      8  C   UNL     1      52.275   6.080  17.748  0.00  0.00    +0.000 C 
ATOM      9  C   UNL     1      51.574   7.256  17.051  0.00  0.00    +0.000 C 
ATOM     10  C   UNL     1      51.861   7.352  15.553  0.00  0.00    +0.000 C 
ATOM     11  N   UNL     1      53.287   7.297  15.236  0.00  0.00    +0.000 NA
ATOM     12  C   UNL     1      53.969   6.143  15.818  0.00  0.00    +0.000 C 
ATOM     13  C   UNL     1      53.752   6.017  17.326  0.00  0.00    +0.000 C 
ATOM     14  H   UNL     1      53.730   8.148  15.580  0.00  0.00    +0.000 HD
ENDBRANCH   6   8
BRANCH   1  15
ATOM     15  C   UNL     1      48.007   3.493  16.771  0.00  0.00    +0.000 C 
ATOM     16  C   UNL     1      46.997   2.817  17.699  0.00  0.00    +0.000 C 
ATOM     17  C   UNL     1      47.063   4.304  17.639  0.00  0.00    +0.000 C 
BRANCH  15  18
ATOM     18  O   UNL     1      47.695   3.207  15.385  0.00  0.00    +0.000 OA
BRANCH  18  23
ATOM     19 CL   UNL     1      45.744   7.268  11.794  0.00  0.00    +0.000 Cl
ATOM     20  C   UNL     1      46.253   6.127  12.957  0.00  0.00    +0.000 A 
ATOM     21  C   UNL     1      45.485   5.036  13.296  0.00  0.00    +0.000 A 
ATOM     22  N   UNL     1      45.891   4.082  14.154  0.00  0.00    +0.000 NA
ATOM     23  C   UNL     1      47.122   4.237  14.673  0.00  0.00    +0.000 A 
ATOM     24  N   UNL     1      47.938   5.284  14.450  0.00  0.00    +0.000 NA
ATOM     25  C   UNL     1      47.469   6.216  13.589  0.00  0.00    +0.000 A 
ENDBRANCH  18  23
ENDBRANCH  15  18
ENDBRANCH   1  15
TORSDOF 4
ENDMDL
MODEL 7
REMARK VINA RESULT:    -6.427      3.460      6.504
REMARK INTER + INTRA:          -8.171
REMARK INTER:                  -7.538
REMARK INTRA:                  -0.633
REMARK UNBOUND:                -0.241
REMARK  Name = 
REMARK  4 active torsions:
REMARK  status: ('A' for Active; 'I' for Inactive)
REMARK    1  A    between atoms: C_5  and  O_6
REMARK    2  A    between atoms: O_6  and  C_7
REMARK    3  A    between atoms: C_7  and  C_8
REMARK    4  A    between atoms: C_13  and  C_14
REMARK                            x       y       z     vdW  Elec       q    Type
REMARK                         _______ _______ _______ _____ _____    ______ ____
ROOT
ATOM      1  C   UNL     1      47.804   6.729  13.195  0.00  0.00    +0.000 A 
ATOM      2  C   UNL     1      48.047   6.143  14.443  0.00  0.00    +0.000 A 
ATOM      3  C   UNL     1      47.337   5.015  14.851  0.00  0.00    +0.000 A 
ATOM      4 CL   UNL     1      47.649   4.330  16.399  0.00  0.00    +0.000 Cl
ATOM      5  C   UNL     1      46.370   4.442  14.023  0.00  0.00    +0.000 A 
ATOM      6  C   UNL     1      46.113   4.985  12.757  0.00  0.00    +0.000 A 
ATOM      7  C   UNL     1      46.853   6.109  12.372  0.00  0.00    +0.000 A 
ENDROOT
BRANCH   6   8
ATOM      8  C   UNL     1      45.050   4.370  11.855  0.00  0.00    +0.000 C 
ATOM      9  C   UNL     1      44.537   5.321  10.763  0.00  0.00    +0.000 C 
ATOM     10  C   UNL     1      43.462   6.296  11.243  0.00  0.00    +0.000 C 
ATOM     11  N   UNL     1      42.369   5.639  11.958  0.00  0.00    +0.000 NA
ATOM     12  C   UNL     1      42.820   4.788  13.057  0.00  0.00    +0.000 C 
ATOM     13  C   UNL     1      43.869   3.762  12.629  0.00  0.00    +0.000 C 
ATOM     14  H   UNL     1      41.842   5.070  11.297  0.00  0.00    +0.000 HD
ENDBRANCH   6   8
BRANCH   1  15
ATOM     15  C   UNL     1      48.516   7.986  12.735  0.00  0.00    +0.000 C 
ATOM     16  C   UNL     1      50.045   8.033  12.742  0.00  0.00    +0.000 C 
ATOM     17  C   UNL     1      49.316   7.925  11.448  0.00  0.00    +0.000 C 
BRANCH  15  18
ATOM     18  O   UNL     1      47.967   9.236  13.221  0.00  0.00    +0.000 OA
BRANCH  18  23
ATOM     19 CL   UNL     1      43.748  12.091  10.529  0.00  0.00    +0.000 Cl
ATOM     20  C   UNL     1      45.016  11.174  11.212  0.00  0.00    +0.000 A 
ATOM     21  C   UNL     1      46.339  11.510  11.037  0.00  0.00    +0.000 A 
ATOM     22  N   UNL     1      47.355  10.851  11.622  0.00  0.00    +0.000 NA
ATOM     23  C   UNL     1      47.013   9.823  12.421  0.00  0.00    +0.000 A 
ATOM     24  N   UNL     1      45.760   9.378  12.627  0.00  0.00    +0.000 NA
ATOM     25  C   UNL     1      44.783  10.074  12.001  0.00  0.00    +0.000 A 
ENDBRANCH  18  23
ENDBRANCH  15  18
ENDBRANCH   1  15
TORSDOF 4
ENDMDL
MODEL 8
REMARK VINA RESULT:    -6.172      3.741      5.616
REMARK INTER + INTRA:          -7.856
REMARK INTER:                  -7.203
REMARK INTRA:                  -0.653
REMARK UNBOUND:                -0.241
REMARK  Name = 
REMARK  4 active torsions:
REMARK  status: ('A' for Active; 'I' for Inactive)
REMARK    1  A    between atoms: C_5  and  O_6
REMARK    2  A    between atoms: O_6  and  C_7
REMARK    3  A    between atoms: C_7  and  C_8
REMARK    4  A    between atoms: C_13  and  C_14
REMARK                            x       y       z     vdW  Elec       q    Type
REMARK                         _______ _______ _______ _____ _____    ______ ____
ROOT
ATOM      1  C   UNL     1      48.351   7.940  14.295  0.00  0.00    +0.000 A 
ATOM      2  C   UNL     1      48.341   9.225  14.852  0.00  0.00    +0.000 A 
ATOM      3  C   UNL     1      48.580   9.414  16.211  0.00  0.00    +0.000 A 
ATOM      4 CL   UNL     1      48.543  11.006  16.865  0.00  0.00    +0.000 Cl
ATOM      5  C   UNL     1      48.836   8.327  17.049  0.00  0.00    +0.000 A 
ATOM      6  C   UNL     1      48.878   7.027  16.528  0.00  0.00    +0.000 A 
ATOM      7  C   UNL     1      48.648   6.873  15.155  0.00  0.00    +0.000 A 
ENDROOT
BRANCH   6   8
ATOM      8  C   UNL     1      49.146   5.838  17.441  0.00  0.00    +0.000 C 
ATOM      9  C   UNL     1      48.804   4.481  16.808  0.00  0.00    +0.000 C 
ATOM     10  C   UNL     1      47.322   4.113  16.886  0.00  0.00    +0.000 C 
ATOM     11  N   UNL     1      46.767   4.247  18.232  0.00  0.00    +0.000 NA
ATOM     12  C   UNL     1      47.006   5.559  18.833  0.00  0.00    +0.000 C 
ATOM     13  C   UNL     1      48.480   5.964  18.820  0.00  0.00    +0.000 C 
ATOM     14  H   UNL     1      47.183   3.533  18.828  0.00  0.00    +0.000 HD
ENDBRANCH   6   8
BRANCH   1  15
ATOM     15  C   UNL     1      48.046   7.686  12.832  0.00  0.00    +0.000 C 
ATOM     16  C   UNL     1      48.890   8.367  11.755  0.00  0.00    +0.000 C 
ATOM     17  C   UNL     1      49.060   6.910  12.013  0.00  0.00    +0.000 C 
BRANCH  15  18
ATOM     18  O   UNL     1      46.644   7.706  12.468  0.00  0.00    +0.000 OA
BRANCH  18  23
ATOM     19 CL   UNL     1      43.536   2.913  11.717  0.00  0.00    +0.000 Cl
ATOM     20  C   UNL     1      44.568   4.258  11.914  0.00  0.00    +0.000 A 
ATOM     21  C   UNL     1      45.004   5.009  10.846  0.00  0.00    +0.000 A 
ATOM     22  N   UNL     1      45.757   6.117  10.976  0.00  0.00    +0.000 NA
ATOM     23  C   UNL     1      46.065   6.479  12.235  0.00  0.00    +0.000 A 
ATOM     24  N   UNL     1      45.734   5.797  13.347  0.00  0.00    +0.000 NA
ATOM     25  C   UNL     1      44.988   4.686  13.150  0.00  0.00    +0.000 A 
ENDBRANCH  18  23
ENDBRANCH  15  18
ENDBRANCH   1  15
TORSDOF 4
ENDMDL
MODEL 9
REMARK VINA RESULT:    -6.074      3.559      7.624
REMARK INTER + INTRA:          -7.735
REMARK INTER:                  -7.495
REMARK INTRA:                  -0.240
REMARK UNBOUND:                -0.241
REMARK  Name = 
REMARK  4 active torsions:
REMARK  status: ('A' for Active; 'I' for Inactive)
REMARK    1  A    between atoms: C_5  and  O_6
REMARK    2  A    between atoms: O_6  and  C_7
REMARK    3  A    between atoms: C_7  and  C_8
REMARK    4  A    between atoms: C_13  and  C_14
REMARK                            x       y       z     vdW  Elec       q    Type
REMARK                         _______ _______ _______ _____ _____    ______ ____
ROOT
ATOM      1  C   UNL     1      47.341   7.511  13.644  0.00  0.00    +0.000 A 
ATOM      2  C   UNL     1      46.557   8.620  13.301  0.00  0.00    +0.000 A 
ATOM      3  C   UNL     1      45.514   8.500  12.385  0.00  0.00    +0.000 A 
ATOM      4 CL   UNL     1      44.583   9.888  11.973  0.00  0.00    +0.000 Cl
ATOM      5  C   UNL     1      45.226   7.270  11.789  0.00  0.00    +0.000 A 
ATOM      6  C   UNL     1      45.971   6.132  12.122  0.00  0.00    +0.000 A 
ATOM      7  C   UNL     1      47.002   6.284  13.057  0.00  0.00    +0.000 A 
ENDROOT
BRANCH   6   8
ATOM      8  C   UNL     1      45.666   4.791  11.466  0.00  0.00    +0.000 C 
ATOM      9  C   UNL     1      44.708   4.891  10.269  0.00  0.00    +0.000 C 
ATOM     10  C   UNL     1      43.231   4.954  10.657  0.00  0.00    +0.000 C 
ATOM     11  N   UNL     1      42.836   3.900  11.590  0.00  0.00    +0.000 NA
ATOM     12  C   UNL     1      43.680   3.831  12.782  0.00  0.00    +0.000 C 
ATOM     13  C   UNL     1      45.170   3.725  12.456  0.00  0.00    +0.000 C 
ATOM     14  H   UNL     1      42.879   3.004  11.107  0.00  0.00    +0.000 HD
ENDBRANCH   6   8
BRANCH   1  15
ATOM     15  C   UNL     1      48.516   7.610  14.596  0.00  0.00    +0.000 C 
ATOM     16  C   UNL     1      49.463   8.807  14.505  0.00  0.00    +0.000 C 
ATOM     17  C   UNL     1      48.502   8.711  15.639  0.00  0.00    +0.000 C 
BRANCH  15  18
ATOM     18  O   UNL     1      49.262   6.386  14.806  0.00  0.00    +0.000 OA
BRANCH  18  23
ATOM     19 CL   UNL     1      48.528   4.596  20.233  0.00  0.00    +0.000 Cl
ATOM     20  C   UNL     1      48.764   4.996  18.591  0.00  0.00    +0.000 A 
ATOM     21  C   UNL     1      47.741   4.945  17.670  0.00  0.00    +0.000 A 
ATOM     22  N   UNL     1      47.880   5.324  16.387  0.00  0.00    +0.000 NA
ATOM     23  C   UNL     1      49.094   5.782  16.031  0.00  0.00    +0.000 A 
ATOM     24  N   UNL     1      50.175   5.831  16.832  0.00  0.00    +0.000 NA
ATOM     25  C   UNL     1      49.976   5.424  18.106  0.00  0.00    +0.000 A 
ENDBRANCH  18  23
ENDBRANCH  15  18
ENDBRANCH   1  15
TORSDOF 4
ENDMDL
