MODEL 1
REMARK VINA RESULT:    -7.756      0.000      0.000
REMARK INTER + INTRA:          -9.481
REMARK INTER:                  -9.117
REMARK INTRA:                  -0.364
REMARK UNBOUND:                -0.364
REMARK  Name = 
REMARK  3 active torsions:
REMARK  status: ('A' for Active; 'I' for Inactive)
REMARK    1  A    between atoms: C_11  and  C_12
REMARK    2  A    between atoms: C_12  and  S_13
REMARK    3  A    between atoms: S_13  and  C_14
REMARK                            x       y       z     vdW  Elec       q    Type
REMARK                         _______ _______ _______ _____ _____    ______ ____
ROOT
ATOM      1  F   UNL     1      49.455   4.113  18.380  0.00  0.00    +0.000 F 
ATOM      2  C   UNL     1      48.210   4.654  18.287  0.00  0.00    +0.000 C 
ATOM      3  F   UNL     1      47.795   4.857  19.565  0.00  0.00    +0.000 F 
ATOM      4  C   UNL     1      47.286   3.657  17.617  0.00  0.00    +0.000 C 
ATOM      5  C   UNL     1      47.654   3.503  16.148  0.00  0.00    +0.000 C 
ATOM      6  N   UNL     1      47.699   4.829  15.554  0.00  0.00    +0.000 N 
ATOM      7  C   UNL     1      47.117   5.070  14.333  0.00  0.00    +0.000 A 
ATOM      8  N   UNL     1      47.208   6.301  13.809  0.00  0.00    +0.000 NA
ATOM      9  C   UNL     1      46.536   6.549  12.673  0.00  0.00    +0.000 A 
ATOM     10  C   UNL     1      45.771   5.613  12.024  0.00  0.00    +0.000 A 
ATOM     11  C   UNL     1      45.747   4.356  12.588  0.00  0.00    +0.000 A 
ATOM     12  N   UNL     1      46.405   4.093  13.743  0.00  0.00    +0.000 NA
ATOM     13  C   UNL     1      48.656   5.769  16.114  0.00  0.00    +0.000 C 
ATOM     14  C   UNL     1      48.301   5.989  17.576  0.00  0.00    +0.000 C 
ENDROOT
BRANCH  11  15
ATOM     15  C   UNL     1      44.904   3.224  12.037  0.00  0.00    +0.000 C 
BRANCH  15  16
ATOM     16  S   UNL     1      43.858   3.659  10.602  0.00  0.00    +0.000 S 
BRANCH  16  17
ATOM     17  C   UNL     1      44.971   3.259   9.270  0.00  0.00    +0.000 A 
ATOM     18  C   UNL     1      45.494   4.243   8.424  0.00  0.00    +0.000 A 
ATOM     19  C   UNL     1      46.369   3.891   7.393  0.00  0.00    +0.000 A 
ATOM     20  C   UNL     1      46.732   2.557   7.211  0.00  0.00    +0.000 A 
ATOM     21  C   UNL     1      46.233   1.576   8.065  0.00  0.00    +0.000 A 
ATOM     22  C   UNL     1      45.359   1.929   9.096  0.00  0.00    +0.000 A 
ENDBRANCH  16  17
ENDBRANCH  15  16
ENDBRANCH  11  15
TORSDOF 3
ENDMDL
MODEL 2
REMARK VINA RESULT:    -7.380      3.183      3.905
REMARK INTER + INTRA:          -9.038
REMARK INTER:                  -8.745
REMARK INTRA:                  -0.293
REMARK UNBOUND:                -0.364
REMARK  Name = 
REMARK  3 active torsions:
REMARK  status: ('A' for Active; 'I' for Inactive)
REMARK    1  A    between atoms: C_11  and  C_12
REMARK    2  A    between atoms: C_12  and  S_13
REMARK    3  A    between atoms: S_13  and  C_14
REMARK                            x       y       z     vdW  Elec       q    Type
REMARK                         _______ _______ _______ _____ _____    ______ ____
ROOT
ATOM      1  F   UNL     1      49.237   9.069  12.997  0.00  0.00    +0.000 F 
ATOM      2  C   UNL     1      49.119   7.755  13.330  0.00  0.00    +0.000 C 
ATOM      3  F   UNL     1      50.295   7.412  13.920  0.00  0.00    +0.000 F 
ATOM      4  C   UNL     1      48.942   6.939  12.065  0.00  0.00    +0.000 C 
ATOM      5  C   UNL     1      47.578   7.213  11.449  0.00  0.00    +0.000 C 
ATOM      6  N   UNL     1      46.570   7.018  12.479  0.00  0.00    +0.000 N 
ATOM      7  C   UNL     1      45.420   6.317  12.211  0.00  0.00    +0.000 A 
ATOM      8  N   UNL     1      44.505   6.188  13.182  0.00  0.00    +0.000 NA
ATOM      9  C   UNL     1      43.442   5.403  12.941  0.00  0.00    +0.000 A 
ATOM     10  C   UNL     1      43.245   4.736  11.758  0.00  0.00    +0.000 A 
ATOM     11  C   UNL     1      44.197   4.939  10.783  0.00  0.00    +0.000 A 
ATOM     12  N   UNL     1      45.284   5.713  11.017  0.00  0.00    +0.000 NA
ATOM     13  C   UNL     1      46.661   7.867  13.656  0.00  0.00    +0.000 C 
ATOM     14  C   UNL     1      47.994   7.596  14.333  0.00  0.00    +0.000 C 
ENDROOT
BRANCH  11  15
ATOM     15  C   UNL     1      44.168   4.230   9.445  0.00  0.00    +0.000 C 
BRANCH  15  16
ATOM     16  S   UNL     1      44.626   2.461   9.490  0.00  0.00    +0.000 S 
BRANCH  16  17
ATOM     17  C   UNL     1      45.774   2.399   8.130  0.00  0.00    +0.000 A 
ATOM     18  C   UNL     1      45.949   3.481   7.261  0.00  0.00    +0.000 A 
ATOM     19  C   UNL     1      46.864   3.397   6.208  0.00  0.00    +0.000 A 
ATOM     20  C   UNL     1      47.614   2.235   6.027  0.00  0.00    +0.000 A 
ATOM     21  C   UNL     1      47.461   1.163   6.902  0.00  0.00    +0.000 A 
ATOM     22  C   UNL     1      46.547   1.248   7.955  0.00  0.00    +0.000 A 
ENDBRANCH  16  17
ENDBRANCH  15  16
ENDBRANCH  11  15
TORSDOF 3
ENDMDL
MODEL 3
REMARK VINA RESULT:    -7.340      3.084      4.203
REMARK INTER + INTRA:          -8.991
REMARK INTER:                  -8.616
REMARK INTRA:                  -0.376
REMARK UNBOUND:                -0.364
REMARK  Name = 
REMARK  3 active torsions:
REMARK  status: ('A' for Active; 'I' for Inactive)
REMARK    1  A    between atoms: C_11  and  C_12
REMARK    2  A    between atoms: C_12  and  S_13
REMARK    3  A    between atoms: S_13  and  C_14
REMARK                            x       y       z     vdW  Elec       q    Type
REMARK                         _______ _______ _______ _____ _____    ______ ____
ROOT
ATOM      1  F   UNL     1      48.801  10.227  13.701  0.00  0.00    +0.000 F 
ATOM      2  C   UNL     1      49.355   9.225  12.966  0.00  0.00    +0.000 C 
ATOM      3  F   UNL     1      50.541   9.708  12.510  0.00  0.00    +0.000 F 
ATOM      4  C   UNL     1      48.456   8.923  11.784  0.00  0.00    +0.000 C 
ATOM      5  C   UNL     1      47.168   8.266  12.258  0.00  0.00    +0.000 C 
ATOM      6  N   UNL     1      47.521   7.131  13.095  0.00  0.00    +0.000 N 
ATOM      7  C   UNL     1      46.885   5.924  12.945  0.00  0.00    +0.000 A 
ATOM      8  N   UNL     1      47.223   4.913  13.758  0.00  0.00    +0.000 NA
ATOM      9  C   UNL     1      46.677   3.709  13.522  0.00  0.00    +0.000 A 
ATOM     10  C   UNL     1      45.793   3.464  12.501  0.00  0.00    +0.000 A 
ATOM     11  C   UNL     1      45.452   4.549  11.723  0.00  0.00    +0.000 A 
ATOM     12  N   UNL     1      46.008   5.766  11.937  0.00  0.00    +0.000 NA
ATOM     13  C   UNL     1      48.296   7.414  14.293  0.00  0.00    +0.000 C 
ATOM     14  C   UNL     1      49.617   8.034  13.866  0.00  0.00    +0.000 C 
ENDROOT
BRANCH  11  15
ATOM     15  C   UNL     1      44.542   4.443  10.517  0.00  0.00    +0.000 C 
BRANCH  15  16
ATOM     16  S   UNL     1      44.250   2.743   9.910  0.00  0.00    +0.000 S 
BRANCH  16  17
ATOM     17  C   UNL     1      45.491   2.648   8.635  0.00  0.00    +0.000 A 
ATOM     18  C   UNL     1      46.103   1.438   8.290  0.00  0.00    +0.000 A 
ATOM     19  C   UNL     1      47.068   1.402   7.280  0.00  0.00    +0.000 A 
ATOM     20  C   UNL     1      47.416   2.571   6.605  0.00  0.00    +0.000 A 
ATOM     21  C   UNL     1      46.793   3.774   6.929  0.00  0.00    +0.000 A 
ATOM     22  C   UNL     1      45.828   3.810   7.937  0.00  0.00    +0.000 A 
ENDBRANCH  16  17
ENDBRANCH  15  16
ENDBRANCH  11  15
TORSDOF 3
ENDMDL
MODEL 4
REMARK VINA RESULT:    -6.678      2.069      2.765
REMARK INTER + INTRA:          -8.213
REMARK INTER:                  -7.871
REMARK INTRA:                  -0.342
REMARK UNBOUND:                -0.364
REMARK  Name = 
REMARK  3 active torsions:
REMARK  status: ('A' for Active; 'I' for Inactive)
REMARK    1  A    between atoms: C_11  and  C_12
REMARK    2  A    between atoms: C_12  and  S_13
REMARK    3  A    between atoms: S_13  and  C_14
REMARK                            x       y       z     vdW  Elec       q    Type
REMARK                         _______ _______ _______ _____ _____    ______ ____
ROOT
ATOM      1  F   UNL     1      50.415   8.201  16.002  0.00  0.00    +0.000 F 
ATOM      2  C   UNL     1      49.109   8.089  16.366  0.00  0.00    +0.000 C 
ATOM      3  F   UNL     1      49.072   8.329  17.704  0.00  0.00    +0.000 F 
ATOM      4  C   UNL     1      48.643   6.671  16.104  0.00  0.00    +0.000 C 
ATOM      5  C   UNL     1      48.556   6.414  14.607  0.00  0.00    +0.000 C 
ATOM      6  N   UNL     1      47.751   7.469  14.014  0.00  0.00    +0.000 N 
ATOM      7  C   UNL     1      46.778   7.173  13.091  0.00  0.00    +0.000 A 
ATOM      8  N   UNL     1      46.079   8.180  12.548  0.00  0.00    +0.000 NA
ATOM      9  C   UNL     1      45.055   7.867  11.737  0.00  0.00    +0.000 A 
ATOM     10  C   UNL     1      44.695   6.578  11.435  0.00  0.00    +0.000 A 
ATOM     11  C   UNL     1      45.473   5.586  11.989  0.00  0.00    +0.000 A 
ATOM     12  N   UNL     1      46.498   5.885  12.824  0.00  0.00    +0.000 NA
ATOM     13  C   UNL     1      48.238   8.830  14.163  0.00  0.00    +0.000 C 
ATOM     14  C   UNL     1      48.300   9.150  15.648  0.00  0.00    +0.000 C 
ENDROOT
BRANCH  11  15
ATOM     15  C   UNL     1      45.176   4.111  11.811  0.00  0.00    +0.000 C 
BRANCH  15  16
ATOM     16  S   UNL     1      43.991   3.712  10.478  0.00  0.00    +0.000 S 
BRANCH  16  17
ATOM     17  C   UNL     1      45.119   3.236   9.185  0.00  0.00    +0.000 A 
ATOM     18  C   UNL     1      45.454   1.898   8.953  0.00  0.00    +0.000 A 
ATOM     19  C   UNL     1      46.339   1.563   7.925  0.00  0.00    +0.000 A 
ATOM     20  C   UNL     1      46.883   2.562   7.119  0.00  0.00    +0.000 A 
ATOM     21  C   UNL     1      46.535   3.894   7.331  0.00  0.00    +0.000 A 
ATOM     22  C   UNL     1      45.650   4.228   8.357  0.00  0.00    +0.000 A 
ENDBRANCH  16  17
ENDBRANCH  15  16
ENDBRANCH  11  15
TORSDOF 3
ENDMDL
MODEL 5
REMARK VINA RESULT:    -6.675      4.242      7.939
REMARK INTER + INTRA:          -8.210
REMARK INTER:                  -7.861
REMARK INTRA:                  -0.349
REMARK UNBOUND:                -0.364
REMARK  Name = 
REMARK  3 active torsions:
REMARK  status: ('A' for Active; 'I' for Inactive)
REMARK    1  A    between atoms: C_11  and  C_12
REMARK    2  A    between atoms: C_12  and  S_13
REMARK    3  A    between atoms: S_13  and  C_14
REMARK                            x       y       z     vdW  Elec       q    Type
REMARK                         _______ _______ _______ _____ _____    ______ ____
ROOT
ATOM      1  F   UNL     1      43.389   4.564   9.776  0.00  0.00    +0.000 F 
ATOM      2  C   UNL     1      44.693   4.176   9.801  0.00  0.00    +0.000 C 
ATOM      3  F   UNL     1      44.918   3.548   8.616  0.00  0.00    +0.000 F 
ATOM      4  C   UNL     1      44.894   3.189  10.932  0.00  0.00    +0.000 C 
ATOM      5  C   UNL     1      44.769   3.894  12.275  0.00  0.00    +0.000 C 
ATOM      6  N   UNL     1      45.660   5.043  12.266  0.00  0.00    +0.000 N 
ATOM      7  C   UNL     1      46.463   5.315  13.346  0.00  0.00    +0.000 A 
ATOM      8  N   UNL     1      47.247   6.402  13.307  0.00  0.00    +0.000 NA
ATOM      9  C   UNL     1      48.109   6.589  14.319  0.00  0.00    +0.000 A 
ATOM     10  C   UNL     1      48.223   5.734  15.386  0.00  0.00    +0.000 A 
ATOM     11  C   UNL     1      47.364   4.657  15.393  0.00  0.00    +0.000 A 
ATOM     12  N   UNL     1      46.501   4.444  14.371  0.00  0.00    +0.000 NA
ATOM     13  C   UNL     1      45.416   6.056  11.252  0.00  0.00    +0.000 C 
ATOM     14  C   UNL     1      45.575   5.406   9.887  0.00  0.00    +0.000 C 
ENDROOT
BRANCH  11  15
ATOM     15  C   UNL     1      47.400   3.583  16.460  0.00  0.00    +0.000 C 
BRANCH  15  16
ATOM     16  S   UNL     1      48.093   4.108  18.069  0.00  0.00    +0.000 S 
BRANCH  16  17
ATOM     17  C   UNL     1      49.741   3.447  17.932  0.00  0.00    +0.000 A 
ATOM     18  C   UNL     1      49.985   2.179  17.394  0.00  0.00    +0.000 A 
ATOM     19  C   UNL     1      51.294   1.696  17.298  0.00  0.00    +0.000 A 
ATOM     20  C   UNL     1      52.361   2.484  17.728  0.00  0.00    +0.000 A 
ATOM     21  C   UNL     1      52.125   3.757  18.243  0.00  0.00    +0.000 A 
ATOM     22  C   UNL     1      50.818   4.238  18.338  0.00  0.00    +0.000 A 
ENDBRANCH  16  17
ENDBRANCH  15  16
ENDBRANCH  11  15
TORSDOF 3
ENDMDL
MODEL 6
REMARK VINA RESULT:    -6.635      4.000      7.281
REMARK INTER + INTRA:          -8.162
REMARK INTER:                  -7.804
REMARK INTRA:                  -0.358
REMARK UNBOUND:                -0.364
REMARK  Name = 
REMARK  3 active torsions:
REMARK  status: ('A' for Active; 'I' for Inactive)
REMARK    1  A    between atoms: C_11  and  C_12
REMARK    2  A    between atoms: C_12  and  S_13
REMARK    3  A    between atoms: S_13  and  C_14
REMARK                            x       y       z     vdW  Elec       q    Type
REMARK                         _______ _______ _______ _____ _____    ______ ____
ROOT
ATOM      1  F   UNL     1      42.982   2.739  11.840  0.00  0.00    +0.000 F 
ATOM      2  C   UNL     1      43.902   3.311  11.016  0.00  0.00    +0.000 C 
ATOM      3  F   UNL     1      43.878   2.584   9.868  0.00  0.00    +0.000 F 
ATOM      4  C   UNL     1      45.274   3.192  11.649  0.00  0.00    +0.000 C 
ATOM      5  C   UNL     1      45.369   4.094  12.871  0.00  0.00    +0.000 C 
ATOM      6  N   UNL     1      44.963   5.433  12.476  0.00  0.00    +0.000 N 
ATOM      7  C   UNL     1      45.688   6.531  12.872  0.00  0.00    +0.000 A 
ATOM      8  N   UNL     1      45.261   7.749  12.509  0.00  0.00    +0.000 NA
ATOM      9  C   UNL     1      46.042   8.800  12.804  0.00  0.00    +0.000 A 
ATOM     10  C   UNL     1      47.244   8.693  13.457  0.00  0.00    +0.000 A 
ATOM     11  C   UNL     1      47.612   7.421  13.840  0.00  0.00    +0.000 A 
ATOM     12  N   UNL     1      46.844   6.348  13.535  0.00  0.00    +0.000 NA
ATOM     13  C   UNL     1      43.611   5.586  11.964  0.00  0.00    +0.000 C 
ATOM     14  C   UNL     1      43.481   4.734  10.712  0.00  0.00    +0.000 C 
ENDROOT
BRANCH  11  15
ATOM     15  C   UNL     1      48.935   7.116  14.513  0.00  0.00    +0.000 C 
BRANCH  15  16
ATOM     16  S   UNL     1      48.904   7.147  16.340  0.00  0.00    +0.000 S 
BRANCH  16  17
ATOM     17  C   UNL     1      48.913   5.400  16.685  0.00  0.00    +0.000 A 
ATOM     18  C   UNL     1      47.837   4.575  16.343  0.00  0.00    +0.000 A 
ATOM     19  C   UNL     1      47.883   3.206  16.625  0.00  0.00    +0.000 A 
ATOM     20  C   UNL     1      49.008   2.657  17.238  0.00  0.00    +0.000 A 
ATOM     21  C   UNL     1      50.093   3.471  17.559  0.00  0.00    +0.000 A 
ATOM     22  C   UNL     1      50.047   4.837  17.277  0.00  0.00    +0.000 A 
ENDBRANCH  16  17
ENDBRANCH  15  16
ENDBRANCH  11  15
TORSDOF 3
ENDMDL
MODEL 7
REMARK VINA RESULT:    -6.292      2.372      3.339
REMARK INTER + INTRA:          -7.760
REMARK INTER:                  -7.423
REMARK INTRA:                  -0.337
REMARK UNBOUND:                -0.364
REMARK  Name = 
REMARK  3 active torsions:
REMARK  status: ('A' for Active; 'I' for Inactive)
REMARK    1  A    between atoms: C_11  and  C_12
REMARK    2  A    between atoms: C_12  and  S_13
REMARK    3  A    between atoms: S_13  and  C_14
REMARK                            x       y       z     vdW  Elec       q    Type
REMARK                         _______ _______ _______ _____ _____    ______ ____
ROOT
ATOM      1  F   UNL     1      51.556   8.685  16.728  0.00  0.00    +0.000 F 
ATOM      2  C   UNL     1      51.766   7.636  15.888  0.00  0.00    +0.000 C 
ATOM      3  F   UNL     1      53.115   7.520  15.765  0.00  0.00    +0.000 F 
ATOM      4  C   UNL     1      51.171   7.960  14.533  0.00  0.00    +0.000 C 
ATOM      5  C   UNL     1      49.651   7.974  14.615  0.00  0.00    +0.000 C 
ATOM      6  N   UNL     1      49.220   6.723  15.217  0.00  0.00    +0.000 N 
ATOM      7  C   UNL     1      48.170   6.015  14.687  0.00  0.00    +0.000 A 
ATOM      8  N   UNL     1      47.788   4.881  15.291  0.00  0.00    +0.000 NA
ATOM      9  C   UNL     1      46.839   4.142  14.695  0.00  0.00    +0.000 A 
ATOM     10  C   UNL     1      46.241   4.488  13.510  0.00  0.00    +0.000 A 
ATOM     11  C   UNL     1      46.645   5.683  12.955  0.00  0.00    +0.000 A 
ATOM     12  N   UNL     1      47.614   6.432  13.534  0.00  0.00    +0.000 NA
ATOM     13  C   UNL     1      49.696   6.442  16.562  0.00  0.00    +0.000 C 
ATOM     14  C   UNL     1      51.215   6.375  16.521  0.00  0.00    +0.000 C 
ENDROOT
BRANCH  11  15
ATOM     15  C   UNL     1      46.135   6.184  11.620  0.00  0.00    +0.000 C 
BRANCH  15  16
ATOM     16  S   UNL     1      44.512   5.517  11.107  0.00  0.00    +0.000 S 
BRANCH  16  17
ATOM     17  C   UNL     1      45.030   4.347   9.868  0.00  0.00    +0.000 A 
ATOM     18  C   UNL     1      45.747   4.742   8.733  0.00  0.00    +0.000 A 
ATOM     19  C   UNL     1      46.142   3.794   7.786  0.00  0.00    +0.000 A 
ATOM     20  C   UNL     1      45.831   2.447   7.974  0.00  0.00    +0.000 A 
ATOM     21  C   UNL     1      45.138   2.046   9.114  0.00  0.00    +0.000 A 
ATOM     22  C   UNL     1      44.745   2.993  10.060  0.00  0.00    +0.000 A 
ENDBRANCH  16  17
ENDBRANCH  15  16
ENDBRANCH  11  15
TORSDOF 3
ENDMDL
MODEL 8
REMARK VINA RESULT:    -6.285      3.864      8.173
REMARK INTER + INTRA:          -7.751
REMARK INTER:                  -7.513
REMARK INTRA:                  -0.238
REMARK UNBOUND:                -0.364
REMARK  Name = 
REMARK  3 active torsions:
REMARK  status: ('A' for Active; 'I' for Inactive)
REMARK    1  A    between atoms: C_11  and  C_12
REMARK    2  A    between atoms: C_12  and  S_13
REMARK    3  A    between atoms: S_13  and  C_14
REMARK                            x       y       z     vdW  Elec       q    Type
REMARK                         _______ _______ _______ _____ _____    ______ ____
ROOT
ATOM      1  F   UNL     1      42.853   4.181  11.060  0.00  0.00    +0.000 F 
ATOM      2  C   UNL     1      44.104   3.656  10.950  0.00  0.00    +0.000 C 
ATOM      3  F   UNL     1      43.961   2.490  10.266  0.00  0.00    +0.000 F 
ATOM      4  C   UNL     1      44.637   3.355  12.337  0.00  0.00    +0.000 C 
ATOM      5  C   UNL     1      44.923   4.650  13.083  0.00  0.00    +0.000 C 
ATOM      6  N   UNL     1      45.770   5.479  12.241  0.00  0.00    +0.000 N 
ATOM      7  C   UNL     1      46.861   6.126  12.765  0.00  0.00    +0.000 A 
ATOM      8  N   UNL     1      47.598   6.904  11.958  0.00  0.00    +0.000 NA
ATOM      9  C   UNL     1      48.725   7.435  12.458  0.00  0.00    +0.000 A 
ATOM     10  C   UNL     1      49.156   7.228  13.744  0.00  0.00    +0.000 A 
ATOM     11  C   UNL     1      48.338   6.454  14.539  0.00  0.00    +0.000 A 
ATOM     12  N   UNL     1      47.207   5.896  14.045  0.00  0.00    +0.000 NA
ATOM     13  C   UNL     1      45.232   5.867  10.947  0.00  0.00    +0.000 C 
ATOM     14  C   UNL     1      44.971   4.603  10.145  0.00  0.00    +0.000 C 
ENDROOT
BRANCH  11  15
ATOM     15  C   UNL     1      48.694   6.075  15.961  0.00  0.00    +0.000 C 
BRANCH  15  16
ATOM     16  S   UNL     1      47.780   4.643  16.637  0.00  0.00    +0.000 S 
BRANCH  16  17
ATOM     17  C   UNL     1      47.915   4.977  18.381  0.00  0.00    +0.000 A 
ATOM     18  C   UNL     1      47.182   5.998  18.995  0.00  0.00    +0.000 A 
ATOM     19  C   UNL     1      47.310   6.226  20.368  0.00  0.00    +0.000 A 
ATOM     20  C   UNL     1      48.162   5.429  21.132  0.00  0.00    +0.000 A 
ATOM     21  C   UNL     1      48.877   4.397  20.529  0.00  0.00    +0.000 A 
ATOM     22  C   UNL     1      48.748   4.168  19.158  0.00  0.00    +0.000 A 
ENDBRANCH  16  17
ENDBRANCH  15  16
ENDBRANCH  11  15
TORSDOF 3
ENDMDL
MODEL 9
REMARK VINA RESULT:    -6.154      4.170      6.802
REMARK INTER + INTRA:          -7.597
REMARK INTER:                  -7.091
REMARK INTRA:                  -0.507
REMARK UNBOUND:                -0.364
REMARK  Name = 
REMARK  3 active torsions:
REMARK  status: ('A' for Active; 'I' for Inactive)
REMARK    1  A    between atoms: C_11  and  C_12
REMARK    2  A    between atoms: C_12  and  S_13
REMARK    3  A    between atoms: S_13  and  C_14
REMARK                            x       y       z     vdW  Elec       q    Type
REMARK                         _______ _______ _______ _____ _____    ______ ____
ROOT
ATOM      1  F   UNL     1      45.045   4.621  10.248  0.00  0.00    +0.000 F 
ATOM      2  C   UNL     1      44.465   4.994  11.421  0.00  0.00    +0.000 C 
ATOM      3  F   UNL     1      43.192   5.356  11.110  0.00  0.00    +0.000 F 
ATOM      4  C   UNL     1      45.201   6.197  11.975  0.00  0.00    +0.000 C 
ATOM      5  C   UNL     1      46.591   5.793  12.446  0.00  0.00    +0.000 C 
ATOM      6  N   UNL     1      46.450   4.662  13.348  0.00  0.00    +0.000 N 
ATOM      7  C   UNL     1      47.146   4.617  14.531  0.00  0.00    +0.000 A 
ATOM      8  N   UNL     1      47.008   3.541  15.319  0.00  0.00    +0.000 NA
ATOM      9  C   UNL     1      47.602   3.565  16.523  0.00  0.00    +0.000 A 
ATOM     10  C   UNL     1      48.342   4.626  16.982  0.00  0.00    +0.000 A 
ATOM     11  C   UNL     1      48.482   5.687  16.114  0.00  0.00    +0.000 A 
ATOM     12  N   UNL     1      47.874   5.686  14.903  0.00  0.00    +0.000 NA
ATOM     13  C   UNL     1      45.841   3.459  12.804  0.00  0.00    +0.000 C 
ATOM     14  C   UNL     1      44.429   3.804  12.358  0.00  0.00    +0.000 C 
ENDROOT
BRANCH  11  15
ATOM     15  C   UNL     1      49.211   6.962  16.485  0.00  0.00    +0.000 C 
BRANCH  15  16
ATOM     16  S   UNL     1      50.584   7.426  15.370  0.00  0.00    +0.000 S 
BRANCH  16  17
ATOM     17  C   UNL     1      49.666   8.141  14.021  0.00  0.00    +0.000 A 
ATOM     18  C   UNL     1      48.713   9.144  14.227  0.00  0.00    +0.000 A 
ATOM     19  C   UNL     1      48.017   9.685  13.142  0.00  0.00    +0.000 A 
ATOM     20  C   UNL     1      48.278   9.234  11.849  0.00  0.00    +0.000 A 
ATOM     21  C   UNL     1      49.243   8.251  11.637  0.00  0.00    +0.000 A 
ATOM     22  C   UNL     1      49.939   7.712  12.720  0.00  0.00    +0.000 A 
ENDBRANCH  16  17
ENDBRANCH  15  16
ENDBRANCH  11  15
TORSDOF 3
ENDMDL
