MODEL 1
REMARK VINA RESULT:    -8.729      0.000      0.000
REMARK INTER + INTRA:         -12.705
REMARK INTER:                 -12.046
REMARK INTRA:                  -0.659
REMARK UNBOUND:                -0.659
REMARK  Name = 
REMARK  8 active torsions:
REMARK  status: ('A' for Active; 'I' for Inactive)
REMARK    1  A    between atoms: C_1  and  C_2
REMARK    2  A    between atoms: C_2  and  O_3
REMARK    3  A    between atoms: C_2  and  C_13
REMARK    4  A    between atoms: O_3  and  C_4
REMARK    5  A    between atoms: C_7  and  C_8
REMARK    6  A    between atoms: C_17  and  C_18
REMARK    7  A    between atoms: C_23  and  C_24
REMARK    8  A    between atoms: C_24  and  O_25
REMARK                            x       y       z     vdW  Elec       q    Type
REMARK                         _______ _______ _______ _____ _____    ______ ____
ROOT
ATOM      1  C   UNL     1      45.020   4.887  11.915  0.00  0.00    +0.000 A 
ATOM      2  C   UNL     1      45.523   3.942  12.808  0.00  0.00    +0.000 A 
ATOM      3  C   UNL     1      46.682   4.212  13.527  0.00  0.00    +0.000 A 
ATOM      4  C   UNL     1      47.366   5.420  13.340  0.00  0.00    +0.000 A 
ATOM      5  C   UNL     1      46.892   6.410  12.468  0.00  0.00    +0.000 A 
ATOM      6  C   UNL     1      45.700   6.106  11.770  0.00  0.00    +0.000 A 
ENDROOT
BRANCH   5   7
ATOM      7  C   UNL     1      47.557   7.731  12.240  0.00  0.00    +0.000 A 
ATOM      8  C   UNL     1      48.943   7.719  11.932  0.00  0.00    +0.000 A 
ATOM      9  C   UNL     1      49.634   8.854  11.508  0.00  0.00    +0.000 A 
ATOM     10  C   UNL     1      48.963  10.059  11.406  0.00  0.00    +0.000 A 
ATOM     11  C   UNL     1      47.622  10.129  11.771  0.00  0.00    +0.000 A 
ATOM     12  C   UNL     1      46.901   8.994  12.213  0.00  0.00    +0.000 A 
BRANCH  12  13
ATOM     13  C   UNL     1      45.456   9.179  12.629  0.00  0.00    +0.000 C 
BRANCH  13  14
ATOM     14  O   UNL     1      44.968  10.506  12.433  0.00  0.00    +0.000 OA
ATOM     15  H   UNL     1      44.024  10.485  12.664  0.00  0.00    +0.000 HD
ENDBRANCH  13  14
ENDBRANCH  12  13
ENDBRANCH   5   7
BRANCH   1  17
ATOM     16  C   UNL     1      42.471   5.021  11.744  0.00  0.00    +0.000 C 
ATOM     17  C   UNL     1      43.791   4.664  11.138  0.00  0.00    +0.000 C 
BRANCH  17  18
ATOM     18  O   UNL     1      43.946   4.915   9.781  0.00  0.00    +0.000 OA
BRANCH  18  19
ATOM     19  C   UNL     1      44.812   4.113   9.054  0.00  0.00    +0.000 A 
ATOM     20  C   UNL     1      44.722   2.738   9.271  0.00  0.00    +0.000 A 
ATOM     21  N   UNL     1      45.515   1.827   8.646  0.00  0.00    +0.000 NA
ATOM     22  C   UNL     1      46.403   2.368   7.763  0.00  0.00    +0.000 A 
ATOM     23  C   UNL     1      46.476   3.737   7.526  0.00  0.00    +0.000 A 
ATOM     24  N   UNL     1      45.686   4.644   8.167  0.00  0.00    +0.000 NA
BRANCH  22  25
ATOM     25  C   UNL     1      47.341   1.448   7.061  0.00  0.00    +0.000 C 
ATOM     26  N   UNL     1      48.480   2.015   6.551  0.00  0.00    +0.000 N 
ATOM     27  O   UNL     1      47.108   0.255   6.929  0.00  0.00    +0.000 OA
ATOM     28  H   UNL     1      48.652   3.007   6.664  0.00  0.00    +0.000 HD
ATOM     29  H   UNL     1      49.138   1.439   6.054  0.00  0.00    +0.000 HD
ENDBRANCH  22  25
ENDBRANCH  18  19
ENDBRANCH  17  18
ENDBRANCH   1  17
TORSDOF 7
ENDMDL
MODEL 2
REMARK VINA RESULT:    -8.212      1.469      2.139
REMARK INTER + INTRA:         -11.992
REMARK INTER:                 -11.089
REMARK INTRA:                  -0.903
REMARK UNBOUND:                -0.659
REMARK  Name = 
REMARK  8 active torsions:
REMARK  status: ('A' for Active; 'I' for Inactive)
REMARK    1  A    between atoms: C_1  and  C_2
REMARK    2  A    between atoms: C_2  and  O_3
REMARK    3  A    between atoms: C_2  and  C_13
REMARK    4  A    between atoms: O_3  and  C_4
REMARK    5  A    between atoms: C_7  and  C_8
REMARK    6  A    between atoms: C_17  and  C_18
REMARK    7  A    between atoms: C_23  and  C_24
REMARK    8  A    between atoms: C_24  and  O_25
REMARK                            x       y       z     vdW  Elec       q    Type
REMARK                         _______ _______ _______ _____ _____    ______ ____
ROOT
ATOM      1  C   UNL     1      45.065   5.124  11.993  0.00  0.00    +0.000 A 
ATOM      2  C   UNL     1      45.680   4.289  12.925  0.00  0.00    +0.000 A 
ATOM      3  C   UNL     1      46.829   4.711  13.585  0.00  0.00    +0.000 A 
ATOM      4  C   UNL     1      47.391   5.961  13.300  0.00  0.00    +0.000 A 
ATOM      5  C   UNL     1      46.802   6.845  12.385  0.00  0.00    +0.000 A 
ATOM      6  C   UNL     1      45.623   6.387  11.749  0.00  0.00    +0.000 A 
ENDROOT
BRANCH   5   7
ATOM      7  C   UNL     1      47.332   8.204  12.053  0.00  0.00    +0.000 A 
ATOM      8  C   UNL     1      46.422   9.293  12.119  0.00  0.00    +0.000 A 
ATOM      9  C   UNL     1      46.827  10.623  12.026  0.00  0.00    +0.000 A 
ATOM     10  C   UNL     1      48.165  10.915  11.831  0.00  0.00    +0.000 A 
ATOM     11  C   UNL     1      49.078   9.875  11.686  0.00  0.00    +0.000 A 
ATOM     12  C   UNL     1      48.691   8.516  11.766  0.00  0.00    +0.000 A 
BRANCH  12  13
ATOM     13  C   UNL     1      49.751   7.453  11.553  0.00  0.00    +0.000 C 
BRANCH  13  14
ATOM     14  O   UNL     1      50.914   7.633  12.360  0.00  0.00    +0.000 OA
ATOM     15  H   UNL     1      50.608   8.030  13.193  0.00  0.00    +0.000 HD
ENDBRANCH  13  14
ENDBRANCH  12  13
ENDBRANCH   5   7
BRANCH   1  17
ATOM     16  C   UNL     1      42.510   5.046  11.886  0.00  0.00    +0.000 C 
ATOM     17  C   UNL     1      43.841   4.739  11.275  0.00  0.00    +0.000 C 
BRANCH  17  18
ATOM     18  O   UNL     1      43.945   4.878   9.897  0.00  0.00    +0.000 OA
BRANCH  18  19
ATOM     19  C   UNL     1      44.795   4.027   9.208  0.00  0.00    +0.000 A 
ATOM     20  C   UNL     1      45.715   4.624   8.345  0.00  0.00    +0.000 A 
ATOM     21  N   UNL     1      46.600   3.921   7.590  0.00  0.00    +0.000 NA
ATOM     22  C   UNL     1      46.533   2.569   7.759  0.00  0.00    +0.000 A 
ATOM     23  C   UNL     1      45.634   1.973   8.640  0.00  0.00    +0.000 A 
ATOM     24  N   UNL     1      44.742   2.685   9.383  0.00  0.00    +0.000 NA
BRANCH  22  25
ATOM     25  C   UNL     1      47.439   1.715   6.942  0.00  0.00    +0.000 C 
ATOM     26  N   UNL     1      48.471   2.359   6.307  0.00  0.00    +0.000 N 
ATOM     27  O   UNL     1      47.272   0.510   6.826  0.00  0.00    +0.000 OA
ATOM     28  H   UNL     1      48.589   3.360   6.410  0.00  0.00    +0.000 HD
ATOM     29  H   UNL     1      49.102   1.830   5.730  0.00  0.00    +0.000 HD
ENDBRANCH  22  25
ENDBRANCH  18  19
ENDBRANCH  17  18
ENDBRANCH   1  17
TORSDOF 7
ENDMDL
MODEL 3
REMARK VINA RESULT:    -8.129      1.417      2.265
REMARK INTER + INTRA:         -11.877
REMARK INTER:                 -10.757
REMARK INTRA:                  -1.119
REMARK UNBOUND:                -0.659
REMARK  Name = 
REMARK  8 active torsions:
REMARK  status: ('A' for Active; 'I' for Inactive)
REMARK    1  A    between atoms: C_1  and  C_2
REMARK    2  A    between atoms: C_2  and  O_3
REMARK    3  A    between atoms: C_2  and  C_13
REMARK    4  A    between atoms: O_3  and  C_4
REMARK    5  A    between atoms: C_7  and  C_8
REMARK    6  A    between atoms: C_17  and  C_18
REMARK    7  A    between atoms: C_23  and  C_24
REMARK    8  A    between atoms: C_24  and  O_25
REMARK                            x       y       z     vdW  Elec       q    Type
REMARK                         _______ _______ _______ _____ _____    ______ ____
ROOT
ATOM      1  C   UNL     1      45.032   6.259  11.628  0.00  0.00    +0.000 A 
ATOM      2  C   UNL     1      44.228   7.389  11.486  0.00  0.00    +0.000 A 
ATOM      3  C   UNL     1      44.778   8.657  11.638  0.00  0.00    +0.000 A 
ATOM      4  C   UNL     1      46.132   8.809  11.961  0.00  0.00    +0.000 A 
ATOM      5  C   UNL     1      46.986   7.706  12.097  0.00  0.00    +0.000 A 
ATOM      6  C   UNL     1      46.394   6.433  11.915  0.00  0.00    +0.000 A 
ENDROOT
BRANCH   5   7
ATOM      7  C   UNL     1      48.446   7.794  12.413  0.00  0.00    +0.000 A 
ATOM      8  C   UNL     1      49.352   7.781  11.319  0.00  0.00    +0.000 A 
ATOM      9  C   UNL     1      50.713   8.051  11.461  0.00  0.00    +0.000 A 
ATOM     10  C   UNL     1      51.226   8.319  12.717  0.00  0.00    +0.000 A 
ATOM     11  C   UNL     1      50.385   8.268  13.825  0.00  0.00    +0.000 A 
ATOM     12  C   UNL     1      49.003   7.986  13.709  0.00  0.00    +0.000 A 
BRANCH  12  13
ATOM     13  C   UNL     1      48.177   7.912  14.977  0.00  0.00    +0.000 C 
BRANCH  13  14
ATOM     14  O   UNL     1      47.476   9.119  15.277  0.00  0.00    +0.000 OA
ATOM     15  H   UNL     1      48.153   9.810  15.368  0.00  0.00    +0.000 HD
ENDBRANCH  13  14
ENDBRANCH  12  13
ENDBRANCH   5   7
BRANCH   1  17
ATOM     16  C   UNL     1      43.763   4.258  12.592  0.00  0.00    +0.000 C 
ATOM     17  C   UNL     1      44.512   4.894  11.463  0.00  0.00    +0.000 C 
BRANCH  17  18
ATOM     18  O   UNL     1      44.051   4.632  10.180  0.00  0.00    +0.000 OA
BRANCH  18  19
ATOM     19  C   UNL     1      44.895   3.981   9.293  0.00  0.00    +0.000 A 
ATOM     20  C   UNL     1      44.931   2.588   9.371  0.00  0.00    +0.000 A 
ATOM     21  N   UNL     1      45.721   1.814   8.581  0.00  0.00    +0.000 NA
ATOM     22  C   UNL     1      46.471   2.512   7.680  0.00  0.00    +0.000 A 
ATOM     23  C   UNL     1      46.416   3.899   7.583  0.00  0.00    +0.000 A 
ATOM     24  N   UNL     1      45.631   4.668   8.388  0.00  0.00    +0.000 NA
BRANCH  22  25
ATOM     25  C   UNL     1      47.397   1.748   6.799  0.00  0.00    +0.000 C 
ATOM     26  N   UNL     1      48.434   2.456   6.248  0.00  0.00    +0.000 N 
ATOM     27  O   UNL     1      47.240   0.559   6.562  0.00  0.00    +0.000 OA
ATOM     28  H   UNL     1      48.544   3.443   6.451  0.00  0.00    +0.000 HD
ATOM     29  H   UNL     1      49.079   1.990   5.633  0.00  0.00    +0.000 HD
ENDBRANCH  22  25
ENDBRANCH  18  19
ENDBRANCH  17  18
ENDBRANCH   1  17
TORSDOF 7
ENDMDL
MODEL 4
REMARK VINA RESULT:    -8.062      2.287      3.794
REMARK INTER + INTRA:         -11.784
REMARK INTER:                 -11.607
REMARK INTRA:                  -0.176
REMARK UNBOUND:                -0.659
REMARK  Name = 
REMARK  8 active torsions:
REMARK  status: ('A' for Active; 'I' for Inactive)
REMARK    1  A    between atoms: C_1  and  C_2
REMARK    2  A    between atoms: C_2  and  O_3
REMARK    3  A    between atoms: C_2  and  C_13
REMARK    4  A    between atoms: O_3  and  C_4
REMARK    5  A    between atoms: C_7  and  C_8
REMARK    6  A    between atoms: C_17  and  C_18
REMARK    7  A    between atoms: C_23  and  C_24
REMARK    8  A    between atoms: C_24  and  O_25
REMARK                            x       y       z     vdW  Elec       q    Type
REMARK                         _______ _______ _______ _____ _____    ______ ____
ROOT
ATOM      1  C   UNL     1      45.497   5.306  12.020  0.00  0.00    +0.000 A 
ATOM      2  C   UNL     1      46.147   6.278  11.261  0.00  0.00    +0.000 A 
ATOM      3  C   UNL     1      47.285   6.903  11.758  0.00  0.00    +0.000 A 
ATOM      4  C   UNL     1      47.772   6.581  13.032  0.00  0.00    +0.000 A 
ATOM      5  C   UNL     1      47.166   5.598  13.826  0.00  0.00    +0.000 A 
ATOM      6  C   UNL     1      46.021   4.971  13.278  0.00  0.00    +0.000 A 
ENDROOT
BRANCH   5   7
ATOM      7  C   UNL     1      47.646   5.186  15.183  0.00  0.00    +0.000 A 
ATOM      8  C   UNL     1      47.074   4.015  15.748  0.00  0.00    +0.000 A 
ATOM      9  C   UNL     1      47.567   3.416  16.907  0.00  0.00    +0.000 A 
ATOM     10  C   UNL     1      48.640   3.989  17.564  0.00  0.00    +0.000 A 
ATOM     11  C   UNL     1      49.182   5.178  17.084  0.00  0.00    +0.000 A 
ATOM     12  C   UNL     1      48.693   5.810  15.916  0.00  0.00    +0.000 A 
BRANCH  12  13
ATOM     13  C   UNL     1      49.320   7.125  15.496  0.00  0.00    +0.000 C 
BRANCH  13  14
ATOM     14  O   UNL     1      50.620   6.983  14.923  0.00  0.00    +0.000 OA
ATOM     15  H   UNL     1      51.239   7.394  15.549  0.00  0.00    +0.000 HD
ENDBRANCH  13  14
ENDBRANCH  12  13
ENDBRANCH   5   7
BRANCH   1  17
ATOM     16  C   UNL     1      43.071   4.589  12.396  0.00  0.00    +0.000 C 
ATOM     17  C   UNL     1      44.299   4.601  11.542  0.00  0.00    +0.000 C 
BRANCH  17  18
ATOM     18  O   UNL     1      44.108   4.710  10.171  0.00  0.00    +0.000 OA
BRANCH  18  19
ATOM     19  C   UNL     1      44.908   3.953   9.328  0.00  0.00    +0.000 A 
ATOM     20  C   UNL     1      44.975   2.584   9.592  0.00  0.00    +0.000 A 
ATOM     21  N   UNL     1      45.730   1.718   8.865  0.00  0.00    +0.000 NA
ATOM     22  C   UNL     1      46.409   2.295   7.832  0.00  0.00    +0.000 A 
ATOM     23  C   UNL     1      46.321   3.655   7.551  0.00  0.00    +0.000 A 
ATOM     24  N   UNL     1      45.573   4.518   8.293  0.00  0.00    +0.000 NA
BRANCH  22  25
ATOM     25  C   UNL     1      47.293   1.427   7.005  0.00  0.00    +0.000 C 
ATOM     26  N   UNL     1      48.413   2.022   6.484  0.00  0.00    +0.000 N 
ATOM     27  O   UNL     1      47.035   0.253   6.785  0.00  0.00    +0.000 OA
ATOM     28  H   UNL     1      48.607   3.000   6.672  0.00  0.00    +0.000 HD
ATOM     29  H   UNL     1      49.035   1.484   5.906  0.00  0.00    +0.000 HD
ENDBRANCH  22  25
ENDBRANCH  18  19
ENDBRANCH  17  18
ENDBRANCH   1  17
TORSDOF 7
ENDMDL
MODEL 5
REMARK VINA RESULT:    -7.823      4.200      7.455
REMARK INTER + INTRA:         -11.455
REMARK INTER:                 -10.803
REMARK INTRA:                  -0.652
REMARK UNBOUND:                -0.659
REMARK  Name = 
REMARK  8 active torsions:
REMARK  status: ('A' for Active; 'I' for Inactive)
REMARK    1  A    between atoms: C_1  and  C_2
REMARK    2  A    between atoms: C_2  and  O_3
REMARK    3  A    between atoms: C_2  and  C_13
REMARK    4  A    between atoms: O_3  and  C_4
REMARK    5  A    between atoms: C_7  and  C_8
REMARK    6  A    between atoms: C_17  and  C_18
REMARK    7  A    between atoms: C_23  and  C_24
REMARK    8  A    between atoms: C_24  and  O_25
REMARK                            x       y       z     vdW  Elec       q    Type
REMARK                         _______ _______ _______ _____ _____    ______ ____
ROOT
ATOM      1  C   UNL     1      47.312   7.190  12.475  0.00  0.00    +0.000 A 
ATOM      2  C   UNL     1      46.439   8.237  12.767  0.00  0.00    +0.000 A 
ATOM      3  C   UNL     1      45.151   8.235  12.242  0.00  0.00    +0.000 A 
ATOM      4  C   UNL     1      44.732   7.200  11.397  0.00  0.00    +0.000 A 
ATOM      5  C   UNL     1      45.564   6.117  11.087  0.00  0.00    +0.000 A 
ATOM      6  C   UNL     1      46.860   6.144  11.656  0.00  0.00    +0.000 A 
ENDROOT
BRANCH   5   7
ATOM      7  C   UNL     1      45.173   4.966  10.214  0.00  0.00    +0.000 A 
ATOM      8  C   UNL     1      45.674   4.957   8.884  0.00  0.00    +0.000 A 
ATOM      9  C   UNL     1      45.548   3.858   8.036  0.00  0.00    +0.000 A 
ATOM     10  C   UNL     1      44.886   2.728   8.481  0.00  0.00    +0.000 A 
ATOM     11  C   UNL     1      44.316   2.724   9.751  0.00  0.00    +0.000 A 
ATOM     12  C   UNL     1      44.421   3.831  10.627  0.00  0.00    +0.000 A 
BRANCH  12  13
ATOM     13  C   UNL     1      43.731   3.748  11.974  0.00  0.00    +0.000 C 
BRANCH  13  14
ATOM     14  O   UNL     1      43.801   2.456  12.576  0.00  0.00    +0.000 OA
ATOM     15  H   UNL     1      43.022   1.967  12.261  0.00  0.00    +0.000 HD
ENDBRANCH  13  14
ENDBRANCH  12  13
ENDBRANCH   5   7
BRANCH   1  17
ATOM     16  C   UNL     1      49.808   7.680  12.199  0.00  0.00    +0.000 C 
ATOM     17  C   UNL     1      48.680   7.128  13.012  0.00  0.00    +0.000 C 
BRANCH  17  18
ATOM     18  O   UNL     1      48.740   7.329  14.385  0.00  0.00    +0.000 OA
BRANCH  18  19
ATOM     19  C   UNL     1      48.401   6.278  15.223  0.00  0.00    +0.000 A 
ATOM     20  C   UNL     1      48.872   6.347  16.535  0.00  0.00    +0.000 A 
ATOM     21  N   UNL     1      48.637   5.385  17.467  0.00  0.00    +0.000 NA
ATOM     22  C   UNL     1      47.877   4.344  17.020  0.00  0.00    +0.000 A 
ATOM     23  C   UNL     1      47.384   4.288  15.720  0.00  0.00    +0.000 A 
ATOM     24  N   UNL     1      47.635   5.250  14.789  0.00  0.00    +0.000 NA
BRANCH  22  25
ATOM     25  C   UNL     1      47.602   3.224  17.963  0.00  0.00    +0.000 C 
ATOM     26  N   UNL     1      48.406   3.151  19.071  0.00  0.00    +0.000 N 
ATOM     27  O   UNL     1      46.719   2.403  17.760  0.00  0.00    +0.000 OA
ATOM     28  H   UNL     1      49.138   3.837  19.217  0.00  0.00    +0.000 HD
ATOM     29  H   UNL     1      48.272   2.404  19.730  0.00  0.00    +0.000 HD
ENDBRANCH  22  25
ENDBRANCH  18  19
ENDBRANCH  17  18
ENDBRANCH   1  17
TORSDOF 7
ENDMDL
MODEL 6
REMARK VINA RESULT:    -7.460      3.740      7.231
REMARK INTER + INTRA:         -10.953
REMARK INTER:                 -10.408
REMARK INTRA:                  -0.546
REMARK UNBOUND:                -0.659
REMARK  Name = 
REMARK  8 active torsions:
REMARK  status: ('A' for Active; 'I' for Inactive)
REMARK    1  A    between atoms: C_1  and  C_2
REMARK    2  A    between atoms: C_2  and  O_3
REMARK    3  A    between atoms: C_2  and  C_13
REMARK    4  A    between atoms: O_3  and  C_4
REMARK    5  A    between atoms: C_7  and  C_8
REMARK    6  A    between atoms: C_17  and  C_18
REMARK    7  A    between atoms: C_23  and  C_24
REMARK    8  A    between atoms: C_24  and  O_25
REMARK                            x       y       z     vdW  Elec       q    Type
REMARK                         _______ _______ _______ _____ _____    ______ ____
ROOT
ATOM      1  C   UNL     1      45.672   6.814  11.667  0.00  0.00    +0.000 A 
ATOM      2  C   UNL     1      44.339   7.150  11.901  0.00  0.00    +0.000 A 
ATOM      3  C   UNL     1      43.324   6.469  11.239  0.00  0.00    +0.000 A 
ATOM      4  C   UNL     1      43.631   5.463  10.314  0.00  0.00    +0.000 A 
ATOM      5  C   UNL     1      44.954   5.076  10.056  0.00  0.00    +0.000 A 
ATOM      6  C   UNL     1      45.958   5.779  10.765  0.00  0.00    +0.000 A 
ENDROOT
BRANCH   5   7
ATOM      7  C   UNL     1      45.353   3.994   9.103  0.00  0.00    +0.000 A 
ATOM      8  C   UNL     1      46.137   4.372   7.980  0.00  0.00    +0.000 A 
ATOM      9  C   UNL     1      46.735   3.444   7.128  0.00  0.00    +0.000 A 
ATOM     10  C   UNL     1      46.545   2.093   7.354  0.00  0.00    +0.000 A 
ATOM     11  C   UNL     1      45.723   1.683   8.400  0.00  0.00    +0.000 A 
ATOM     12  C   UNL     1      45.096   2.605   9.271  0.00  0.00    +0.000 A 
BRANCH  12  13
ATOM     13  C   UNL     1      44.185   2.063  10.355  0.00  0.00    +0.000 C 
BRANCH  13  14
ATOM     14  O   UNL     1      44.554   2.473  11.672  0.00  0.00    +0.000 OA
ATOM     15  H   UNL     1      45.363   1.982  11.893  0.00  0.00    +0.000 HD
ENDBRANCH  13  14
ENDBRANCH  12  13
ENDBRANCH   5   7
BRANCH   1  17
ATOM     16  C   UNL     1      46.492   8.592  13.314  0.00  0.00    +0.000 C 
ATOM     17  C   UNL     1      46.787   7.488  12.349  0.00  0.00    +0.000 C 
BRANCH  17  18
ATOM     18  O   UNL     1      47.829   6.631  12.677  0.00  0.00    +0.000 OA
BRANCH  18  19
ATOM     19  C   UNL     1      47.825   6.033  13.929  0.00  0.00    +0.000 A 
ATOM     20  C   UNL     1      46.931   4.978  14.116  0.00  0.00    +0.000 A 
ATOM     21  N   UNL     1      46.800   4.307  15.291  0.00  0.00    +0.000 NA
ATOM     22  C   UNL     1      47.637   4.736  16.279  0.00  0.00    +0.000 A 
ATOM     23  C   UNL     1      48.548   5.769  16.085  0.00  0.00    +0.000 A 
ATOM     24  N   UNL     1      48.664   6.445  14.908  0.00  0.00    +0.000 NA
BRANCH  22  25
ATOM     25  C   UNL     1      47.536   4.083  17.614  0.00  0.00    +0.000 C 
ATOM     26  N   UNL     1      46.987   2.826  17.636  0.00  0.00    +0.000 N 
ATOM     27  O   UNL     1      47.905   4.635  18.640  0.00  0.00    +0.000 OA
ATOM     28  H   UNL     1      46.680   2.388  16.775  0.00  0.00    +0.000 HD
ATOM     29  H   UNL     1      46.882   2.349  18.514  0.00  0.00    +0.000 HD
ENDBRANCH  22  25
ENDBRANCH  18  19
ENDBRANCH  17  18
ENDBRANCH   1  17
TORSDOF 7
ENDMDL
MODEL 7
REMARK VINA RESULT:    -7.038      5.157      7.606
REMARK INTER + INTRA:         -10.372
REMARK INTER:                  -9.272
REMARK INTRA:                  -1.099
REMARK UNBOUND:                -0.659
REMARK  Name = 
REMARK  8 active torsions:
REMARK  status: ('A' for Active; 'I' for Inactive)
REMARK    1  A    between atoms: C_1  and  C_2
REMARK    2  A    between atoms: C_2  and  O_3
REMARK    3  A    between atoms: C_2  and  C_13
REMARK    4  A    between atoms: O_3  and  C_4
REMARK    5  A    between atoms: C_7  and  C_8
REMARK    6  A    between atoms: C_17  and  C_18
REMARK    7  A    between atoms: C_23  and  C_24
REMARK    8  A    between atoms: C_24  and  O_25
REMARK                            x       y       z     vdW  Elec       q    Type
REMARK                         _______ _______ _______ _____ _____    ______ ____
ROOT
ATOM      1  C   UNL     1      49.093   7.014  16.248  0.00  0.00    +0.000 A 
ATOM      2  C   UNL     1      48.675   7.634  17.425  0.00  0.00    +0.000 A 
ATOM      3  C   UNL     1      49.080   7.132  18.657  0.00  0.00    +0.000 A 
ATOM      4  C   UNL     1      49.884   5.988  18.727  0.00  0.00    +0.000 A 
ATOM      5  C   UNL     1      50.345   5.338  17.573  0.00  0.00    +0.000 A 
ATOM      6  C   UNL     1      49.928   5.891  16.338  0.00  0.00    +0.000 A 
ENDROOT
BRANCH   5   7
ATOM      7  C   UNL     1      51.227   4.129  17.573  0.00  0.00    +0.000 A 
ATOM      8  C   UNL     1      52.611   4.333  17.820  0.00  0.00    +0.000 A 
ATOM      9  C   UNL     1      53.502   3.283  18.039  0.00  0.00    +0.000 A 
ATOM     10  C   UNL     1      53.043   1.980  17.989  0.00  0.00    +0.000 A 
ATOM     11  C   UNL     1      51.709   1.735  17.676  0.00  0.00    +0.000 A 
ATOM     12  C   UNL     1      50.787   2.783  17.439  0.00  0.00    +0.000 A 
BRANCH  12  13
ATOM     13  C   UNL     1      49.365   2.416  17.064  0.00  0.00    +0.000 C 
BRANCH  13  14
ATOM     14  O   UNL     1      49.263   1.705  15.831  0.00  0.00    +0.000 OA
ATOM     15  H   UNL     1      50.170   1.615  15.492  0.00  0.00    +0.000 HD
ENDBRANCH  13  14
ENDBRANCH  12  13
ENDBRANCH   5   7
BRANCH   1  17
ATOM     16  C   UNL     1      49.238   8.826  14.449  0.00  0.00    +0.000 C 
ATOM     17  C   UNL     1      48.710   7.507  14.917  0.00  0.00    +0.000 C 
BRANCH  17  18
ATOM     18  O   UNL     1      48.607   6.500  13.966  0.00  0.00    +0.000 OA
BRANCH  18  19
ATOM     19  C   UNL     1      47.355   5.969  13.698  0.00  0.00    +0.000 A 
ATOM     20  C   UNL     1      47.145   4.642  14.076  0.00  0.00    +0.000 A 
ATOM     21  N   UNL     1      45.977   3.979  13.863  0.00  0.00    +0.000 NA
ATOM     22  C   UNL     1      45.007   4.727  13.263  0.00  0.00    +0.000 A 
ATOM     23  C   UNL     1      45.207   6.058  12.909  0.00  0.00    +0.000 A 
ATOM     24  N   UNL     1      46.385   6.711  13.115  0.00  0.00    +0.000 NA
BRANCH  22  25
ATOM     25  C   UNL     1      43.706   4.070  12.955  0.00  0.00    +0.000 C 
ATOM     26  N   UNL     1      43.760   2.740  12.626  0.00  0.00    +0.000 N 
ATOM     27  O   UNL     1      42.647   4.679  12.976  0.00  0.00    +0.000 OA
ATOM     28  H   UNL     1      44.650   2.254  12.606  0.00  0.00    +0.000 HD
ATOM     29  H   UNL     1      42.912   2.254  12.394  0.00  0.00    +0.000 HD
ENDBRANCH  22  25
ENDBRANCH  18  19
ENDBRANCH  17  18
ENDBRANCH   1  17
TORSDOF 7
ENDMDL
MODEL 8
REMARK VINA RESULT:    -6.916      5.309      8.225
REMARK INTER + INTRA:         -10.203
REMARK INTER:                  -9.638
REMARK INTRA:                  -0.565
REMARK UNBOUND:                -0.659
REMARK  Name = 
REMARK  8 active torsions:
REMARK  status: ('A' for Active; 'I' for Inactive)
REMARK    1  A    between atoms: C_1  and  C_2
REMARK    2  A    between atoms: C_2  and  O_3
REMARK    3  A    between atoms: C_2  and  C_13
REMARK    4  A    between atoms: O_3  and  C_4
REMARK    5  A    between atoms: C_7  and  C_8
REMARK    6  A    between atoms: C_17  and  C_18
REMARK    7  A    between atoms: C_23  and  C_24
REMARK    8  A    between atoms: C_24  and  O_25
REMARK                            x       y       z     vdW  Elec       q    Type
REMARK                         _______ _______ _______ _____ _____    ______ ____
ROOT
ATOM      1  C   UNL     1      47.202   7.157  13.553  0.00  0.00    +0.000 A 
ATOM      2  C   UNL     1      46.727   8.461  13.418  0.00  0.00    +0.000 A 
ATOM      3  C   UNL     1      45.692   8.735  12.532  0.00  0.00    +0.000 A 
ATOM      4  C   UNL     1      45.138   7.714  11.750  0.00  0.00    +0.000 A 
ATOM      5  C   UNL     1      45.568   6.384  11.861  0.00  0.00    +0.000 A 
ATOM      6  C   UNL     1      46.609   6.141  12.788  0.00  0.00    +0.000 A 
ENDROOT
BRANCH   5   7
ATOM      7  C   UNL     1      45.004   5.240  11.078  0.00  0.00    +0.000 A 
ATOM      8  C   UNL     1      45.442   5.091   9.735  0.00  0.00    +0.000 A 
ATOM      9  C   UNL     1      45.149   3.967   8.965  0.00  0.00    +0.000 A 
ATOM     10  C   UNL     1      44.376   2.955   9.504  0.00  0.00    +0.000 A 
ATOM     11  C   UNL     1      43.865   3.096  10.791  0.00  0.00    +0.000 A 
ATOM     12  C   UNL     1      44.139   4.232  11.590  0.00  0.00    +0.000 A 
BRANCH  12  13
ATOM     13  C   UNL     1      43.503   4.315  12.963  0.00  0.00    +0.000 C 
BRANCH  13  14
ATOM     14  O   UNL     1      42.522   5.344  13.080  0.00  0.00    +0.000 OA
ATOM     15  H   UNL     1      41.794   4.968  13.601  0.00  0.00    +0.000 HD
ENDBRANCH  13  14
ENDBRANCH  12  13
ENDBRANCH   5   7
BRANCH   1  17
ATOM     16  C   UNL     1      48.793   7.838  15.437  0.00  0.00    +0.000 C 
ATOM     17  C   UNL     1      48.284   6.803  14.484  0.00  0.00    +0.000 C 
BRANCH  17  18
ATOM     18  O   UNL     1      48.194   5.502  14.961  0.00  0.00    +0.000 OA
BRANCH  18  19
ATOM     19  C   UNL     1      48.556   5.253  16.276  0.00  0.00    +0.000 A 
ATOM     20  C   UNL     1      47.521   4.953  17.163  0.00  0.00    +0.000 A 
ATOM     21  N   UNL     1      47.717   4.703  18.485  0.00  0.00    +0.000 NA
ATOM     22  C   UNL     1      49.022   4.747  18.878  0.00  0.00    +0.000 A 
ATOM     23  C   UNL     1      50.058   5.020  17.989  0.00  0.00    +0.000 A 
ATOM     24  N   UNL     1      49.851   5.282  16.669  0.00  0.00    +0.000 NA
BRANCH  22  25
ATOM     25  C   UNL     1      49.328   4.524  20.319  0.00  0.00    +0.000 C 
ATOM     26  N   UNL     1      50.652   4.566  20.673  0.00  0.00    +0.000 N 
ATOM     27  O   UNL     1      48.454   4.302  21.144  0.00  0.00    +0.000 OA
ATOM     28  H   UNL     1      51.363   4.745  19.973  0.00  0.00    +0.000 HD
ATOM     29  H   UNL     1      50.912   4.406  21.631  0.00  0.00    +0.000 HD
ENDBRANCH  22  25
ENDBRANCH  18  19
ENDBRANCH  17  18
ENDBRANCH   1  17
TORSDOF 7
ENDMDL
MODEL 9
REMARK VINA RESULT:    -6.651      4.244      6.883
REMARK INTER + INTRA:          -9.837
REMARK INTER:                  -8.864
REMARK INTRA:                  -0.973
REMARK UNBOUND:                -0.659
REMARK  Name = 
REMARK  8 active torsions:
REMARK  status: ('A' for Active; 'I' for Inactive)
REMARK    1  A    between atoms: C_1  and  C_2
REMARK    2  A    between atoms: C_2  and  O_3
REMARK    3  A    between atoms: C_2  and  C_13
REMARK    4  A    between atoms: O_3  and  C_4
REMARK    5  A    between atoms: C_7  and  C_8
REMARK    6  A    between atoms: C_17  and  C_18
REMARK    7  A    between atoms: C_23  and  C_24
REMARK    8  A    between atoms: C_24  and  O_25
REMARK                            x       y       z     vdW  Elec       q    Type
REMARK                         _______ _______ _______ _____ _____    ______ ____
ROOT
ATOM      1  C   UNL     1      48.303   8.284  15.245  0.00  0.00    +0.000 A 
ATOM      2  C   UNL     1      48.133   9.177  16.302  0.00  0.00    +0.000 A 
ATOM      3  C   UNL     1      48.434   8.783  17.600  0.00  0.00    +0.000 A 
ATOM      4  C   UNL     1      48.882   7.482  17.861  0.00  0.00    +0.000 A 
ATOM      5  C   UNL     1      49.087   6.552  16.832  0.00  0.00    +0.000 A 
ATOM      6  C   UNL     1      48.789   6.997  15.522  0.00  0.00    +0.000 A 
ENDROOT
BRANCH   5   7
ATOM      7  C   UNL     1      49.588   5.156  17.034  0.00  0.00    +0.000 A 
ATOM      8  C   UNL     1      50.982   4.991  17.257  0.00  0.00    +0.000 A 
ATOM      9  C   UNL     1      51.545   3.778  17.650  0.00  0.00    +0.000 A 
ATOM     10  C   UNL     1      50.733   2.670  17.807  0.00  0.00    +0.000 A 
ATOM     11  C   UNL     1      49.374   2.772  17.526  0.00  0.00    +0.000 A 
ATOM     12  C   UNL     1      48.779   3.989  17.115  0.00  0.00    +0.000 A 
BRANCH  12  13
ATOM     13  C   UNL     1      47.298   3.991  16.791  0.00  0.00    +0.000 C 
BRANCH  13  14
ATOM     14  O   UNL     1      46.541   3.060  17.563  0.00  0.00    +0.000 OA
ATOM     15  H   UNL     1      46.027   3.587  18.197  0.00  0.00    +0.000 HD
ENDBRANCH  13  14
ENDBRANCH  12  13
ENDBRANCH   5   7
BRANCH   1  17
ATOM     16  C   UNL     1      48.542   9.940  13.310  0.00  0.00    +0.000 C 
ATOM     17  C   UNL     1      48.016   8.647  13.849  0.00  0.00    +0.000 C 
BRANCH  17  18
ATOM     18  O   UNL     1      48.020   7.560  12.986  0.00  0.00    +0.000 OA
BRANCH  18  19
ATOM     19  C   UNL     1      46.812   6.953  12.679  0.00  0.00    +0.000 A 
ATOM     20  C   UNL     1      45.922   7.692  11.898  0.00  0.00    +0.000 A 
ATOM     21  N   UNL     1      44.694   7.239  11.531  0.00  0.00    +0.000 NA
ATOM     22  C   UNL     1      44.404   5.981  11.972  0.00  0.00    +0.000 A 
ATOM     23  C   UNL     1      45.302   5.233  12.728  0.00  0.00    +0.000 A 
ATOM     24  N   UNL     1      46.525   5.700  13.102  0.00  0.00    +0.000 NA
BRANCH  22  25
ATOM     25  C   UNL     1      43.063   5.418  11.650  0.00  0.00    +0.000 C 
ATOM     26  N   UNL     1      42.004   6.285  11.736  0.00  0.00    +0.000 N 
ATOM     27  O   UNL     1      42.905   4.247  11.340  0.00  0.00    +0.000 OA
ATOM     28  H   UNL     1      42.154   7.251  12.003  0.00  0.00    +0.000 HD
ATOM     29  H   UNL     1      41.075   5.950  11.544  0.00  0.00    +0.000 HD
ENDBRANCH  22  25
ENDBRANCH  18  19
ENDBRANCH  17  18
ENDBRANCH   1  17
TORSDOF 7
ENDMDL
