MODEL 1
REMARK VINA RESULT:    -8.257      0.000      0.000
REMARK INTER + INTRA:         -10.516
REMARK INTER:                 -10.187
REMARK INTRA:                  -0.329
REMARK UNBOUND:                -0.329
REMARK  Name = 
REMARK  4 active torsions:
REMARK  status: ('A' for Active; 'I' for Inactive)
REMARK    1  A    between atoms: C_3  and  C_4
REMARK    2  A    between atoms: C_11  and  C_12
REMARK    3  A    between atoms: C_12  and  O_13
REMARK    4  A    between atoms: O_13  and  C_14
REMARK                            x       y       z     vdW  Elec       q    Type
REMARK                         _______ _______ _______ _____ _____    ______ ____
ROOT
ATOM      1  C   UNL     1      46.979   6.857  11.699  0.00  0.00    +0.000 A 
ATOM      2  C   UNL     1      47.503   6.386  12.901  0.00  0.00    +0.000 A 
ATOM      3  C   UNL     1      46.961   5.262  13.543  0.00  0.00    +0.000 A 
ATOM      4  C   UNL     1      45.873   4.608  12.914  0.00  0.00    +0.000 A 
ATOM      5  C   UNL     1      45.305   5.077  11.711  0.00  0.00    +0.000 A 
ATOM      6  C   UNL     1      45.906   6.202  11.115  0.00  0.00    +0.000 A 
ENDROOT
BRANCH   3   7
ATOM      7  C   UNL     1      47.501   4.802  14.838  0.00  0.00    +0.000 A 
ATOM      8  C   UNL     1      48.117   5.669  15.747  0.00  0.00    +0.000 A 
ATOM      9  N   UNL     1      48.643   5.276  16.933  0.00  0.00    +0.000 NA
ATOM     10  C   UNL     1      48.527   3.959  17.195  0.00  0.00    +0.000 A 
ATOM     11  C   UNL     1      47.915   3.084  16.316  0.00  0.00    +0.000 A 
ATOM     12  N   UNL     1      47.391   3.479  15.128  0.00  0.00    +0.000 NA
ENDBRANCH   3   7
BRANCH   5  13
ATOM     13  C   UNL     1      44.090   4.431  11.053  0.00  0.00    +0.000 C 
ATOM     14  C   UNL     1      42.761   4.664  11.780  0.00  0.00    +0.000 C 
ATOM     15  C   UNL     1      43.325   3.287  11.685  0.00  0.00    +0.000 C 
BRANCH  13  16
ATOM     16  O   UNL     1      43.963   4.587   9.614  0.00  0.00    +0.000 OA
BRANCH  16  17
ATOM     17  C   UNL     1      44.913   3.910   8.870  0.00  0.00    +0.000 A 
ATOM     18  C   UNL     1      45.020   2.548   9.078  0.00  0.00    +0.000 A 
ATOM     19  C   UNL     1      45.963   1.845   8.341  0.00  0.00    +0.000 A 
ATOM     20  C   UNL     1      46.756   2.552   7.458  0.00  0.00    +0.000 A 
ATOM     21  N   UNL     1      46.653   3.888   7.297  0.00  0.00    +0.000 NA
ATOM     22  N   UNL     1      45.720   4.577   8.016  0.00  0.00    +0.000 NA
ENDBRANCH  16  17
ENDBRANCH  13  16
ENDBRANCH   5  13
TORSDOF 4
ENDMDL
MODEL 2
REMARK VINA RESULT:    -7.588      2.346      3.668
REMARK INTER + INTRA:          -9.691
REMARK INTER:                  -9.189
REMARK INTRA:                  -0.502
REMARK UNBOUND:                -0.329
REMARK  Name = 
REMARK  4 active torsions:
REMARK  status: ('A' for Active; 'I' for Inactive)
REMARK    1  A    between atoms: C_3  and  C_4
REMARK    2  A    between atoms: C_11  and  C_12
REMARK    3  A    between atoms: C_12  and  O_13
REMARK    4  A    between atoms: O_13  and  C_14
REMARK                            x       y       z     vdW  Elec       q    Type
REMARK                         _______ _______ _______ _____ _____    ______ ____
ROOT
ATOM      1  C   UNL     1      47.033   4.510  13.564  0.00  0.00    +0.000 A 
ATOM      2  C   UNL     1      47.550   5.776  13.306  0.00  0.00    +0.000 A 
ATOM      3  C   UNL     1      46.964   6.626  12.355  0.00  0.00    +0.000 A 
ATOM      4  C   UNL     1      45.811   6.157  11.679  0.00  0.00    +0.000 A 
ATOM      5  C   UNL     1      45.279   4.869  11.900  0.00  0.00    +0.000 A 
ATOM      6  C   UNL     1      45.909   4.075  12.878  0.00  0.00    +0.000 A 
ENDROOT
BRANCH   3   7
ATOM      7  C   UNL     1      47.552   7.948  12.063  0.00  0.00    +0.000 A 
ATOM      8  C   UNL     1      48.895   8.113  11.707  0.00  0.00    +0.000 A 
ATOM      9  N   UNL     1      49.472   9.313  11.454  0.00  0.00    +0.000 NA
ATOM     10  C   UNL     1      48.645  10.373  11.564  0.00  0.00    +0.000 A 
ATOM     11  C   UNL     1      47.312  10.234  11.906  0.00  0.00    +0.000 A 
ATOM     12  N   UNL     1      46.738   9.031  12.161  0.00  0.00    +0.000 NA
ENDBRANCH   3   7
BRANCH   5  13
ATOM     13  C   UNL     1      44.081   4.317  11.134  0.00  0.00    +0.000 C 
ATOM     14  C   UNL     1      42.728   4.508  11.828  0.00  0.00    +0.000 C 
ATOM     15  C   UNL     1      43.270   3.135  11.621  0.00  0.00    +0.000 C 
BRANCH  13  16
ATOM     16  O   UNL     1      44.017   4.614   9.713  0.00  0.00    +0.000 OA
BRANCH  16  17
ATOM     17  C   UNL     1      44.952   3.952   8.938  0.00  0.00    +0.000 A 
ATOM     18  C   UNL     1      45.050   2.584   9.106  0.00  0.00    +0.000 A 
ATOM     19  C   UNL     1      45.978   1.894   8.337  0.00  0.00    +0.000 A 
ATOM     20  C   UNL     1      46.765   2.619   7.464  0.00  0.00    +0.000 A 
ATOM     21  N   UNL     1      46.671   3.960   7.342  0.00  0.00    +0.000 NA
ATOM     22  N   UNL     1      45.752   4.636   8.093  0.00  0.00    +0.000 NA
ENDBRANCH  16  17
ENDBRANCH  13  16
ENDBRANCH   5  13
TORSDOF 4
ENDMDL
MODEL 3
REMARK VINA RESULT:    -7.231      2.988      4.569
REMARK INTER + INTRA:          -9.251
REMARK INTER:                  -8.727
REMARK INTRA:                  -0.524
REMARK UNBOUND:                -0.329
REMARK  Name = 
REMARK  4 active torsions:
REMARK  status: ('A' for Active; 'I' for Inactive)
REMARK    1  A    between atoms: C_3  and  C_4
REMARK    2  A    between atoms: C_11  and  C_12
REMARK    3  A    between atoms: C_12  and  O_13
REMARK    4  A    between atoms: O_13  and  C_14
REMARK                            x       y       z     vdW  Elec       q    Type
REMARK                         _______ _______ _______ _____ _____    ______ ____
ROOT
ATOM      1  C   UNL     1      47.278   6.289  12.956  0.00  0.00    +0.000 A 
ATOM      2  C   UNL     1      46.963   7.626  12.727  0.00  0.00    +0.000 A 
ATOM      3  C   UNL     1      45.773   7.997  12.082  0.00  0.00    +0.000 A 
ATOM      4  C   UNL     1      44.889   6.961  11.690  0.00  0.00    +0.000 A 
ATOM      5  C   UNL     1      45.193   5.598  11.885  0.00  0.00    +0.000 A 
ATOM      6  C   UNL     1      46.397   5.298  12.550  0.00  0.00    +0.000 A 
ENDROOT
BRANCH   3   7
ATOM      7  C   UNL     1      45.475   9.417  11.809  0.00  0.00    +0.000 A 
ATOM      8  C   UNL     1      46.440  10.424  11.928  0.00  0.00    +0.000 A 
ATOM      9  N   UNL     1      46.196  11.738  11.707  0.00  0.00    +0.000 NA
ATOM     10  C   UNL     1      44.928  12.026  11.348  0.00  0.00    +0.000 A 
ATOM     11  C   UNL     1      43.960  11.047  11.216  0.00  0.00    +0.000 A 
ATOM     12  N   UNL     1      44.206   9.732  11.441  0.00  0.00    +0.000 NA
ENDBRANCH   3   7
BRANCH   5  13
ATOM     13  C   UNL     1      44.289   4.464  11.408  0.00  0.00    +0.000 C 
ATOM     14  C   UNL     1      43.123   4.131  12.344  0.00  0.00    +0.000 C 
ATOM     15  C   UNL     1      44.204   3.129  12.117  0.00  0.00    +0.000 C 
BRANCH  13  16
ATOM     16  O   UNL     1      43.884   4.491  10.013  0.00  0.00    +0.000 OA
BRANCH  16  17
ATOM     17  C   UNL     1      44.834   4.025   9.122  0.00  0.00    +0.000 A 
ATOM     18  C   UNL     1      45.002   2.656   9.043  0.00  0.00    +0.000 A 
ATOM     19  C   UNL     1      45.946   2.161   8.154  0.00  0.00    +0.000 A 
ATOM     20  C   UNL     1      46.680   3.069   7.415  0.00  0.00    +0.000 A 
ATOM     21  N   UNL     1      46.519   4.404   7.535  0.00  0.00    +0.000 NA
ATOM     22  N   UNL     1      45.584   4.889   8.404  0.00  0.00    +0.000 NA
ENDBRANCH  16  17
ENDBRANCH  13  16
ENDBRANCH   5  13
TORSDOF 4
ENDMDL
MODEL 4
REMARK VINA RESULT:    -6.794      3.771      7.048
REMARK INTER + INTRA:          -8.712
REMARK INTER:                  -8.241
REMARK INTRA:                  -0.471
REMARK UNBOUND:                -0.329
REMARK  Name = 
REMARK  4 active torsions:
REMARK  status: ('A' for Active; 'I' for Inactive)
REMARK    1  A    between atoms: C_3  and  C_4
REMARK    2  A    between atoms: C_11  and  C_12
REMARK    3  A    between atoms: C_12  and  O_13
REMARK    4  A    between atoms: O_13  and  C_14
REMARK                            x       y       z     vdW  Elec       q    Type
REMARK                         _______ _______ _______ _____ _____    ______ ____
ROOT
ATOM      1  C   UNL     1      42.945   5.140  11.527  0.00  0.00    +0.000 A 
ATOM      2  C   UNL     1      43.576   4.307  10.607  0.00  0.00    +0.000 A 
ATOM      3  C   UNL     1      44.811   4.652  10.035  0.00  0.00    +0.000 A 
ATOM      4  C   UNL     1      45.404   5.873  10.443  0.00  0.00    +0.000 A 
ATOM      5  C   UNL     1      44.776   6.749  11.353  0.00  0.00    +0.000 A 
ATOM      6  C   UNL     1      43.546   6.333  11.898  0.00  0.00    +0.000 A 
ENDROOT
BRANCH   3   7
ATOM      7  C   UNL     1      45.445   3.778   9.029  0.00  0.00    +0.000 A 
ATOM      8  C   UNL     1      45.463   2.384   9.149  0.00  0.00    +0.000 A 
ATOM      9  N   UNL     1      46.056   1.554   8.256  0.00  0.00    +0.000 NA
ATOM     10  C   UNL     1      46.640   2.171   7.210  0.00  0.00    +0.000 A 
ATOM     11  C   UNL     1      46.628   3.547   7.066  0.00  0.00    +0.000 A 
ATOM     12  N   UNL     1      46.036   4.376   7.962  0.00  0.00    +0.000 NA
ENDBRANCH   3   7
BRANCH   5  13
ATOM     13  C   UNL     1      45.363   8.099  11.753  0.00  0.00    +0.000 C 
ATOM     14  C   UNL     1      46.802   8.048  12.275  0.00  0.00    +0.000 C 
ATOM     15  C   UNL     1      45.696   8.457  13.186  0.00  0.00    +0.000 C 
BRANCH  13  16
ATOM     16  O   UNL     1      45.150   9.205  10.834  0.00  0.00    +0.000 OA
BRANCH  16  17
ATOM     17  C   UNL     1      44.002   9.940  11.065  0.00  0.00    +0.000 A 
ATOM     18  C   UNL     1      42.842   9.501  10.456  0.00  0.00    +0.000 A 
ATOM     19  C   UNL     1      41.674  10.219  10.675  0.00  0.00    +0.000 A 
ATOM     20  C   UNL     1      41.744  11.345  11.472  0.00  0.00    +0.000 A 
ATOM     21  N   UNL     1      42.897  11.771  12.029  0.00  0.00    +0.000 NA
ATOM     22  N   UNL     1      44.043  11.059  11.821  0.00  0.00    +0.000 NA
ENDBRANCH  16  17
ENDBRANCH  13  16
ENDBRANCH   5  13
TORSDOF 4
ENDMDL
MODEL 5
REMARK VINA RESULT:    -6.628      2.917      6.983
REMARK INTER + INTRA:          -8.507
REMARK INTER:                  -8.339
REMARK INTRA:                  -0.168
REMARK UNBOUND:                -0.329
REMARK  Name = 
REMARK  4 active torsions:
REMARK  status: ('A' for Active; 'I' for Inactive)
REMARK    1  A    between atoms: C_3  and  C_4
REMARK    2  A    between atoms: C_11  and  C_12
REMARK    3  A    between atoms: C_12  and  O_13
REMARK    4  A    between atoms: O_13  and  C_14
REMARK                            x       y       z     vdW  Elec       q    Type
REMARK                         _______ _______ _______ _____ _____    ______ ____
ROOT
ATOM      1  C   UNL     1      48.382   7.281  12.124  0.00  0.00    +0.000 A 
ATOM      2  C   UNL     1      47.253   6.564  11.736  0.00  0.00    +0.000 A 
ATOM      3  C   UNL     1      46.543   5.767  12.648  0.00  0.00    +0.000 A 
ATOM      4  C   UNL     1      47.006   5.733  13.987  0.00  0.00    +0.000 A 
ATOM      5  C   UNL     1      48.161   6.427  14.403  0.00  0.00    +0.000 A 
ATOM      6  C   UNL     1      48.815   7.218  13.440  0.00  0.00    +0.000 A 
ENDROOT
BRANCH   3   7
ATOM      7  C   UNL     1      45.374   4.980  12.209  0.00  0.00    +0.000 A 
ATOM      8  C   UNL     1      44.583   5.353  11.117  0.00  0.00    +0.000 A 
ATOM      9  N   UNL     1      43.490   4.667  10.702  0.00  0.00    +0.000 NA
ATOM     10  C   UNL     1      43.207   3.564  11.424  0.00  0.00    +0.000 A 
ATOM     11  C   UNL     1      43.979   3.170  12.502  0.00  0.00    +0.000 A 
ATOM     12  N   UNL     1      45.071   3.861  12.917  0.00  0.00    +0.000 NA
ENDBRANCH   3   7
BRANCH   5  13
ATOM     13  C   UNL     1      48.716   6.350  15.822  0.00  0.00    +0.000 C 
ATOM     14  C   UNL     1      48.865   7.699  16.532  0.00  0.00    +0.000 C 
ATOM     15  C   UNL     1      50.076   6.896  16.202  0.00  0.00    +0.000 C 
BRANCH  13  16
ATOM     16  O   UNL     1      48.154   5.330  16.692  0.00  0.00    +0.000 OA
BRANCH  16  17
ATOM     17  C   UNL     1      48.884   4.158  16.762  0.00  0.00    +0.000 A 
ATOM     18  C   UNL     1      50.004   4.163  17.572  0.00  0.00    +0.000 A 
ATOM     19  C   UNL     1      50.752   2.997  17.663  0.00  0.00    +0.000 A 
ATOM     20  C   UNL     1      50.347   1.906  16.919  0.00  0.00    +0.000 A 
ATOM     21  N   UNL     1      49.268   1.937  16.109  0.00  0.00    +0.000 NA
ATOM     22  N   UNL     1      48.527   3.082  16.027  0.00  0.00    +0.000 NA
ENDBRANCH  16  17
ENDBRANCH  13  16
ENDBRANCH   5  13
TORSDOF 4
ENDMDL
MODEL 6
REMARK VINA RESULT:    -6.337      3.101      8.275
REMARK INTER + INTRA:          -8.148
REMARK INTER:                  -7.695
REMARK INTRA:                  -0.453
REMARK UNBOUND:                -0.329
REMARK  Name = 
REMARK  4 active torsions:
REMARK  status: ('A' for Active; 'I' for Inactive)
REMARK    1  A    between atoms: C_3  and  C_4
REMARK    2  A    between atoms: C_11  and  C_12
REMARK    3  A    between atoms: C_12  and  O_13
REMARK    4  A    between atoms: O_13  and  C_14
REMARK                            x       y       z     vdW  Elec       q    Type
REMARK                         _______ _______ _______ _____ _____    ______ ____
ROOT
ATOM      1  C   UNL     1      48.190   6.809  14.262  0.00  0.00    +0.000 A 
ATOM      2  C   UNL     1      47.193   6.370  13.395  0.00  0.00    +0.000 A 
ATOM      3  C   UNL     1      46.469   5.194  13.649  0.00  0.00    +0.000 A 
ATOM      4  C   UNL     1      46.775   4.479  14.833  0.00  0.00    +0.000 A 
ATOM      5  C   UNL     1      47.797   4.885  15.716  0.00  0.00    +0.000 A 
ATOM      6  C   UNL     1      48.473   6.081  15.407  0.00  0.00    +0.000 A 
ENDROOT
BRANCH   3   7
ATOM      7  C   UNL     1      45.445   4.720  12.697  0.00  0.00    +0.000 A 
ATOM      8  C   UNL     1      45.296   5.268  11.418  0.00  0.00    +0.000 A 
ATOM      9  N   UNL     1      44.353   4.872  10.529  0.00  0.00    +0.000 NA
ATOM     10  C   UNL     1      43.545   3.882  10.962  0.00  0.00    +0.000 A 
ATOM     11  C   UNL     1      43.679   3.320  12.218  0.00  0.00    +0.000 A 
ATOM     12  N   UNL     1      44.622   3.720  13.108  0.00  0.00    +0.000 NA
ENDBRANCH   3   7
BRANCH   5  13
ATOM     13  C   UNL     1      48.191   4.093  16.959  0.00  0.00    +0.000 C 
ATOM     14  C   UNL     1      48.532   2.621  16.706  0.00  0.00    +0.000 C 
ATOM     15  C   UNL     1      47.339   2.977  17.525  0.00  0.00    +0.000 C 
BRANCH  13  16
ATOM     16  O   UNL     1      49.129   4.726  17.870  0.00  0.00    +0.000 OA
BRANCH  16  17
ATOM     17  C   UNL     1      48.606   5.055  19.108  0.00  0.00    +0.000 A 
ATOM     18  C   UNL     1      47.852   6.210  19.186  0.00  0.00    +0.000 A 
ATOM     19  C   UNL     1      47.313   6.560  20.416  0.00  0.00    +0.000 A 
ATOM     20  C   UNL     1      47.580   5.743  21.498  0.00  0.00    +0.000 A 
ATOM     21  N   UNL     1      48.347   4.637  21.402  0.00  0.00    +0.000 NA
ATOM     22  N   UNL     1      48.870   4.289  20.190  0.00  0.00    +0.000 NA
ENDBRANCH  16  17
ENDBRANCH  13  16
ENDBRANCH   5  13
TORSDOF 4
ENDMDL
MODEL 7
REMARK VINA RESULT:    -6.140      2.500      7.171
REMARK INTER + INTRA:          -7.905
REMARK INTER:                  -7.329
REMARK INTRA:                  -0.576
REMARK UNBOUND:                -0.329
REMARK  Name = 
REMARK  4 active torsions:
REMARK  status: ('A' for Active; 'I' for Inactive)
REMARK    1  A    between atoms: C_3  and  C_4
REMARK    2  A    between atoms: C_11  and  C_12
REMARK    3  A    between atoms: C_12  and  O_13
REMARK    4  A    between atoms: O_13  and  C_14
REMARK                            x       y       z     vdW  Elec       q    Type
REMARK                         _______ _______ _______ _____ _____    ______ ____
ROOT
ATOM      1  C   UNL     1      45.102   8.642  12.037  0.00  0.00    +0.000 A 
ATOM      2  C   UNL     1      44.715   7.493  11.353  0.00  0.00    +0.000 A 
ATOM      3  C   UNL     1      45.602   6.421  11.161  0.00  0.00    +0.000 A 
ATOM      4  C   UNL     1      46.904   6.542  11.709  0.00  0.00    +0.000 A 
ATOM      5  C   UNL     1      47.332   7.704  12.384  0.00  0.00    +0.000 A 
ATOM      6  C   UNL     1      46.387   8.734  12.551  0.00  0.00    +0.000 A 
ENDROOT
BRANCH   3   7
ATOM      7  C   UNL     1      45.188   5.228  10.397  0.00  0.00    +0.000 A 
ATOM      8  C   UNL     1      44.363   4.237  10.939  0.00  0.00    +0.000 A 
ATOM      9  N   UNL     1      43.983   3.119  10.273  0.00  0.00    +0.000 NA
ATOM     10  C   UNL     1      44.457   3.020   9.015  0.00  0.00    +0.000 A 
ATOM     11  C   UNL     1      45.267   3.992   8.455  0.00  0.00    +0.000 A 
ATOM     12  N   UNL     1      45.649   5.109   9.124  0.00  0.00    +0.000 NA
ENDBRANCH   3   7
BRANCH   5  13
ATOM     13  C   UNL     1      48.750   7.884  12.920  0.00  0.00    +0.000 C 
ATOM     14  C   UNL     1      49.689   8.680  12.008  0.00  0.00    +0.000 C 
ATOM     15  C   UNL     1      49.958   7.239  12.276  0.00  0.00    +0.000 C 
BRANCH  13  16
ATOM     16  O   UNL     1      48.879   8.271  14.314  0.00  0.00    +0.000 OA
BRANCH  16  17
ATOM     17  C   UNL     1      49.099   7.224  15.191  0.00  0.00    +0.000 A 
ATOM     18  C   UNL     1      50.234   7.290  15.976  0.00  0.00    +0.000 A 
ATOM     19  C   UNL     1      50.476   6.253  16.867  0.00  0.00    +0.000 A 
ATOM     20  C   UNL     1      49.580   5.203  16.900  0.00  0.00    +0.000 A 
ATOM     21  N   UNL     1      48.495   5.147  16.099  0.00  0.00    +0.000 NA
ATOM     22  N   UNL     1      48.253   6.171  15.230  0.00  0.00    +0.000 NA
ENDBRANCH  16  17
ENDBRANCH  13  16
ENDBRANCH   5  13
TORSDOF 4
ENDMDL
MODEL 8
REMARK VINA RESULT:    -5.610      3.089      6.650
REMARK INTER + INTRA:          -7.250
REMARK INTER:                  -7.217
REMARK INTRA:                  -0.033
REMARK UNBOUND:                -0.329
REMARK  Name = 
REMARK  4 active torsions:
REMARK  status: ('A' for Active; 'I' for Inactive)
REMARK    1  A    between atoms: C_3  and  C_4
REMARK    2  A    between atoms: C_11  and  C_12
REMARK    3  A    between atoms: C_12  and  O_13
REMARK    4  A    between atoms: O_13  and  C_14
REMARK                            x       y       z     vdW  Elec       q    Type
REMARK                         _______ _______ _______ _____ _____    ______ ____
ROOT
ATOM      1  C   UNL     1      43.016   5.532  11.378  0.00  0.00    +0.000 A 
ATOM      2  C   UNL     1      43.582   4.648  10.463  0.00  0.00    +0.000 A 
ATOM      3  C   UNL     1      44.943   4.714  10.127  0.00  0.00    +0.000 A 
ATOM      4  C   UNL     1      45.730   5.702  10.770  0.00  0.00    +0.000 A 
ATOM      5  C   UNL     1      45.179   6.628  11.682  0.00  0.00    +0.000 A 
ATOM      6  C   UNL     1      43.810   6.495  11.982  0.00  0.00    +0.000 A 
ENDROOT
BRANCH   3   7
ATOM      7  C   UNL     1      45.517   3.797   9.122  0.00  0.00    +0.000 A 
ATOM      8  C   UNL     1      46.175   4.255   7.975  0.00  0.00    +0.000 A 
ATOM      9  N   UNL     1      46.693   3.442   7.023  0.00  0.00    +0.000 NA
ATOM     10  C   UNL     1      46.537   2.123   7.258  0.00  0.00    +0.000 A 
ATOM     11  C   UNL     1      45.898   1.647   8.389  0.00  0.00    +0.000 A 
ATOM     12  N   UNL     1      45.377   2.463   9.339  0.00  0.00    +0.000 NA
ENDBRANCH   3   7
BRANCH   5  13
ATOM     13  C   UNL     1      45.992   7.743  12.332  0.00  0.00    +0.000 C 
ATOM     14  C   UNL     1      45.164   8.910  12.879  0.00  0.00    +0.000 C 
ATOM     15  C   UNL     1      46.100   9.132  11.741  0.00  0.00    +0.000 C 
BRANCH  13  16
ATOM     16  O   UNL     1      47.044   7.338  13.250  0.00  0.00    +0.000 OA
BRANCH  16  17
ATOM     17  C   UNL     1      48.304   7.814  12.935  0.00  0.00    +0.000 A 
ATOM     18  C   UNL     1      48.930   7.257  11.837  0.00  0.00    +0.000 A 
ATOM     19  C   UNL     1      50.194   7.720  11.498  0.00  0.00    +0.000 A 
ATOM     20  C   UNL     1      50.763   8.696  12.293  0.00  0.00    +0.000 A 
ATOM     21  N   UNL     1      50.143   9.201  13.380  0.00  0.00    +0.000 NA
ATOM     22  N   UNL     1      48.896   8.751  13.708  0.00  0.00    +0.000 NA
ENDBRANCH  16  17
ENDBRANCH  13  16
ENDBRANCH   5  13
TORSDOF 4
ENDMDL
MODEL 9
REMARK VINA RESULT:    -5.563      2.670      3.631
REMARK INTER + INTRA:          -7.193
REMARK INTER:                  -6.706
REMARK INTRA:                  -0.487
REMARK UNBOUND:                -0.329
REMARK  Name = 
REMARK  4 active torsions:
REMARK  status: ('A' for Active; 'I' for Inactive)
REMARK    1  A    between atoms: C_3  and  C_4
REMARK    2  A    between atoms: C_11  and  C_12
REMARK    3  A    between atoms: C_12  and  O_13
REMARK    4  A    between atoms: O_13  and  C_14
REMARK                            x       y       z     vdW  Elec       q    Type
REMARK                         _______ _______ _______ _____ _____    ______ ____
ROOT
ATOM      1  C   UNL     1      49.774   7.857  12.301  0.00  0.00    +0.000 A 
ATOM      2  C   UNL     1      49.996   7.578  13.647  0.00  0.00    +0.000 A 
ATOM      3  C   UNL     1      48.958   7.138  14.484  0.00  0.00    +0.000 A 
ATOM      4  C   UNL     1      47.677   6.966  13.903  0.00  0.00    +0.000 A 
ATOM      5  C   UNL     1      47.416   7.265  12.550  0.00  0.00    +0.000 A 
ATOM      6  C   UNL     1      48.506   7.689  11.766  0.00  0.00    +0.000 A 
ENDROOT
BRANCH   3   7
ATOM      7  C   UNL     1      49.202   6.889  15.918  0.00  0.00    +0.000 A 
ATOM      8  C   UNL     1      48.905   7.834  16.906  0.00  0.00    +0.000 A 
ATOM      9  N   UNL     1      49.136   7.646  18.228  0.00  0.00    +0.000 NA
ATOM     10  C   UNL     1      49.681   6.454  18.545  0.00  0.00    +0.000 A 
ATOM     11  C   UNL     1      49.975   5.501  17.586  0.00  0.00    +0.000 A 
ATOM     12  N   UNL     1      49.745   5.693  16.263  0.00  0.00    +0.000 NA
ENDBRANCH   3   7
BRANCH   5  13
ATOM     13  C   UNL     1      46.030   7.154  11.922  0.00  0.00    +0.000 C 
ATOM     14  C   UNL     1      45.395   8.489  11.520  0.00  0.00    +0.000 C 
ATOM     15  C   UNL     1      44.778   7.668  12.600  0.00  0.00    +0.000 C 
BRANCH  13  16
ATOM     16  O   UNL     1      45.851   6.132  10.905  0.00  0.00    +0.000 OA
BRANCH  16  17
ATOM     17  C   UNL     1      45.150   5.014  11.321  0.00  0.00    +0.000 A 
ATOM     18  C   UNL     1      44.016   4.681  10.605  0.00  0.00    +0.000 A 
ATOM     19  C   UNL     1      43.297   3.561  11.000  0.00  0.00    +0.000 A 
ATOM     20  C   UNL     1      43.745   2.857  12.101  0.00  0.00    +0.000 A 
ATOM     21  N   UNL     1      44.839   3.222  12.802  0.00  0.00    +0.000 NA
ATOM     22  N   UNL     1      45.550   4.319  12.408  0.00  0.00    +0.000 NA
ENDBRANCH  16  17
ENDBRANCH  13  16
ENDBRANCH   5  13
TORSDOF 4
ENDMDL
