MODEL 1
REMARK VINA RESULT:    -7.682      0.000      0.000
REMARK INTER + INTRA:         -11.881
REMARK INTER:                 -10.825
REMARK INTRA:                  -1.056
REMARK UNBOUND:                -1.056
REMARK  Name = 
REMARK  8 active torsions:
REMARK  status: ('A' for Active; 'I' for Inactive)
REMARK    1  A    between atoms: C_1  and  N_2
REMARK    2  A    between atoms: N_2  and  C_3
REMARK    3  A    between atoms: C_3  and  C_4
REMARK    4  A    between atoms: C_8  and  C_9
REMARK    5  A    between atoms: C_9  and  C_10
REMARK    6  A    between atoms: C_13  and  C_14
REMARK    7  A    between atoms: C_14  and  N_15
REMARK    8  A    between atoms: C_16  and  C_18
REMARK                            x       y       z     vdW  Elec       q    Type
REMARK                         _______ _______ _______ _____ _____    ______ ____
ROOT
ATOM      1  C   UNL     1      44.775   6.235  11.193  0.00  0.00    +0.000 A 
ATOM      2  C   UNL     1      46.000   5.644  11.533  0.00  0.00    +0.000 A 
ATOM      3  C   UNL     1      46.919   6.319  12.340  0.00  0.00    +0.000 A 
ATOM      4  C   UNL     1      46.638   7.606  12.813  0.00  0.00    +0.000 A 
ATOM      5  C   UNL     1      45.450   8.228  12.407  0.00  0.00    +0.000 A 
ATOM      6  C   UNL     1      44.520   7.545  11.616  0.00  0.00    +0.000 A 
ENDROOT
BRANCH   1   7
ATOM      7  C   UNL     1      43.733   5.456  10.421  0.00  0.00    +0.000 C 
BRANCH   7  12
ATOM      8  C   UNL     1      45.550   3.337   7.988  0.00  0.00    +0.000 A 
ATOM      9  C   UNL     1      45.376   2.040   8.464  0.00  0.00    +0.000 A 
ATOM     10  C   UNL     1      44.590   1.843   9.591  0.00  0.00    +0.000 A 
ATOM     11  C   UNL     1      44.020   2.944  10.221  0.00  0.00    +0.000 A 
ATOM     12  C   UNL     1      44.254   4.221   9.712  0.00  0.00    +0.000 A 
ATOM     13  N   UNL     1      45.011   4.423   8.602  0.00  0.00    +0.000 NA
BRANCH   8  14
ATOM     14  C   UNL     1      46.313   3.572   6.699  0.00  0.00    +0.000 C 
BRANCH  14  16
ATOM     15  C   UNL     1      48.182   2.059   6.387  0.00  0.00    +0.000 C 
ATOM     16  N   UNL     1      47.774   3.395   6.820  0.00  0.00    +0.000 NA
ATOM     17  H   UNL     1      48.224   4.082   6.218  0.00  0.00    +0.000 HD
ENDBRANCH  14  16
ENDBRANCH   8  14
ENDBRANCH   7  12
ENDBRANCH   1   7
BRANCH   4  18
ATOM     18  C   UNL     1      47.587   8.316  13.743  0.00  0.00    +0.000 C 
BRANCH  18  19
ATOM     19  N   UNL     1      47.872   7.532  14.917  0.00  0.00    +0.000 N 
ATOM     20  C   UNL     1      49.114   6.981  15.110  0.00  0.00    +0.000 C 
ATOM     21  O   UNL     1      50.042   7.174  14.329  0.00  0.00    +0.000 OA
ATOM     22  H   UNL     1      47.077   7.160  15.426  0.00  0.00    +0.000 HD
BRANCH  20  23
ATOM     23  C   UNL     1      49.299   6.195  16.335  0.00  0.00    +0.000 A 
ATOM     24  C   UNL     1      50.306   6.535  17.229  0.00  0.00    +0.000 A 
ATOM     25  S   UNL     1      50.364   5.534  18.608  0.00  0.00    +0.000 S 
ATOM     26  C   UNL     1      49.074   4.583  18.039  0.00  0.00    +0.000 A 
ATOM     27  N   UNL     1      48.632   3.508  18.746  0.00  0.00    +0.000 NA
ATOM     28  C   UNL     1      47.664   2.863  18.187  0.00  0.00    +0.000 A 
ATOM     29  N   UNL     1      47.092   3.200  16.988  0.00  0.00    +0.000 N 
ATOM     30  C   UNL     1      47.486   4.287  16.252  0.00  0.00    +0.000 A 
ATOM     31  O   UNL     1      46.923   4.588  15.203  0.00  0.00    +0.000 OA
ATOM     32  C   UNL     1      48.588   5.040  16.826  0.00  0.00    +0.000 A 
ATOM     33  H   UNL     1      46.324   2.661  16.612  0.00  0.00    +0.000 HD
ENDBRANCH  20  23
ENDBRANCH  18  19
ENDBRANCH   4  18
TORSDOF 7
ENDMDL
MODEL 2
REMARK VINA RESULT:    -7.191      2.222      2.733
REMARK INTER + INTRA:         -11.189
REMARK INTER:                 -10.066
REMARK INTRA:                  -1.124
REMARK UNBOUND:                -1.056
REMARK  Name = 
REMARK  8 active torsions:
REMARK  status: ('A' for Active; 'I' for Inactive)
REMARK    1  A    between atoms: C_1  and  N_2
REMARK    2  A    between atoms: N_2  and  C_3
REMARK    3  A    between atoms: C_3  and  C_4
REMARK    4  A    between atoms: C_8  and  C_9
REMARK    5  A    between atoms: C_9  and  C_10
REMARK    6  A    between atoms: C_13  and  C_14
REMARK    7  A    between atoms: C_14  and  N_15
REMARK    8  A    between atoms: C_16  and  C_18
REMARK                            x       y       z     vdW  Elec       q    Type
REMARK                         _______ _______ _______ _____ _____    ______ ____
ROOT
ATOM      1  C   UNL     1      45.267   5.778  11.919  0.00  0.00    +0.000 A 
ATOM      2  C   UNL     1      46.029   6.930  11.681  0.00  0.00    +0.000 A 
ATOM      3  C   UNL     1      47.109   7.255  12.505  0.00  0.00    +0.000 A 
ATOM      4  C   UNL     1      47.444   6.439  13.593  0.00  0.00    +0.000 A 
ATOM      5  C   UNL     1      46.634   5.331  13.877  0.00  0.00    +0.000 A 
ATOM      6  C   UNL     1      45.564   4.994  13.041  0.00  0.00    +0.000 A 
ENDROOT
BRANCH   1   7
ATOM      7  C   UNL     1      44.175   5.365  10.956  0.00  0.00    +0.000 C 
BRANCH   7  12
ATOM      8  C   UNL     1      45.788   3.531   8.173  0.00  0.00    +0.000 A 
ATOM      9  C   UNL     1      45.402   2.208   8.363  0.00  0.00    +0.000 A 
ATOM     10  C   UNL     1      44.537   1.909   9.407  0.00  0.00    +0.000 A 
ATOM     11  C   UNL     1      44.102   2.933  10.241  0.00  0.00    +0.000 A 
ATOM     12  C   UNL     1      44.547   4.235  10.016  0.00  0.00    +0.000 A 
ATOM     13  N   UNL     1      45.383   4.539   8.989  0.00  0.00    +0.000 NA
BRANCH   8  14
ATOM     14  C   UNL     1      46.644   3.904   6.977  0.00  0.00    +0.000 C 
BRANCH  14  16
ATOM     15  C   UNL     1      47.752   2.387   5.446  0.00  0.00    +0.000 C 
ATOM     16  N   UNL     1      47.804   3.016   6.764  0.00  0.00    +0.000 NA
ATOM     17  H   UNL     1      48.648   3.583   6.820  0.00  0.00    +0.000 HD
ENDBRANCH  14  16
ENDBRANCH   8  14
ENDBRANCH   7  12
ENDBRANCH   1   7
BRANCH   4  18
ATOM     18  C   UNL     1      48.649   6.737  14.445  0.00  0.00    +0.000 C 
BRANCH  18  19
ATOM     19  N   UNL     1      48.386   6.508  15.843  0.00  0.00    +0.000 N 
ATOM     20  C   UNL     1      49.392   6.125  16.695  0.00  0.00    +0.000 C 
ATOM     21  O   UNL     1      50.557   6.014  16.321  0.00  0.00    +0.000 OA
ATOM     22  H   UNL     1      47.420   6.348  16.109  0.00  0.00    +0.000 HD
BRANCH  20  23
ATOM     23  C   UNL     1      49.016   5.912  18.097  0.00  0.00    +0.000 A 
ATOM     24  C   UNL     1      49.206   4.666  18.681  0.00  0.00    +0.000 A 
ATOM     25  S   UNL     1      48.740   4.599  20.319  0.00  0.00    +0.000 S 
ATOM     26  C   UNL     1      48.226   6.220  20.295  0.00  0.00    +0.000 A 
ATOM     27  N   UNL     1      47.678   6.796  21.399  0.00  0.00    +0.000 NA
ATOM     28  C   UNL     1      47.311   8.022  21.234  0.00  0.00    +0.000 A 
ATOM     29  N   UNL     1      47.451   8.728  20.067  0.00  0.00    +0.000 N 
ATOM     30  C   UNL     1      48.019   8.199  18.938  0.00  0.00    +0.000 A 
ATOM     31  O   UNL     1      48.170   8.871  17.921  0.00  0.00    +0.000 OA
ATOM     32  C   UNL     1      48.434   6.812  19.061  0.00  0.00    +0.000 A 
ATOM     33  H   UNL     1      47.157   9.693  20.008  0.00  0.00    +0.000 HD
ENDBRANCH  20  23
ENDBRANCH  18  19
ENDBRANCH   4  18
TORSDOF 7
ENDMDL
MODEL 3
REMARK VINA RESULT:    -7.105      4.593      9.688
REMARK INTER + INTRA:         -11.068
REMARK INTER:                 -10.236
REMARK INTRA:                  -0.832
REMARK UNBOUND:                -1.056
REMARK  Name = 
REMARK  8 active torsions:
REMARK  status: ('A' for Active; 'I' for Inactive)
REMARK    1  A    between atoms: C_1  and  N_2
REMARK    2  A    between atoms: N_2  and  C_3
REMARK    3  A    between atoms: C_3  and  C_4
REMARK    4  A    between atoms: C_8  and  C_9
REMARK    5  A    between atoms: C_9  and  C_10
REMARK    6  A    between atoms: C_13  and  C_14
REMARK    7  A    between atoms: C_14  and  N_15
REMARK    8  A    between atoms: C_16  and  C_18
REMARK                            x       y       z     vdW  Elec       q    Type
REMARK                         _______ _______ _______ _____ _____    ______ ____
ROOT
ATOM      1  C   UNL     1      51.787   3.124  17.969  0.00  0.00    +0.000 A 
ATOM      2  C   UNL     1      51.117   4.347  18.117  0.00  0.00    +0.000 A 
ATOM      3  C   UNL     1      49.765   4.466  17.787  0.00  0.00    +0.000 A 
ATOM      4  C   UNL     1      49.056   3.366  17.289  0.00  0.00    +0.000 A 
ATOM      5  C   UNL     1      49.744   2.167  17.065  0.00  0.00    +0.000 A 
ATOM      6  C   UNL     1      51.093   2.041  17.415  0.00  0.00    +0.000 A 
ENDROOT
BRANCH   1   7
ATOM      7  C   UNL     1      53.216   2.967  18.439  0.00  0.00    +0.000 C 
BRANCH   7  12
ATOM      8  C   UNL     1      54.279  -0.572  18.201  0.00  0.00    +0.000 A 
ATOM      9  C   UNL     1      55.017  -0.632  17.022  0.00  0.00    +0.000 A 
ATOM     10  C   UNL     1      55.223   0.539  16.305  0.00  0.00    +0.000 A 
ATOM     11  C   UNL     1      54.670   1.727  16.771  0.00  0.00    +0.000 A 
ATOM     12  C   UNL     1      53.917   1.716  17.946  0.00  0.00    +0.000 A 
ATOM     13  N   UNL     1      53.721   0.579  18.661  0.00  0.00    +0.000 NA
BRANCH   8  14
ATOM     14  C   UNL     1      54.130  -1.812  19.062  0.00  0.00    +0.000 C 
BRANCH  14  16
ATOM     15  C   UNL     1      52.644  -3.126  20.455  0.00  0.00    +0.000 C 
ATOM     16  N   UNL     1      52.730  -2.197  19.329  0.00  0.00    +0.000 NA
ATOM     17  H   UNL     1      52.212  -1.353  19.565  0.00  0.00    +0.000 HD
ENDBRANCH  14  16
ENDBRANCH   8  14
ENDBRANCH   7  12
ENDBRANCH   1   7
BRANCH   4  18
ATOM     18  C   UNL     1      47.581   3.461  16.998  0.00  0.00    +0.000 C 
BRANCH  18  19
ATOM     19  N   UNL     1      47.291   4.491  16.034  0.00  0.00    +0.000 N 
ATOM     20  C   UNL     1      47.214   4.201  14.695  0.00  0.00    +0.000 C 
ATOM     21  O   UNL     1      47.334   3.055  14.268  0.00  0.00    +0.000 OA
ATOM     22  H   UNL     1      47.440   5.451  16.328  0.00  0.00    +0.000 HD
BRANCH  20  23
ATOM     23  C   UNL     1      46.920   5.323  13.797  0.00  0.00    +0.000 A 
ATOM     24  C   UNL     1      47.867   6.321  13.606  0.00  0.00    +0.000 A 
ATOM     25  S   UNL     1      47.373   7.534  12.515  0.00  0.00    +0.000 S 
ATOM     26  C   UNL     1      45.859   6.793  12.292  0.00  0.00    +0.000 A 
ATOM     27  N   UNL     1      44.918   7.351  11.482  0.00  0.00    +0.000 NA
ATOM     28  C   UNL     1      43.808   6.695  11.423  0.00  0.00    +0.000 A 
ATOM     29  N   UNL     1      43.555   5.528  12.094  0.00  0.00    +0.000 N 
ATOM     30  C   UNL     1      44.478   4.915  12.901  0.00  0.00    +0.000 A 
ATOM     31  O   UNL     1      44.236   3.845  13.454  0.00  0.00    +0.000 OA
ATOM     32  C   UNL     1      45.742   5.620  13.020  0.00  0.00    +0.000 A 
ATOM     33  H   UNL     1      42.668   5.055  11.992  0.00  0.00    +0.000 HD
ENDBRANCH  20  23
ENDBRANCH  18  19
ENDBRANCH   4  18
TORSDOF 7
ENDMDL
MODEL 4
REMARK VINA RESULT:    -7.054      1.942      2.274
REMARK INTER + INTRA:         -10.996
REMARK INTER:                  -9.956
REMARK INTRA:                  -1.040
REMARK UNBOUND:                -1.056
REMARK  Name = 
REMARK  8 active torsions:
REMARK  status: ('A' for Active; 'I' for Inactive)
REMARK    1  A    between atoms: C_1  and  N_2
REMARK    2  A    between atoms: N_2  and  C_3
REMARK    3  A    between atoms: C_3  and  C_4
REMARK    4  A    between atoms: C_8  and  C_9
REMARK    5  A    between atoms: C_9  and  C_10
REMARK    6  A    between atoms: C_13  and  C_14
REMARK    7  A    between atoms: C_14  and  N_15
REMARK    8  A    between atoms: C_16  and  C_18
REMARK                            x       y       z     vdW  Elec       q    Type
REMARK                         _______ _______ _______ _____ _____    ______ ____
ROOT
ATOM      1  C   UNL     1      45.716   5.910  11.873  0.00  0.00    +0.000 A 
ATOM      2  C   UNL     1      46.152   5.038  12.881  0.00  0.00    +0.000 A 
ATOM      3  C   UNL     1      47.221   5.383  13.711  0.00  0.00    +0.000 A 
ATOM      4  C   UNL     1      47.885   6.605  13.544  0.00  0.00    +0.000 A 
ATOM      5  C   UNL     1      47.501   7.440  12.486  0.00  0.00    +0.000 A 
ATOM      6  C   UNL     1      46.418   7.104  11.667  0.00  0.00    +0.000 A 
ENDROOT
BRANCH   1   7
ATOM      7  C   UNL     1      44.486   5.586  11.055  0.00  0.00    +0.000 C 
BRANCH   7  12
ATOM      8  C   UNL     1      45.517   3.425   8.231  0.00  0.00    +0.000 A 
ATOM      9  C   UNL     1      45.036   2.163   8.569  0.00  0.00    +0.000 A 
ATOM     10  C   UNL     1      44.300   2.022   9.737  0.00  0.00    +0.000 A 
ATOM     11  C   UNL     1      44.083   3.135  10.542  0.00  0.00    +0.000 A 
ATOM     12  C   UNL     1      44.614   4.367  10.162  0.00  0.00    +0.000 A 
ATOM     13  N   UNL     1      45.326   4.518   9.015  0.00  0.00    +0.000 NA
BRANCH   8  14
ATOM     14  C   UNL     1      46.231   3.631   6.909  0.00  0.00    +0.000 C 
BRANCH  14  16
ATOM     15  C   UNL     1      48.016   2.023   6.591  0.00  0.00    +0.000 C 
ATOM     16  N   UNL     1      47.687   3.397   6.965  0.00  0.00    +0.000 NA
ATOM     17  H   UNL     1      48.133   4.029   6.303  0.00  0.00    +0.000 HD
ENDBRANCH  14  16
ENDBRANCH   8  14
ENDBRANCH   7  12
ENDBRANCH   1   7
BRANCH   4  18
ATOM     18  C   UNL     1      48.990   7.023  14.478  0.00  0.00    +0.000 C 
BRANCH  18  19
ATOM     19  N   UNL     1      48.588   6.927  15.859  0.00  0.00    +0.000 N 
ATOM     20  C   UNL     1      49.170   7.717  16.817  0.00  0.00    +0.000 C 
ATOM     21  O   UNL     1      50.010   8.569  16.539  0.00  0.00    +0.000 OA
ATOM     22  H   UNL     1      48.101   6.081  16.138  0.00  0.00    +0.000 HD
BRANCH  20  23
ATOM     23  C   UNL     1      48.694   7.536  18.194  0.00  0.00    +0.000 A 
ATOM     24  C   UNL     1      48.070   8.587  18.852  0.00  0.00    +0.000 A 
ATOM     25  S   UNL     1      47.559   8.199  20.432  0.00  0.00    +0.000 S 
ATOM     26  C   UNL     1      48.193   6.625  20.308  0.00  0.00    +0.000 A 
ATOM     27  N   UNL     1      48.118   5.756  21.352  0.00  0.00    +0.000 NA
ATOM     28  C   UNL     1      48.658   4.606  21.129  0.00  0.00    +0.000 A 
ATOM     29  N   UNL     1      49.261   4.243  19.953  0.00  0.00    +0.000 N 
ATOM     30  C   UNL     1      49.340   5.074  18.866  0.00  0.00    +0.000 A 
ATOM     31  O   UNL     1      49.847   4.702  17.811  0.00  0.00    +0.000 OA
ATOM     32  C   UNL     1      48.762   6.391  19.068  0.00  0.00    +0.000 A 
ATOM     33  H   UNL     1      49.652   3.318  19.837  0.00  0.00    +0.000 HD
ENDBRANCH  20  23
ENDBRANCH  18  19
ENDBRANCH   4  18
TORSDOF 7
ENDMDL
MODEL 5
REMARK VINA RESULT:    -6.994      1.589      2.194
REMARK INTER + INTRA:         -10.912
REMARK INTER:                  -9.600
REMARK INTRA:                  -1.312
REMARK UNBOUND:                -1.056
REMARK  Name = 
REMARK  8 active torsions:
REMARK  status: ('A' for Active; 'I' for Inactive)
REMARK    1  A    between atoms: C_1  and  N_2
REMARK    2  A    between atoms: N_2  and  C_3
REMARK    3  A    between atoms: C_3  and  C_4
REMARK    4  A    between atoms: C_8  and  C_9
REMARK    5  A    between atoms: C_9  and  C_10
REMARK    6  A    between atoms: C_13  and  C_14
REMARK    7  A    between atoms: C_14  and  N_15
REMARK    8  A    between atoms: C_16  and  C_18
REMARK                            x       y       z     vdW  Elec       q    Type
REMARK                         _______ _______ _______ _____ _____    ______ ____
ROOT
ATOM      1  C   UNL     1      45.683   7.496  11.942  0.00  0.00    +0.000 A 
ATOM      2  C   UNL     1      46.840   6.716  11.802  0.00  0.00    +0.000 A 
ATOM      3  C   UNL     1      48.010   7.044  12.490  0.00  0.00    +0.000 A 
ATOM      4  C   UNL     1      48.052   8.168  13.325  0.00  0.00    +0.000 A 
ATOM      5  C   UNL     1      46.922   8.992  13.402  0.00  0.00    +0.000 A 
ATOM      6  C   UNL     1      45.743   8.653  12.729  0.00  0.00    +0.000 A 
ENDROOT
BRANCH   1   7
ATOM      7  C   UNL     1      44.385   7.070  11.292  0.00  0.00    +0.000 C 
BRANCH   7  12
ATOM      8  C   UNL     1      44.160   3.500  10.337  0.00  0.00    +0.000 A 
ATOM      9  C   UNL     1      43.729   2.860  11.496  0.00  0.00    +0.000 A 
ATOM     10  C   UNL     1      43.447   3.630  12.616  0.00  0.00    +0.000 A 
ATOM     11  C   UNL     1      43.624   5.007  12.556  0.00  0.00    +0.000 A 
ATOM     12  C   UNL     1      44.086   5.586  11.374  0.00  0.00    +0.000 A 
ATOM     13  N   UNL     1      44.352   4.843  10.268  0.00  0.00    +0.000 NA
BRANCH   8  14
ATOM     14  C   UNL     1      44.371   2.699   9.067  0.00  0.00    +0.000 C 
BRANCH  14  16
ATOM     15  C   UNL     1      46.312   1.644   8.069  0.00  0.00    +0.000 C 
ATOM     16  N   UNL     1      45.374   1.623   9.190  0.00  0.00    +0.000 NA
ATOM     17  H   UNL     1      45.895   1.776  10.051  0.00  0.00    +0.000 HD
ENDBRANCH  14  16
ENDBRANCH   8  14
ENDBRANCH   7  12
ENDBRANCH   1   7
BRANCH   4  18
ATOM     18  C   UNL     1      49.284   8.492  14.129  0.00  0.00    +0.000 C 
BRANCH  18  19
ATOM     19  N   UNL     1      49.382   7.674  15.311  0.00  0.00    +0.000 N 
ATOM     20  C   UNL     1      48.827   8.083  16.498  0.00  0.00    +0.000 C 
ATOM     21  O   UNL     1      48.184   9.126  16.592  0.00  0.00    +0.000 OA
ATOM     22  H   UNL     1      50.103   6.960  15.318  0.00  0.00    +0.000 HD
BRANCH  20  23
ATOM     23  C   UNL     1      48.989   7.180  17.642  0.00  0.00    +0.000 A 
ATOM     24  C   UNL     1      49.466   7.674  18.850  0.00  0.00    +0.000 A 
ATOM     25  S   UNL     1      49.570   6.497  20.078  0.00  0.00    +0.000 S 
ATOM     26  C   UNL     1      49.024   5.275  19.029  0.00  0.00    +0.000 A 
ATOM     27  N   UNL     1      48.912   3.987  19.452  0.00  0.00    +0.000 NA
ATOM     28  C   UNL     1      48.508   3.161  18.547  0.00  0.00    +0.000 A 
ATOM     29  N   UNL     1      48.198   3.507  17.257  0.00  0.00    +0.000 N 
ATOM     30  C   UNL     1      48.271   4.794  16.791  0.00  0.00    +0.000 A 
ATOM     31  O   UNL     1      47.943   5.079  15.642  0.00  0.00    +0.000 OA
ATOM     32  C   UNL     1      48.739   5.765  17.765  0.00  0.00    +0.000 A 
ATOM     33  H   UNL     1      47.871   2.813  16.600  0.00  0.00    +0.000 HD
ENDBRANCH  20  23
ENDBRANCH  18  19
ENDBRANCH   4  18
TORSDOF 7
ENDMDL
MODEL 6
REMARK VINA RESULT:    -6.947      2.941      8.493
REMARK INTER + INTRA:         -10.845
REMARK INTER:                  -9.552
REMARK INTRA:                  -1.294
REMARK UNBOUND:                -1.056
REMARK  Name = 
REMARK  8 active torsions:
REMARK  status: ('A' for Active; 'I' for Inactive)
REMARK    1  A    between atoms: C_1  and  N_2
REMARK    2  A    between atoms: N_2  and  C_3
REMARK    3  A    between atoms: C_3  and  C_4
REMARK    4  A    between atoms: C_8  and  C_9
REMARK    5  A    between atoms: C_9  and  C_10
REMARK    6  A    between atoms: C_13  and  C_14
REMARK    7  A    between atoms: C_14  and  N_15
REMARK    8  A    between atoms: C_16  and  C_18
REMARK                            x       y       z     vdW  Elec       q    Type
REMARK                         _______ _______ _______ _____ _____    ______ ____
ROOT
ATOM      1  C   UNL     1      49.383   8.253  15.766  0.00  0.00    +0.000 A 
ATOM      2  C   UNL     1      48.247   8.981  15.384  0.00  0.00    +0.000 A 
ATOM      3  C   UNL     1      47.741   8.887  14.086  0.00  0.00    +0.000 A 
ATOM      4  C   UNL     1      48.368   8.070  13.136  0.00  0.00    +0.000 A 
ATOM      5  C   UNL     1      49.548   7.405  13.495  0.00  0.00    +0.000 A 
ATOM      6  C   UNL     1      50.044   7.483  14.801  0.00  0.00    +0.000 A 
ENDROOT
BRANCH   1   7
ATOM      7  C   UNL     1      49.857   8.264  17.202  0.00  0.00    +0.000 C 
BRANCH   7  12
ATOM      8  C   UNL     1      48.204   5.449  18.950  0.00  0.00    +0.000 A 
ATOM      9  C   UNL     1      47.519   6.051  20.002  0.00  0.00    +0.000 A 
ATOM     10  C   UNL     1      47.552   7.434  20.113  0.00  0.00    +0.000 A 
ATOM     11  C   UNL     1      48.283   8.172  19.189  0.00  0.00    +0.000 A 
ATOM     12  C   UNL     1      48.971   7.508  18.173  0.00  0.00    +0.000 A 
ATOM     13  N   UNL     1      48.934   6.156  18.048  0.00  0.00    +0.000 NA
BRANCH   8  14
ATOM     14  C   UNL     1      48.096   3.951  18.738  0.00  0.00    +0.000 C 
BRANCH  14  16
ATOM     15  C   UNL     1      47.716   3.179  16.472  0.00  0.00    +0.000 C 
ATOM     16  N   UNL     1      47.087   3.553  17.737  0.00  0.00    +0.000 NA
ATOM     17  H   UNL     1      46.586   2.744  18.101  0.00  0.00    +0.000 HD
ENDBRANCH  14  16
ENDBRANCH   8  14
ENDBRANCH   7  12
ENDBRANCH   1   7
BRANCH   4  18
ATOM     18  C   UNL     1      47.791   7.901  11.755  0.00  0.00    +0.000 C 
BRANCH  18  19
ATOM     19  N   UNL     1      47.052   6.671  11.630  0.00  0.00    +0.000 N 
ATOM     20  C   UNL     1      45.680   6.669  11.659  0.00  0.00    +0.000 C 
ATOM     21  O   UNL     1      45.027   7.707  11.737  0.00  0.00    +0.000 OA
ATOM     22  H   UNL     1      47.556   5.811  11.819  0.00  0.00    +0.000 HD
BRANCH  20  23
ATOM     23  C   UNL     1      45.024   5.363  11.531  0.00  0.00    +0.000 A 
ATOM     24  C   UNL     1      44.324   4.834  12.607  0.00  0.00    +0.000 A 
ATOM     25  S   UNL     1      43.604   3.323  12.279  0.00  0.00    +0.000 S 
ATOM     26  C   UNL     1      44.240   3.301  10.702  0.00  0.00    +0.000 A 
ATOM     27  N   UNL     1      44.022   2.244   9.874  0.00  0.00    +0.000 NA
ATOM     28  C   UNL     1      44.581   2.349   8.716  0.00  0.00    +0.000 A 
ATOM     29  N   UNL     1      45.333   3.420   8.307  0.00  0.00    +0.000 N 
ATOM     30  C   UNL     1      45.560   4.517   9.096  0.00  0.00    +0.000 A 
ATOM     31  O   UNL     1      46.202   5.481   8.683  0.00  0.00    +0.000 OA
ATOM     32  C   UNL     1      44.968   4.445  10.420  0.00  0.00    +0.000 A 
ATOM     33  H   UNL     1      45.731   3.447   7.379  0.00  0.00    +0.000 HD
ENDBRANCH  20  23
ENDBRANCH  18  19
ENDBRANCH   4  18
TORSDOF 7
ENDMDL
MODEL 7
REMARK VINA RESULT:    -6.916      3.385      7.945
REMARK INTER + INTRA:         -10.802
REMARK INTER:                  -9.202
REMARK INTRA:                  -1.599
REMARK UNBOUND:                -1.056
REMARK  Name = 
REMARK  8 active torsions:
REMARK  status: ('A' for Active; 'I' for Inactive)
REMARK    1  A    between atoms: C_1  and  N_2
REMARK    2  A    between atoms: N_2  and  C_3
REMARK    3  A    between atoms: C_3  and  C_4
REMARK    4  A    between atoms: C_8  and  C_9
REMARK    5  A    between atoms: C_9  and  C_10
REMARK    6  A    between atoms: C_13  and  C_14
REMARK    7  A    between atoms: C_14  and  N_15
REMARK    8  A    between atoms: C_16  and  C_18
REMARK                            x       y       z     vdW  Elec       q    Type
REMARK                         _______ _______ _______ _____ _____    ______ ____
ROOT
ATOM      1  C   UNL     1      51.301   6.470  17.476  0.00  0.00    +0.000 A 
ATOM      2  C   UNL     1      50.177   7.019  18.110  0.00  0.00    +0.000 A 
ATOM      3  C   UNL     1      49.269   7.807  17.398  0.00  0.00    +0.000 A 
ATOM      4  C   UNL     1      49.472   8.072  16.038  0.00  0.00    +0.000 A 
ATOM      5  C   UNL     1      50.636   7.589  15.425  0.00  0.00    +0.000 A 
ATOM      6  C   UNL     1      51.536   6.784  16.132  0.00  0.00    +0.000 A 
ENDROOT
BRANCH   1   7
ATOM      7  C   UNL     1      52.215   5.521  18.219  0.00  0.00    +0.000 C 
BRANCH   7  12
ATOM      8  C   UNL     1      50.496   2.423  17.145  0.00  0.00    +0.000 A 
ATOM      9  C   UNL     1      51.439   1.419  17.341  0.00  0.00    +0.000 A 
ATOM     10  C   UNL     1      52.666   1.757  17.897  0.00  0.00    +0.000 A 
ATOM     11  C   UNL     1      52.922   3.085  18.220  0.00  0.00    +0.000 A 
ATOM     12  C   UNL     1      51.945   4.049  17.973  0.00  0.00    +0.000 A 
ATOM     13  N   UNL     1      50.737   3.727  17.441  0.00  0.00    +0.000 NA
BRANCH   8  14
ATOM     14  C   UNL     1      49.110   2.068  16.641  0.00  0.00    +0.000 C 
BRANCH  14  16
ATOM     15  C   UNL     1      47.232   3.499  17.191  0.00  0.00    +0.000 C 
ATOM     16  N   UNL     1      48.300   3.231  16.229  0.00  0.00    +0.000 NA
ATOM     17  H   UNL     1      48.913   4.043  16.191  0.00  0.00    +0.000 HD
ENDBRANCH  14  16
ENDBRANCH   8  14
ENDBRANCH   7  12
ENDBRANCH   1   7
BRANCH   4  18
ATOM     18  C   UNL     1      48.465   8.857  15.241  0.00  0.00    +0.000 C 
BRANCH  18  19
ATOM     19  N   UNL     1      47.516   7.997  14.581  0.00  0.00    +0.000 N 
ATOM     20  C   UNL     1      47.113   8.251  13.294  0.00  0.00    +0.000 C 
ATOM     21  O   UNL     1      47.576   9.179  12.636  0.00  0.00    +0.000 OA
ATOM     22  H   UNL     1      46.948   7.399  15.173  0.00  0.00    +0.000 HD
BRANCH  20  23
ATOM     23  C   UNL     1      46.138   7.318  12.717  0.00  0.00    +0.000 A 
ATOM     24  C   UNL     1      45.083   7.804  11.956  0.00  0.00    +0.000 A 
ATOM     25  S   UNL     1      44.062   6.585  11.342  0.00  0.00    +0.000 S 
ATOM     26  C   UNL     1      44.967   5.366  12.109  0.00  0.00    +0.000 A 
ATOM     27  N   UNL     1      44.603   4.058  12.013  0.00  0.00    +0.000 NA
ATOM     28  C   UNL     1      45.364   3.243  12.662  0.00  0.00    +0.000 A 
ATOM     29  N   UNL     1      46.463   3.616  13.391  0.00  0.00    +0.000 N 
ATOM     30  C   UNL     1      46.884   4.916  13.497  0.00  0.00    +0.000 A 
ATOM     31  O   UNL     1      47.899   5.212  14.122  0.00  0.00    +0.000 OA
ATOM     32  C   UNL     1      46.051   5.881  12.800  0.00  0.00    +0.000 A 
ATOM     33  H   UNL     1      47.028   2.925  13.864  0.00  0.00    +0.000 HD
ENDBRANCH  20  23
ENDBRANCH  18  19
ENDBRANCH   4  18
TORSDOF 7
ENDMDL
MODEL 8
REMARK VINA RESULT:    -6.835      2.905      8.477
REMARK INTER + INTRA:         -10.687
REMARK INTER:                  -9.587
REMARK INTRA:                  -1.101
REMARK UNBOUND:                -1.056
REMARK  Name = 
REMARK  8 active torsions:
REMARK  status: ('A' for Active; 'I' for Inactive)
REMARK    1  A    between atoms: C_1  and  N_2
REMARK    2  A    between atoms: N_2  and  C_3
REMARK    3  A    between atoms: C_3  and  C_4
REMARK    4  A    between atoms: C_8  and  C_9
REMARK    5  A    between atoms: C_9  and  C_10
REMARK    6  A    between atoms: C_13  and  C_14
REMARK    7  A    between atoms: C_14  and  N_15
REMARK    8  A    between atoms: C_16  and  C_18
REMARK                            x       y       z     vdW  Elec       q    Type
REMARK                         _______ _______ _______ _____ _____    ______ ____
ROOT
ATOM      1  C   UNL     1      50.440   7.568  14.948  0.00  0.00    +0.000 A 
ATOM      2  C   UNL     1      49.084   7.282  15.159  0.00  0.00    +0.000 A 
ATOM      3  C   UNL     1      48.160   7.391  14.116  0.00  0.00    +0.000 A 
ATOM      4  C   UNL     1      48.572   7.801  12.842  0.00  0.00    +0.000 A 
ATOM      5  C   UNL     1      49.912   8.164  12.652  0.00  0.00    +0.000 A 
ATOM      6  C   UNL     1      50.841   8.036  13.690  0.00  0.00    +0.000 A 
ENDROOT
BRANCH   1   7
ATOM      7  C   UNL     1      51.455   7.334  16.044  0.00  0.00    +0.000 C 
BRANCH   7  12
ATOM      8  C   UNL     1      50.393   4.314  17.905  0.00  0.00    +0.000 A 
ATOM      9  C   UNL     1      50.268   4.747  19.222  0.00  0.00    +0.000 A 
ATOM     10  C   UNL     1      50.485   6.088  19.505  0.00  0.00    +0.000 A 
ATOM     11  C   UNL     1      50.840   6.951  18.475  0.00  0.00    +0.000 A 
ATOM     12  C   UNL     1      50.977   6.451  17.180  0.00  0.00    +0.000 A 
ATOM     13  N   UNL     1      50.754   5.143  16.890  0.00  0.00    +0.000 NA
BRANCH   8  14
ATOM     14  C   UNL     1      50.057   2.879  17.546  0.00  0.00    +0.000 C 
BRANCH  14  16
ATOM     15  C   UNL     1      47.663   2.877  17.167  0.00  0.00    +0.000 C 
ATOM     16  N   UNL     1      48.979   2.742  16.547  0.00  0.00    +0.000 NA
ATOM     17  H   UNL     1      49.092   3.485  15.860  0.00  0.00    +0.000 HD
ENDBRANCH  14  16
ENDBRANCH   8  14
ENDBRANCH   7  12
ENDBRANCH   1   7
BRANCH   4  18
ATOM     18  C   UNL     1      47.601   7.853  11.692  0.00  0.00    +0.000 C 
BRANCH  18  19
ATOM     19  N   UNL     1      46.901   6.604  11.526  0.00  0.00    +0.000 N 
ATOM     20  C   UNL     1      45.532   6.550  11.598  0.00  0.00    +0.000 C 
ATOM     21  O   UNL     1      44.846   7.557  11.751  0.00  0.00    +0.000 OA
ATOM     22  H   UNL     1      47.442   5.754  11.652  0.00  0.00    +0.000 HD
BRANCH  20  23
ATOM     23  C   UNL     1      44.919   5.228  11.421  0.00  0.00    +0.000 A 
ATOM     24  C   UNL     1      44.200   4.656  12.463  0.00  0.00    +0.000 A 
ATOM     25  S   UNL     1      43.536   3.133  12.081  0.00  0.00    +0.000 S 
ATOM     26  C   UNL     1      44.223   3.163  10.525  0.00  0.00    +0.000 A 
ATOM     27  N   UNL     1      44.062   2.118   9.669  0.00  0.00    +0.000 NA
ATOM     28  C   UNL     1      44.655   2.264   8.532  0.00  0.00    +0.000 A 
ATOM     29  N   UNL     1      45.388   3.364   8.170  0.00  0.00    +0.000 N 
ATOM     30  C   UNL     1      45.558   4.451   8.988  0.00  0.00    +0.000 A 
ATOM     31  O   UNL     1      46.184   5.441   8.617  0.00  0.00    +0.000 OA
ATOM     32  C   UNL     1      44.926   4.333  10.291  0.00  0.00    +0.000 A 
ATOM     33  H   UNL     1      45.815   3.423   7.256  0.00  0.00    +0.000 HD
ENDBRANCH  20  23
ENDBRANCH  18  19
ENDBRANCH   4  18
TORSDOF 7
ENDMDL
MODEL 9
REMARK VINA RESULT:    -6.711      2.908      3.981
REMARK INTER + INTRA:         -10.513
REMARK INTER:                  -9.904
REMARK INTRA:                  -0.609
REMARK UNBOUND:                -1.056
REMARK  Name = 
REMARK  8 active torsions:
REMARK  status: ('A' for Active; 'I' for Inactive)
REMARK    1  A    between atoms: C_1  and  N_2
REMARK    2  A    between atoms: N_2  and  C_3
REMARK    3  A    between atoms: C_3  and  C_4
REMARK    4  A    between atoms: C_8  and  C_9
REMARK    5  A    between atoms: C_9  and  C_10
REMARK    6  A    between atoms: C_13  and  C_14
REMARK    7  A    between atoms: C_14  and  N_15
REMARK    8  A    between atoms: C_16  and  C_18
REMARK                            x       y       z     vdW  Elec       q    Type
REMARK                         _______ _______ _______ _____ _____    ______ ____
ROOT
ATOM      1  C   UNL     1      46.304   5.800  12.312  0.00  0.00    +0.000 A 
ATOM      2  C   UNL     1      45.982   4.645  13.040  0.00  0.00    +0.000 A 
ATOM      3  C   UNL     1      46.600   4.377  14.264  0.00  0.00    +0.000 A 
ATOM      4  C   UNL     1      47.562   5.253  14.782  0.00  0.00    +0.000 A 
ATOM      5  C   UNL     1      47.941   6.364  14.017  0.00  0.00    +0.000 A 
ATOM      6  C   UNL     1      47.309   6.644  12.801  0.00  0.00    +0.000 A 
ENDROOT
BRANCH   1   7
ATOM      7  C   UNL     1      45.549   6.148  11.049  0.00  0.00    +0.000 C 
BRANCH   7  12
ATOM      8  C   UNL     1      45.663   3.813   8.177  0.00  0.00    +0.000 A 
ATOM      9  C   UNL     1      44.815   2.772   8.546  0.00  0.00    +0.000 A 
ATOM     10  C   UNL     1      44.137   2.862   9.753  0.00  0.00    +0.000 A 
ATOM     11  C   UNL     1      44.340   3.971  10.566  0.00  0.00    +0.000 A 
ATOM     12  C   UNL     1      45.224   4.969  10.153  0.00  0.00    +0.000 A 
ATOM     13  N   UNL     1      45.883   4.897   8.968  0.00  0.00    +0.000 NA
BRANCH   8  14
ATOM     14  C   UNL     1      46.333   3.796   6.817  0.00  0.00    +0.000 C 
BRANCH  14  16
ATOM     15  C   UNL     1      47.917   1.961   6.777  0.00  0.00    +0.000 C 
ATOM     16  N   UNL     1      47.758   3.412   6.849  0.00  0.00    +0.000 NA
ATOM     17  H   UNL     1      48.214   3.829   6.039  0.00  0.00    +0.000 HD
ENDBRANCH  14  16
ENDBRANCH   8  14
ENDBRANCH   7  12
ENDBRANCH   1   7
BRANCH   4  18
ATOM     18  C   UNL     1      48.182   5.015  16.134  0.00  0.00    +0.000 C 
BRANCH  18  19
ATOM     19  N   UNL     1      47.769   6.007  17.094  0.00  0.00    +0.000 N 
ATOM     20  C   UNL     1      48.685   6.848  17.674  0.00  0.00    +0.000 C 
ATOM     21  O   UNL     1      49.875   6.829  17.367  0.00  0.00    +0.000 OA
ATOM     22  H   UNL     1      46.866   5.871  17.537  0.00  0.00    +0.000 HD
BRANCH  20  23
ATOM     23  C   UNL     1      48.163   7.817  18.644  0.00  0.00    +0.000 A 
ATOM     24  C   UNL     1      47.856   7.406  19.935  0.00  0.00    +0.000 A 
ATOM     25  S   UNL     1      47.285   8.662  20.936  0.00  0.00    +0.000 S 
ATOM     26  C   UNL     1      47.384   9.791  19.668  0.00  0.00    +0.000 A 
ATOM     27  N   UNL     1      47.001  11.084  19.851  0.00  0.00    +0.000 NA
ATOM     28  C   UNL     1      47.107  11.825  18.800  0.00  0.00    +0.000 A 
ATOM     29  N   UNL     1      47.569  11.393  17.584  0.00  0.00    +0.000 N 
ATOM     30  C   UNL     1      47.988  10.108  17.358  0.00  0.00    +0.000 A 
ATOM     31  O   UNL     1      48.439   9.763  16.268  0.00  0.00    +0.000 OA
ATOM     32  C   UNL     1      47.873   9.223  18.504  0.00  0.00    +0.000 A 
ATOM     33  H   UNL     1      47.643  12.030  16.803  0.00  0.00    +0.000 HD
ENDBRANCH  20  23
ENDBRANCH  18  19
ENDBRANCH   4  18
TORSDOF 7
ENDMDL
