MODEL 1
REMARK VINA RESULT:    -7.540      0.000      0.000
REMARK INTER + INTRA:         -10.049
REMARK INTER:                  -9.304
REMARK INTRA:                  -0.746
REMARK UNBOUND:                -0.746
REMARK  Name = 
REMARK  4 active torsions:
REMARK  status: ('A' for Active; 'I' for Inactive)
REMARK    1  A    between atoms: C_2  and  C_4
REMARK    2  A    between atoms: C_7  and  C_8
REMARK    3  A    between atoms: C_9  and  C_10
REMARK    4  A    between atoms: C_14  and  C_15
REMARK                            x       y       z     vdW  Elec       q    Type
REMARK                         _______ _______ _______ _____ _____    ______ ____
ROOT
ATOM      1  C   UNL     1      46.834   4.824  14.121  0.00  0.00    +0.000 C 
ATOM      2  C   UNL     1      45.577   4.397  13.911  0.00  0.00    +0.000 C 
ENDROOT
BRANCH   1   6
ATOM      3  C   UNL     1      48.749   4.516  17.970  0.00  0.00    +0.000 A 
ATOM      4  C   UNL     1      47.919   3.496  17.504  0.00  0.00    +0.000 A 
ATOM      5  C   UNL     1      47.306   3.612  16.253  0.00  0.00    +0.000 A 
ATOM      6  C   UNL     1      47.521   4.734  15.430  0.00  0.00    +0.000 A 
ATOM      7  C   UNL     1      48.345   5.763  15.928  0.00  0.00    +0.000 A 
ATOM      8 CL   UNL     1      48.680   7.198  15.017  0.00  0.00    +0.000 Cl
ATOM      9  C   UNL     1      48.948   5.657  17.188  0.00  0.00    +0.000 A 
BRANCH   3  11
ATOM     10  N   UNL     1      48.654   3.940  20.335  0.00  0.00    +0.000 N 
ATOM     11  C   UNL     1      49.398   4.441  19.302  0.00  0.00    +0.000 C 
ATOM     12  O   UNL     1      50.561   4.783  19.468  0.00  0.00    +0.000 OA
ATOM     13  H   UNL     1      49.141   3.804  21.212  0.00  0.00    +0.000 HD
ATOM     14  H   UNL     1      47.795   3.429  20.191  0.00  0.00    +0.000 HD
ENDBRANCH   3  11
ENDBRANCH   1   6
BRANCH   2  15
ATOM     15  C   UNL     1      44.833   4.453  12.642  0.00  0.00    +0.000 A 
ATOM     16  C   UNL     1      43.678   5.220  12.470  0.00  0.00    +0.000 A 
ATOM     17  C   UNL     1      43.069   5.305  11.217  0.00  0.00    +0.000 A 
ATOM     18  C   UNL     1      43.630   4.651  10.118  0.00  0.00    +0.000 A 
ATOM     19  C   UNL     1      44.810   3.900  10.240  0.00  0.00    +0.000 A 
ATOM     20  C   UNL     1      45.374   3.789  11.526  0.00  0.00    +0.000 A 
BRANCH  19  21
ATOM     21  C   UNL     1      45.483   3.301   9.068  0.00  0.00    +0.000 A 
ATOM     22  C   UNL     1      45.986   4.080   8.025  0.00  0.00    +0.000 A 
ATOM     23  C   UNL     1      46.661   3.469   6.972  0.00  0.00    +0.000 A 
ATOM     24  C   UNL     1      46.819   2.091   6.979  0.00  0.00    +0.000 A 
ATOM     25  C   UNL     1      46.295   1.382   8.044  0.00  0.00    +0.000 A 
ATOM     26  N   UNL     1      45.643   1.952   9.083  0.00  0.00    +0.000 NA
ENDBRANCH  19  21
ENDBRANCH   2  15
TORSDOF 4
ENDMDL
MODEL 2
REMARK VINA RESULT:    -6.823      1.625      1.953
REMARK INTER + INTRA:          -9.165
REMARK INTER:                  -8.448
REMARK INTRA:                  -0.717
REMARK UNBOUND:                -0.746
REMARK  Name = 
REMARK  4 active torsions:
REMARK  status: ('A' for Active; 'I' for Inactive)
REMARK    1  A    between atoms: C_2  and  C_4
REMARK    2  A    between atoms: C_7  and  C_8
REMARK    3  A    between atoms: C_9  and  C_10
REMARK    4  A    between atoms: C_14  and  C_15
REMARK                            x       y       z     vdW  Elec       q    Type
REMARK                         _______ _______ _______ _____ _____    ______ ____
ROOT
ATOM      1  C   UNL     1      46.819   4.606  14.538  0.00  0.00    +0.000 C 
ATOM      2  C   UNL     1      46.011   5.372  13.784  0.00  0.00    +0.000 C 
ENDROOT
BRANCH   1   6
ATOM      3  C   UNL     1      49.595   6.219  17.414  0.00  0.00    +0.000 A 
ATOM      4  C   UNL     1      49.420   6.831  16.172  0.00  0.00    +0.000 A 
ATOM      5  C   UNL     1      48.516   6.294  15.251  0.00  0.00    +0.000 A 
ATOM      6  C   UNL     1      47.751   5.152  15.552  0.00  0.00    +0.000 A 
ATOM      7  C   UNL     1      47.956   4.536  16.803  0.00  0.00    +0.000 A 
ATOM      8 CL   UNL     1      47.084   3.120  17.289  0.00  0.00    +0.000 Cl
ATOM      9  C   UNL     1      48.874   5.063  17.722  0.00  0.00    +0.000 A 
BRANCH   3  11
ATOM     10  N   UNL     1      51.436   5.850  18.965  0.00  0.00    +0.000 N 
ATOM     11  C   UNL     1      50.563   6.744  18.409  0.00  0.00    +0.000 C 
ATOM     12  O   UNL     1      50.604   7.932  18.698  0.00  0.00    +0.000 OA
ATOM     13  H   UNL     1      52.152   6.239  19.566  0.00  0.00    +0.000 HD
ATOM     14  H   UNL     1      51.596   4.931  18.579  0.00  0.00    +0.000 HD
ENDBRANCH   3  11
ENDBRANCH   1   6
BRANCH   2  15
ATOM     15  C   UNL     1      45.063   4.902  12.760  0.00  0.00    +0.000 A 
ATOM     16  C   UNL     1      43.689   5.144  12.828  0.00  0.00    +0.000 A 
ATOM     17  C   UNL     1      42.853   4.753  11.780  0.00  0.00    +0.000 A 
ATOM     18  C   UNL     1      43.390   4.148  10.642  0.00  0.00    +0.000 A 
ATOM     19  C   UNL     1      44.770   3.920  10.519  0.00  0.00    +0.000 A 
ATOM     20  C   UNL     1      45.583   4.278  11.612  0.00  0.00    +0.000 A 
BRANCH  19  21
ATOM     21  C   UNL     1      45.369   3.392   9.274  0.00  0.00    +0.000 A 
ATOM     22  C   UNL     1      45.808   4.232   8.249  0.00  0.00    +0.000 A 
ATOM     23  C   UNL     1      46.417   3.685   7.123  0.00  0.00    +0.000 A 
ATOM     24  C   UNL     1      46.573   2.309   7.041  0.00  0.00    +0.000 A 
ATOM     25  C   UNL     1      46.115   1.538   8.093  0.00  0.00    +0.000 A 
ATOM     26  N   UNL     1      45.528   2.045   9.202  0.00  0.00    +0.000 NA
ENDBRANCH  19  21
ENDBRANCH   2  15
TORSDOF 4
ENDMDL
MODEL 3
REMARK VINA RESULT:    -6.704      3.435      9.415
REMARK INTER + INTRA:          -9.017
REMARK INTER:                  -8.223
REMARK INTRA:                  -0.794
REMARK UNBOUND:                -0.746
REMARK  Name = 
REMARK  4 active torsions:
REMARK  status: ('A' for Active; 'I' for Inactive)
REMARK    1  A    between atoms: C_2  and  C_4
REMARK    2  A    between atoms: C_7  and  C_8
REMARK    3  A    between atoms: C_9  and  C_10
REMARK    4  A    between atoms: C_14  and  C_15
REMARK                            x       y       z     vdW  Elec       q    Type
REMARK                         _______ _______ _______ _____ _____    ______ ____
ROOT
ATOM      1  C   UNL     1      46.291   4.657  14.587  0.00  0.00    +0.000 C 
ATOM      2  C   UNL     1      47.352   4.019  15.112  0.00  0.00    +0.000 C 
ENDROOT
BRANCH   1   6
ATOM      3  C   UNL     1      45.411   4.599  10.368  0.00  0.00    +0.000 A 
ATOM      4  C   UNL     1      45.149   3.485  11.166  0.00  0.00    +0.000 A 
ATOM      5  C   UNL     1      45.440   3.521  12.532  0.00  0.00    +0.000 A 
ATOM      6  C   UNL     1      45.978   4.672  13.139  0.00  0.00    +0.000 A 
ATOM      7  C   UNL     1      46.256   5.779  12.314  0.00  0.00    +0.000 A 
ATOM      8 CL   UNL     1      46.928   7.249  12.937  0.00  0.00    +0.000 Cl
ATOM      9  C   UNL     1      45.979   5.740  10.940  0.00  0.00    +0.000 A 
BRANCH   3  11
ATOM     10  N   UNL     1      43.889   4.209   8.507  0.00  0.00    +0.000 N 
ATOM     11  C   UNL     1      45.139   4.592   8.910  0.00  0.00    +0.000 C 
ATOM     12  O   UNL     1      45.984   4.944   8.099  0.00  0.00    +0.000 OA
ATOM     13  H   UNL     1      43.688   4.304   7.519  0.00  0.00    +0.000 HD
ATOM     14  H   UNL     1      43.105   4.151   9.141  0.00  0.00    +0.000 HD
ENDBRANCH   3  11
ENDBRANCH   1   6
BRANCH   2  15
ATOM     15  C   UNL     1      47.724   3.961  16.535  0.00  0.00    +0.000 A 
ATOM     16  C   UNL     1      48.450   2.905  17.089  0.00  0.00    +0.000 A 
ATOM     17  C   UNL     1      48.852   2.951  18.425  0.00  0.00    +0.000 A 
ATOM     18  C   UNL     1      48.560   4.070  19.208  0.00  0.00    +0.000 A 
ATOM     19  C   UNL     1      47.864   5.169  18.679  0.00  0.00    +0.000 A 
ATOM     20  C   UNL     1      47.426   5.073  17.344  0.00  0.00    +0.000 A 
BRANCH  19  21
ATOM     21  C   UNL     1      47.651   6.409  19.455  0.00  0.00    +0.000 A 
ATOM     22  C   UNL     1      47.505   6.397  20.843  0.00  0.00    +0.000 A 
ATOM     23  C   UNL     1      47.364   7.600  21.531  0.00  0.00    +0.000 A 
ATOM     24  C   UNL     1      47.369   8.790  20.820  0.00  0.00    +0.000 A 
ATOM     25  C   UNL     1      47.519   8.727  19.446  0.00  0.00    +0.000 A 
ATOM     26  N   UNL     1      47.666   7.573  18.755  0.00  0.00    +0.000 NA
ENDBRANCH  19  21
ENDBRANCH   2  15
TORSDOF 4
ENDMDL
MODEL 4
REMARK VINA RESULT:    -6.480      4.202      4.858
REMARK INTER + INTRA:          -8.741
REMARK INTER:                  -7.972
REMARK INTRA:                  -0.769
REMARK UNBOUND:                -0.746
REMARK  Name = 
REMARK  4 active torsions:
REMARK  status: ('A' for Active; 'I' for Inactive)
REMARK    1  A    between atoms: C_2  and  C_4
REMARK    2  A    between atoms: C_7  and  C_8
REMARK    3  A    between atoms: C_9  and  C_10
REMARK    4  A    between atoms: C_14  and  C_15
REMARK                            x       y       z     vdW  Elec       q    Type
REMARK                         _______ _______ _______ _____ _____    ______ ____
ROOT
ATOM      1  C   UNL     1      47.528   7.316  11.783  0.00  0.00    +0.000 C 
ATOM      2  C   UNL     1      46.188   7.277  11.885  0.00  0.00    +0.000 C 
ENDROOT
BRANCH   1   6
ATOM      3  C   UNL     1      49.989  10.489  13.349  0.00  0.00    +0.000 A 
ATOM      4  C   UNL     1      49.397  10.602  12.091  0.00  0.00    +0.000 A 
ATOM      5  C   UNL     1      48.601   9.563  11.598  0.00  0.00    +0.000 A 
ATOM      6  C   UNL     1      48.361   8.400  12.354  0.00  0.00    +0.000 A 
ATOM      7  C   UNL     1      48.984   8.295  13.613  0.00  0.00    +0.000 A 
ATOM      8 CL   UNL     1      48.776   6.911  14.634  0.00  0.00    +0.000 Cl
ATOM      9  C   UNL     1      49.795   9.328  14.103  0.00  0.00    +0.000 A 
BRANCH   3  11
ATOM     10  N   UNL     1      50.386  12.266  14.966  0.00  0.00    +0.000 N 
ATOM     11  C   UNL     1      50.859  11.559  13.896  0.00  0.00    +0.000 C 
ATOM     12  O   UNL     1      51.970  11.780  13.434  0.00  0.00    +0.000 OA
ATOM     13  H   UNL     1      51.030  12.924  15.389  0.00  0.00    +0.000 HD
ATOM     14  H   UNL     1      49.600  11.958  15.521  0.00  0.00    +0.000 HD
ENDBRANCH   3  11
ENDBRANCH   1   6
BRANCH   2  15
ATOM     15  C   UNL     1      45.298   6.235  11.346  0.00  0.00    +0.000 A 
ATOM     16  C   UNL     1      43.923   6.206  11.593  0.00  0.00    +0.000 A 
ATOM     17  C   UNL     1      43.118   5.246  10.978  0.00  0.00    +0.000 A 
ATOM     18  C   UNL     1      43.676   4.329  10.085  0.00  0.00    +0.000 A 
ATOM     19  C   UNL     1      45.047   4.347   9.782  0.00  0.00    +0.000 A 
ATOM     20  C   UNL     1      45.844   5.294  10.455  0.00  0.00    +0.000 A 
BRANCH  19  21
ATOM     21  C   UNL     1      45.633   3.464   8.751  0.00  0.00    +0.000 A 
ATOM     22  C   UNL     1      46.245   3.971   7.603  0.00  0.00    +0.000 A 
ATOM     23  C   UNL     1      46.832   3.097   6.692  0.00  0.00    +0.000 A 
ATOM     24  C   UNL     1      46.794   1.733   6.943  0.00  0.00    +0.000 A 
ATOM     25  C   UNL     1      46.170   1.302   8.099  0.00  0.00    +0.000 A 
ATOM     26  N   UNL     1      45.601   2.131   9.004  0.00  0.00    +0.000 NA
ENDBRANCH  19  21
ENDBRANCH   2  15
TORSDOF 4
ENDMDL
MODEL 5
REMARK VINA RESULT:    -6.231      2.219      2.766
REMARK INTER + INTRA:          -8.434
REMARK INTER:                  -7.695
REMARK INTRA:                  -0.740
REMARK UNBOUND:                -0.746
REMARK  Name = 
REMARK  4 active torsions:
REMARK  status: ('A' for Active; 'I' for Inactive)
REMARK    1  A    between atoms: C_2  and  C_4
REMARK    2  A    between atoms: C_7  and  C_8
REMARK    3  A    between atoms: C_9  and  C_10
REMARK    4  A    between atoms: C_14  and  C_15
REMARK                            x       y       z     vdW  Elec       q    Type
REMARK                         _______ _______ _______ _____ _____    ______ ____
ROOT
ATOM      1  C   UNL     1      47.598   5.571  15.235  0.00  0.00    +0.000 C 
ATOM      2  C   UNL     1      47.689   6.377  14.162  0.00  0.00    +0.000 C 
ENDROOT
BRANCH   1   6
ATOM      3  C   UNL     1      50.870   5.027  17.987  0.00  0.00    +0.000 A 
ATOM      4  C   UNL     1      50.854   6.107  17.104  0.00  0.00    +0.000 A 
ATOM      5  C   UNL     1      49.785   6.269  16.218  0.00  0.00    +0.000 A 
ATOM      6  C   UNL     1      48.699   5.372  16.205  0.00  0.00    +0.000 A 
ATOM      7  C   UNL     1      48.744   4.276  17.089  0.00  0.00    +0.000 A 
ATOM      8 CL   UNL     1      47.476   3.098  17.162  0.00  0.00    +0.000 Cl
ATOM      9  C   UNL     1      49.822   4.103  17.967  0.00  0.00    +0.000 A 
BRANCH   3  11
ATOM     10  N   UNL     1      52.259   3.519  19.300  0.00  0.00    +0.000 N 
ATOM     11  C   UNL     1      51.998   4.807  18.925  0.00  0.00    +0.000 C 
ATOM     12  O   UNL     1      52.690   5.735  19.323  0.00  0.00    +0.000 OA
ATOM     13  H   UNL     1      53.090   3.375  19.861  0.00  0.00    +0.000 HD
ATOM     14  H   UNL     1      51.880   2.720  18.813  0.00  0.00    +0.000 HD
ENDBRANCH   3  11
ENDBRANCH   1   6
BRANCH   2  15
ATOM     15  C   UNL     1      46.640   6.624  13.159  0.00  0.00    +0.000 A 
ATOM     16  C   UNL     1      46.059   7.878  12.958  0.00  0.00    +0.000 A 
ATOM     17  C   UNL     1      45.136   8.069  11.929  0.00  0.00    +0.000 A 
ATOM     18  C   UNL     1      44.812   7.015  11.071  0.00  0.00    +0.000 A 
ATOM     19  C   UNL     1      45.401   5.749  11.217  0.00  0.00    +0.000 A 
ATOM     20  C   UNL     1      46.290   5.571  12.294  0.00  0.00    +0.000 A 
BRANCH  19  21
ATOM     21  C   UNL     1      45.162   4.658  10.248  0.00  0.00    +0.000 A 
ATOM     22  C   UNL     1      45.504   4.777   8.900  0.00  0.00    +0.000 A 
ATOM     23  C   UNL     1      45.310   3.697   8.042  0.00  0.00    +0.000 A 
ATOM     24  C   UNL     1      44.775   2.521   8.546  0.00  0.00    +0.000 A 
ATOM     25  C   UNL     1      44.459   2.474   9.892  0.00  0.00    +0.000 A 
ATOM     26  N   UNL     1      44.646   3.505  10.747  0.00  0.00    +0.000 NA
ENDBRANCH  19  21
ENDBRANCH   2  15
TORSDOF 4
ENDMDL
MODEL 6
REMARK VINA RESULT:    -6.228      3.478      9.018
REMARK INTER + INTRA:          -8.430
REMARK INTER:                  -7.705
REMARK INTRA:                  -0.725
REMARK UNBOUND:                -0.746
REMARK  Name = 
REMARK  4 active torsions:
REMARK  status: ('A' for Active; 'I' for Inactive)
REMARK    1  A    between atoms: C_2  and  C_4
REMARK    2  A    between atoms: C_7  and  C_8
REMARK    3  A    between atoms: C_9  and  C_10
REMARK    4  A    between atoms: C_14  and  C_15
REMARK                            x       y       z     vdW  Elec       q    Type
REMARK                         _______ _______ _______ _____ _____    ______ ____
ROOT
ATOM      1  C   UNL     1      47.331   5.013  14.649  0.00  0.00    +0.000 C 
ATOM      2  C   UNL     1      47.287   4.294  15.785  0.00  0.00    +0.000 C 
ENDROOT
BRANCH   1   6
ATOM      3  C   UNL     1      45.029   3.995  11.150  0.00  0.00    +0.000 A 
ATOM      4  C   UNL     1      45.320   3.031  12.117  0.00  0.00    +0.000 A 
ATOM      5  C   UNL     1      46.068   3.378  13.245  0.00  0.00    +0.000 A 
ATOM      6  C   UNL     1      46.524   4.695  13.448  0.00  0.00    +0.000 A 
ATOM      7  C   UNL     1      46.239   5.649  12.451  0.00  0.00    +0.000 A 
ATOM      8 CL   UNL     1      46.753   7.298  12.578  0.00  0.00    +0.000 Cl
ATOM      9  C   UNL     1      45.503   5.299  11.311  0.00  0.00    +0.000 A 
BRANCH   3  11
ATOM     10  N   UNL     1      43.931   4.691   9.091  0.00  0.00    +0.000 N 
ATOM     11  C   UNL     1      44.260   3.660   9.927  0.00  0.00    +0.000 C 
ATOM     12  O   UNL     1      43.958   2.506   9.656  0.00  0.00    +0.000 OA
ATOM     13  H   UNL     1      43.494   4.435   8.214  0.00  0.00    +0.000 HD
ATOM     14  H   UNL     1      44.365   5.601   9.150  0.00  0.00    +0.000 HD
ENDBRANCH   3  11
ENDBRANCH   1   6
BRANCH   2  15
ATOM     15  C   UNL     1      48.057   4.549  17.014  0.00  0.00    +0.000 A 
ATOM     16  C   UNL     1      47.485   5.076  18.174  0.00  0.00    +0.000 A 
ATOM     17  C   UNL     1      48.246   5.209  19.336  0.00  0.00    +0.000 A 
ATOM     18  C   UNL     1      49.576   4.784  19.357  0.00  0.00    +0.000 A 
ATOM     19  C   UNL     1      50.178   4.215  18.223  0.00  0.00    +0.000 A 
ATOM     20  C   UNL     1      49.402   4.140  17.050  0.00  0.00    +0.000 A 
BRANCH  19  21
ATOM     21  C   UNL     1      51.544   3.651  18.261  0.00  0.00    +0.000 A 
ATOM     22  C   UNL     1      51.827   2.364  17.799  0.00  0.00    +0.000 A 
ATOM     23  C   UNL     1      53.140   1.903  17.805  0.00  0.00    +0.000 A 
ATOM     24  C   UNL     1      54.147   2.734  18.275  0.00  0.00    +0.000 A 
ATOM     25  C   UNL     1      53.794   3.996  18.718  0.00  0.00    +0.000 A 
ATOM     26  N   UNL     1      52.527   4.471  18.715  0.00  0.00    +0.000 NA
ENDBRANCH  19  21
ENDBRANCH   2  15
TORSDOF 4
ENDMDL
MODEL 7
REMARK VINA RESULT:    -5.878      2.755      4.216
REMARK INTER + INTRA:          -7.999
REMARK INTER:                  -7.216
REMARK INTRA:                  -0.783
REMARK UNBOUND:                -0.746
REMARK  Name = 
REMARK  4 active torsions:
REMARK  status: ('A' for Active; 'I' for Inactive)
REMARK    1  A    between atoms: C_2  and  C_4
REMARK    2  A    between atoms: C_7  and  C_8
REMARK    3  A    between atoms: C_9  and  C_10
REMARK    4  A    between atoms: C_14  and  C_15
REMARK                            x       y       z     vdW  Elec       q    Type
REMARK                         _______ _______ _______ _____ _____    ______ ____
ROOT
ATOM      1  C   UNL     1      48.606   5.703  16.211  0.00  0.00    +0.000 C 
ATOM      2  C   UNL     1      49.032   6.557  15.265  0.00  0.00    +0.000 C 
ENDROOT
BRANCH   1   6
ATOM      3  C   UNL     1      50.662   5.084  19.948  0.00  0.00    +0.000 A 
ATOM      4  C   UNL     1      51.364   5.089  18.741  0.00  0.00    +0.000 A 
ATOM      5  C   UNL     1      50.681   5.292  17.539  0.00  0.00    +0.000 A 
ATOM      6  C   UNL     1      49.291   5.514  17.511  0.00  0.00    +0.000 A 
ATOM      7  C   UNL     1      48.597   5.483  18.737  0.00  0.00    +0.000 A 
ATOM      8 CL   UNL     1      46.886   5.731  18.836  0.00  0.00    +0.000 Cl
ATOM      9  C   UNL     1      49.277   5.264  19.943  0.00  0.00    +0.000 A 
BRANCH   3  11
ATOM     10  N   UNL     1      52.483   4.087  21.222  0.00  0.00    +0.000 N 
ATOM     11  C   UNL     1      51.347   4.848  21.243  0.00  0.00    +0.000 C 
ATOM     12  O   UNL     1      50.934   5.339  22.285  0.00  0.00    +0.000 OA
ATOM     13  H   UNL     1      52.992   4.017  22.095  0.00  0.00    +0.000 HD
ATOM     14  H   UNL     1      52.983   3.876  20.370  0.00  0.00    +0.000 HD
ENDBRANCH   3  11
ENDBRANCH   1   6
BRANCH   2  15
ATOM     15  C   UNL     1      48.405   6.798  13.955  0.00  0.00    +0.000 A 
ATOM     16  C   UNL     1      49.013   7.550  12.947  0.00  0.00    +0.000 A 
ATOM     17  C   UNL     1      48.409   7.666  11.693  0.00  0.00    +0.000 A 
ATOM     18  C   UNL     1      47.210   7.001  11.427  0.00  0.00    +0.000 A 
ATOM     19  C   UNL     1      46.586   6.205  12.401  0.00  0.00    +0.000 A 
ATOM     20  C   UNL     1      47.190   6.148  13.672  0.00  0.00    +0.000 A 
BRANCH  19  21
ATOM     21  C   UNL     1      45.383   5.400  12.101  0.00  0.00    +0.000 A 
ATOM     22  C   UNL     1      45.111   4.925  10.817  0.00  0.00    +0.000 A 
ATOM     23  C   UNL     1      43.994   4.123  10.601  0.00  0.00    +0.000 A 
ATOM     24  C   UNL     1      43.167   3.813  11.671  0.00  0.00    +0.000 A 
ATOM     25  C   UNL     1      43.497   4.317  12.915  0.00  0.00    +0.000 A 
ATOM     26  N   UNL     1      44.581   5.091  13.153  0.00  0.00    +0.000 NA
ENDBRANCH  19  21
ENDBRANCH   2  15
TORSDOF 4
ENDMDL
MODEL 8
REMARK VINA RESULT:    -5.648      3.373      4.160
REMARK INTER + INTRA:          -7.714
REMARK INTER:                  -7.019
REMARK INTRA:                  -0.696
REMARK UNBOUND:                -0.746
REMARK  Name = 
REMARK  4 active torsions:
REMARK  status: ('A' for Active; 'I' for Inactive)
REMARK    1  A    between atoms: C_2  and  C_4
REMARK    2  A    between atoms: C_7  and  C_8
REMARK    3  A    between atoms: C_9  and  C_10
REMARK    4  A    between atoms: C_14  and  C_15
REMARK                            x       y       z     vdW  Elec       q    Type
REMARK                         _______ _______ _______ _____ _____    ______ ____
ROOT
ATOM      1  C   UNL     1      48.837   7.339  14.701  0.00  0.00    +0.000 C 
ATOM      2  C   UNL     1      48.554   7.076  13.413  0.00  0.00    +0.000 C 
ENDROOT
BRANCH   1   6
ATOM      3  C   UNL     1      52.848   7.120  16.263  0.00  0.00    +0.000 A 
ATOM      4  C   UNL     1      52.550   7.948  15.180  0.00  0.00    +0.000 A 
ATOM      5  C   UNL     1      51.244   8.007  14.687  0.00  0.00    +0.000 A 
ATOM      6  C   UNL     1      50.202   7.261  15.271  0.00  0.00    +0.000 A 
ATOM      7  C   UNL     1      50.528   6.414  16.349  0.00  0.00    +0.000 A 
ATOM      8 CL   UNL     1      49.339   5.438  17.147  0.00  0.00    +0.000 Cl
ATOM      9  C   UNL     1      51.839   6.341  16.836  0.00  0.00    +0.000 A 
BRANCH   3  11
ATOM     10  N   UNL     1      54.421   6.174  17.865  0.00  0.00    +0.000 N 
ATOM     11  C   UNL     1      54.227   7.010  16.801  0.00  0.00    +0.000 C 
ATOM     12  O   UNL     1      55.161   7.617  16.295  0.00  0.00    +0.000 OA
ATOM     13  H   UNL     1      55.380   6.035  18.156  0.00  0.00    +0.000 HD
ATOM     14  H   UNL     1      53.740   5.482  18.147  0.00  0.00    +0.000 HD
ENDBRANCH   3  11
ENDBRANCH   1   6
BRANCH   2  15
ATOM     15  C   UNL     1      47.227   7.133  12.779  0.00  0.00    +0.000 A 
ATOM     16  C   UNL     1      46.415   8.269  12.812  0.00  0.00    +0.000 A 
ATOM     17  C   UNL     1      45.207   8.293  12.113  0.00  0.00    +0.000 A 
ATOM     18  C   UNL     1      44.818   7.192  11.347  0.00  0.00    +0.000 A 
ATOM     19  C   UNL     1      45.622   6.045  11.257  0.00  0.00    +0.000 A 
ATOM     20  C   UNL     1      46.810   6.029  12.013  0.00  0.00    +0.000 A 
BRANCH  19  21
ATOM     21  C   UNL     1      45.285   4.921  10.358  0.00  0.00    +0.000 A 
ATOM     22  C   UNL     1      44.582   3.801  10.804  0.00  0.00    +0.000 A 
ATOM     23  C   UNL     1      44.241   2.796   9.902  0.00  0.00    +0.000 A 
ATOM     24  C   UNL     1      44.611   2.928   8.572  0.00  0.00    +0.000 A 
ATOM     25  C   UNL     1      45.306   4.064   8.200  0.00  0.00    +0.000 A 
ATOM     26  N   UNL     1      45.642   5.058   9.054  0.00  0.00    +0.000 NA
ENDBRANCH  19  21
ENDBRANCH   2  15
TORSDOF 4
ENDMDL
MODEL 9
REMARK VINA RESULT:    -5.643      6.337      8.573
REMARK INTER + INTRA:          -7.708
REMARK INTER:                  -6.981
REMARK INTRA:                  -0.727
REMARK UNBOUND:                -0.746
REMARK  Name = 
REMARK  4 active torsions:
REMARK  status: ('A' for Active; 'I' for Inactive)
REMARK    1  A    between atoms: C_2  and  C_4
REMARK    2  A    between atoms: C_7  and  C_8
REMARK    3  A    between atoms: C_9  and  C_10
REMARK    4  A    between atoms: C_14  and  C_15
REMARK                            x       y       z     vdW  Elec       q    Type
REMARK                         _______ _______ _______ _____ _____    ______ ____
ROOT
ATOM      1  C   UNL     1      47.308   7.239  12.364  0.00  0.00    +0.000 C 
ATOM      2  C   UNL     1      48.622   7.329  12.094  0.00  0.00    +0.000 C 
ENDROOT
BRANCH   1   6
ATOM      3  C   UNL     1      44.819   3.909  11.228  0.00  0.00    +0.000 A 
ATOM      4  C   UNL     1      45.030   4.972  10.350  0.00  0.00    +0.000 A 
ATOM      5  C   UNL     1      45.840   6.044  10.734  0.00  0.00    +0.000 A 
ATOM      6  C   UNL     1      46.475   6.072  11.991  0.00  0.00    +0.000 A 
ATOM      7  C   UNL     1      46.232   5.000  12.872  0.00  0.00    +0.000 A 
ATOM      8 CL   UNL     1      46.945   4.922  14.449  0.00  0.00    +0.000 Cl
ATOM      9  C   UNL     1      45.407   3.932  12.495  0.00  0.00    +0.000 A 
BRANCH   3  11
ATOM     10  N   UNL     1      44.343   1.979   9.820  0.00  0.00    +0.000 N 
ATOM     11  C   UNL     1      43.946   2.765  10.867  0.00  0.00    +0.000 C 
ATOM     12  O   UNL     1      42.928   2.512  11.497  0.00  0.00    +0.000 OA
ATOM     13  H   UNL     1      43.790   1.148   9.649  0.00  0.00    +0.000 HD
ATOM     14  H   UNL     1      45.279   2.005   9.442  0.00  0.00    +0.000 HD
ENDBRANCH   3  11
ENDBRANCH   1   6
BRANCH   2  15
ATOM     15  C   UNL     1      49.511   8.452  12.433  0.00  0.00    +0.000 A 
ATOM     16  C   UNL     1      49.896   8.750  13.742  0.00  0.00    +0.000 A 
ATOM     17  C   UNL     1      50.815   9.771  13.992  0.00  0.00    +0.000 A 
ATOM     18  C   UNL     1      51.382  10.480  12.930  0.00  0.00    +0.000 A 
ATOM     19  C   UNL     1      51.051  10.187  11.598  0.00  0.00    +0.000 A 
ATOM     20  C   UNL     1      50.083   9.187  11.378  0.00  0.00    +0.000 A 
BRANCH  19  21
ATOM     21  C   UNL     1      51.729  10.842  10.459  0.00  0.00    +0.000 A 
ATOM     22  C   UNL     1      52.437  10.115   9.501  0.00  0.00    +0.000 A 
ATOM     23  C   UNL     1      53.009  10.777   8.418  0.00  0.00    +0.000 A 
ATOM     24  C   UNL     1      52.866  12.152   8.314  0.00  0.00    +0.000 A 
ATOM     25  C   UNL     1      52.153  12.808   9.300  0.00  0.00    +0.000 A 
ATOM     26  N   UNL     1      51.580  12.188  10.357  0.00  0.00    +0.000 NA
ENDBRANCH  19  21
ENDBRANCH   2  15
TORSDOF 4
ENDMDL
