MODEL 1
REMARK VINA RESULT:    -6.874      0.000      0.000
REMARK INTER + INTRA:          -9.109
REMARK INTER:                  -8.482
REMARK INTRA:                  -0.627
REMARK UNBOUND:                -0.627
REMARK  Name = 
REMARK  4 active torsions:
REMARK  status: ('A' for Active; 'I' for Inactive)
REMARK    1  A    between atoms: C_2  and  C_5
REMARK    2  A    between atoms: C_9  and  C_10
REMARK    3  A    between atoms: C_11  and  C_12
REMARK    4  A    between atoms: C_16  and  C_17
REMARK                            x       y       z     vdW  Elec       q    Type
REMARK                         _______ _______ _______ _____ _____    ______ ____
ROOT
ATOM      1  C   UNL     1      47.720   4.039  15.836  0.00  0.00    +0.000 A 
ATOM      2  C   UNL     1      48.153   2.722  15.962  0.00  0.00    +0.000 A 
ATOM      3  C   UNL     1      49.055   2.389  16.964  0.00  0.00    +0.000 A 
ATOM      4  C   UNL     1      49.497   3.366  17.859  0.00  0.00    +0.000 A 
ATOM      5  C   UNL     1      49.011   4.684  17.803  0.00  0.00    +0.000 A 
ATOM      6  C   UNL     1      48.153   5.012  16.739  0.00  0.00    +0.000 A 
ENDROOT
BRANCH   5   7
ATOM      7  C   UNL     1      49.372   5.753  18.837  0.00  0.00    +0.000 C 
ATOM      8  C   UNL     1      49.870   5.236  20.201  0.00  0.00    +0.000 C 
ATOM      9  C   UNL     1      48.745   4.620  21.041  0.00  0.00    +0.000 C 
ATOM     10  N   UNL     1      47.615   5.528  21.232  0.00  0.00    +0.000 NA
ATOM     11  C   UNL     1      47.107   6.047  19.959  0.00  0.00    +0.000 C 
ATOM     12  C   UNL     1      48.199   6.716  19.124  0.00  0.00    +0.000 C 
ATOM     13  H   UNL     1      47.903   6.306  21.822  0.00  0.00    +0.000 HD
ENDBRANCH   5   7
BRANCH   1  15
ATOM     14  C   UNL     1      46.050   4.589  13.890  0.00  0.00    +0.000 C 
ATOM     15  C   UNL     1      46.817   4.376  14.784  0.00  0.00    +0.000 C 
BRANCH  14  20
ATOM     16  C   UNL     1      44.573   4.594  10.463  0.00  0.00    +0.000 A 
ATOM     17  C   UNL     1      43.310   5.143  10.739  0.00  0.00    +0.000 A 
ATOM     18  C   UNL     1      42.961   5.504  12.042  0.00  0.00    +0.000 A 
ATOM     19  C   UNL     1      43.870   5.318  13.081  0.00  0.00    +0.000 A 
ATOM     20  C   UNL     1      45.127   4.772  12.819  0.00  0.00    +0.000 A 
ATOM     21  C   UNL     1      45.480   4.410  11.519  0.00  0.00    +0.000 A 
BRANCH  16  23
ATOM     22  F   UNL     1      43.954   4.288   8.162  0.00  0.00    +0.000 F 
ATOM     23  C   UNL     1      44.971   4.203   9.063  0.00  0.00    +0.000 C 
ATOM     24  F   UNL     1      45.426   2.921   8.993  0.00  0.00    +0.000 F 
ATOM     25  F   UNL     1      45.973   4.982   8.571  0.00  0.00    +0.000 F 
ENDBRANCH  16  23
ENDBRANCH  14  20
ENDBRANCH   1  15
TORSDOF 4
ENDMDL
MODEL 2
REMARK VINA RESULT:    -6.590      1.197      1.486
REMARK INTER + INTRA:          -8.758
REMARK INTER:                  -8.145
REMARK INTRA:                  -0.613
REMARK UNBOUND:                -0.627
REMARK  Name = 
REMARK  4 active torsions:
REMARK  status: ('A' for Active; 'I' for Inactive)
REMARK    1  A    between atoms: C_2  and  C_5
REMARK    2  A    between atoms: C_9  and  C_10
REMARK    3  A    between atoms: C_11  and  C_12
REMARK    4  A    between atoms: C_16  and  C_17
REMARK                            x       y       z     vdW  Elec       q    Type
REMARK                         _______ _______ _______ _____ _____    ______ ____
ROOT
ATOM      1  C   UNL     1      47.560   4.461  16.010  0.00  0.00    +0.000 A 
ATOM      2  C   UNL     1      47.438   3.312  16.787  0.00  0.00    +0.000 A 
ATOM      3  C   UNL     1      48.231   3.160  17.916  0.00  0.00    +0.000 A 
ATOM      4  C   UNL     1      49.121   4.171  18.286  0.00  0.00    +0.000 A 
ATOM      5  C   UNL     1      49.204   5.374  17.565  0.00  0.00    +0.000 A 
ATOM      6  C   UNL     1      48.442   5.476  16.388  0.00  0.00    +0.000 A 
ENDROOT
BRANCH   5   7
ATOM      7  C   UNL     1      50.072   6.555  18.004  0.00  0.00    +0.000 C 
ATOM      8  C   UNL     1      50.492   6.573  19.487  0.00  0.00    +0.000 C 
ATOM      9  C   UNL     1      49.326   6.916  20.422  0.00  0.00    +0.000 C 
ATOM     10  N   UNL     1      48.667   8.174  20.072  0.00  0.00    +0.000 NA
ATOM     11  C   UNL     1      48.251   8.204  18.668  0.00  0.00    +0.000 C 
ATOM     12  C   UNL     1      49.408   7.918  17.710  0.00  0.00    +0.000 C 
ATOM     13  H   UNL     1      49.303   8.949  20.252  0.00  0.00    +0.000 HD
ENDBRANCH   5   7
BRANCH   1  15
ATOM     14  C   UNL     1      46.038   4.678  13.885  0.00  0.00    +0.000 C 
ATOM     15  C   UNL     1      46.763   4.593  14.835  0.00  0.00    +0.000 C 
BRANCH  14  20
ATOM     16  C   UNL     1      44.631   4.495  10.434  0.00  0.00    +0.000 A 
ATOM     17  C   UNL     1      43.317   4.925  10.680  0.00  0.00    +0.000 A 
ATOM     18  C   UNL     1      42.910   5.268  11.971  0.00  0.00    +0.000 A 
ATOM     19  C   UNL     1      43.813   5.184  13.027  0.00  0.00    +0.000 A 
ATOM     20  C   UNL     1      45.122   4.758  12.796  0.00  0.00    +0.000 A 
ATOM     21  C   UNL     1      45.532   4.413  11.508  0.00  0.00    +0.000 A 
BRANCH  16  23
ATOM     22  F   UNL     1      45.584   2.859   8.956  0.00  0.00    +0.000 F 
ATOM     23  C   UNL     1      45.091   4.124   9.047  0.00  0.00    +0.000 C 
ATOM     24  F   UNL     1      46.078   4.944   8.591  0.00  0.00    +0.000 F 
ATOM     25  F   UNL     1      44.088   4.201   8.130  0.00  0.00    +0.000 F 
ENDBRANCH  16  23
ENDBRANCH  14  20
ENDBRANCH   1  15
TORSDOF 4
ENDMDL
MODEL 3
REMARK VINA RESULT:    -6.555      2.078      2.784
REMARK INTER + INTRA:          -8.715
REMARK INTER:                  -8.120
REMARK INTRA:                  -0.596
REMARK UNBOUND:                -0.627
REMARK  Name = 
REMARK  4 active torsions:
REMARK  status: ('A' for Active; 'I' for Inactive)
REMARK    1  A    between atoms: C_2  and  C_5
REMARK    2  A    between atoms: C_9  and  C_10
REMARK    3  A    between atoms: C_11  and  C_12
REMARK    4  A    between atoms: C_16  and  C_17
REMARK                            x       y       z     vdW  Elec       q    Type
REMARK                         _______ _______ _______ _____ _____    ______ ____
ROOT
ATOM      1  C   UNL     1      47.704   4.424  15.861  0.00  0.00    +0.000 A 
ATOM      2  C   UNL     1      47.757   3.178  16.479  0.00  0.00    +0.000 A 
ATOM      3  C   UNL     1      48.688   2.949  17.483  0.00  0.00    +0.000 A 
ATOM      4  C   UNL     1      49.543   3.975  17.890  0.00  0.00    +0.000 A 
ATOM      5  C   UNL     1      49.454   5.265  17.338  0.00  0.00    +0.000 A 
ATOM      6  C   UNL     1      48.551   5.453  16.277  0.00  0.00    +0.000 A 
ENDROOT
BRANCH   5   7
ATOM      7  C   UNL     1      50.284   6.448  17.839  0.00  0.00    +0.000 C 
ATOM      8  C   UNL     1      50.444   7.628  16.860  0.00  0.00    +0.000 C 
ATOM      9  C   UNL     1      51.382   7.298  15.693  0.00  0.00    +0.000 C 
ATOM     10  N   UNL     1      52.696   6.831  16.133  0.00  0.00    +0.000 NA
ATOM     11  C   UNL     1      52.595   5.709  17.068  0.00  0.00    +0.000 C 
ATOM     12  C   UNL     1      51.707   6.030  18.272  0.00  0.00    +0.000 C 
ATOM     13  H   UNL     1      53.195   7.599  16.580  0.00  0.00    +0.000 HD
ENDBRANCH   5   7
BRANCH   1  15
ATOM     14  C   UNL     1      45.991   4.753  13.903  0.00  0.00    +0.000 C 
ATOM     15  C   UNL     1      46.764   4.639  14.810  0.00  0.00    +0.000 C 
BRANCH  14  20
ATOM     16  C   UNL     1      44.628   4.582  10.434  0.00  0.00    +0.000 A 
ATOM     17  C   UNL     1      43.299   4.971  10.670  0.00  0.00    +0.000 A 
ATOM     18  C   UNL     1      42.869   5.284  11.961  0.00  0.00    +0.000 A 
ATOM     19  C   UNL     1      43.762   5.210  13.027  0.00  0.00    +0.000 A 
ATOM     20  C   UNL     1      45.084   4.823  12.804  0.00  0.00    +0.000 A 
ATOM     21  C   UNL     1      45.518   4.509  11.516  0.00  0.00    +0.000 A 
BRANCH  16  23
ATOM     22  F   UNL     1      45.659   3.001   8.947  0.00  0.00    +0.000 F 
ATOM     23  C   UNL     1      45.113   4.244   9.047  0.00  0.00    +0.000 C 
ATOM     24  F   UNL     1      46.069   5.109   8.607  0.00  0.00    +0.000 F 
ATOM     25  F   UNL     1      44.115   4.289   8.122  0.00  0.00    +0.000 F 
ENDBRANCH  16  23
ENDBRANCH  14  20
ENDBRANCH   1  15
TORSDOF 4
ENDMDL
MODEL 4
REMARK VINA RESULT:    -6.533      5.228      9.108
REMARK INTER + INTRA:          -8.688
REMARK INTER:                  -8.298
REMARK INTRA:                  -0.390
REMARK UNBOUND:                -0.627
REMARK  Name = 
REMARK  4 active torsions:
REMARK  status: ('A' for Active; 'I' for Inactive)
REMARK    1  A    between atoms: C_2  and  C_5
REMARK    2  A    between atoms: C_9  and  C_10
REMARK    3  A    between atoms: C_11  and  C_12
REMARK    4  A    between atoms: C_16  and  C_17
REMARK                            x       y       z     vdW  Elec       q    Type
REMARK                         _______ _______ _______ _____ _____    ______ ____
ROOT
ATOM      1  C   UNL     1      46.755   5.518  13.237  0.00  0.00    +0.000 A 
ATOM      2  C   UNL     1      47.571   6.451  12.604  0.00  0.00    +0.000 A 
ATOM      3  C   UNL     1      47.269   6.863  11.313  0.00  0.00    +0.000 A 
ATOM      4  C   UNL     1      46.134   6.367  10.669  0.00  0.00    +0.000 A 
ATOM      5  C   UNL     1      45.250   5.488  11.317  0.00  0.00    +0.000 A 
ATOM      6  C   UNL     1      45.613   5.033  12.596  0.00  0.00    +0.000 A 
ENDROOT
BRANCH   5   7
ATOM      7  C   UNL     1      43.933   5.018  10.696  0.00  0.00    +0.000 C 
ATOM      8  C   UNL     1      42.987   4.232  11.625  0.00  0.00    +0.000 C 
ATOM      9  C   UNL     1      43.499   2.818  11.925  0.00  0.00    +0.000 C 
ATOM     10  N   UNL     1      43.770   2.043  10.715  0.00  0.00    +0.000 NA
ATOM     11  C   UNL     1      44.667   2.752   9.798  0.00  0.00    +0.000 C 
ATOM     12  C   UNL     1      44.151   4.146   9.439  0.00  0.00    +0.000 C 
ATOM     13  H   UNL     1      42.892   1.841  10.239  0.00  0.00    +0.000 HD
ENDBRANCH   5   7
BRANCH   1  15
ATOM     14  C   UNL     1      47.407   4.772  15.665  0.00  0.00    +0.000 C 
ATOM     15  C   UNL     1      47.091   5.079  14.551  0.00  0.00    +0.000 C 
BRANCH  14  20
ATOM     16  C   UNL     1      48.111   5.145  19.310  0.00  0.00    +0.000 A 
ATOM     17  C   UNL     1      48.615   3.866  19.597  0.00  0.00    +0.000 A 
ATOM     18  C   UNL     1      48.716   2.900  18.594  0.00  0.00    +0.000 A 
ATOM     19  C   UNL     1      48.315   3.204  17.296  0.00  0.00    +0.000 A 
ATOM     20  C   UNL     1      47.812   4.471  16.999  0.00  0.00    +0.000 A 
ATOM     21  C   UNL     1      47.708   5.439  17.998  0.00  0.00    +0.000 A 
BRANCH  16  23
ATOM     22  F   UNL     1      48.972   6.129  21.326  0.00  0.00    +0.000 F 
ATOM     23  C   UNL     1      47.997   6.202  20.378  0.00  0.00    +0.000 C 
ATOM     24  F   UNL     1      46.815   6.134  21.052  0.00  0.00    +0.000 F 
ATOM     25  F   UNL     1      48.065   7.463  19.870  0.00  0.00    +0.000 F 
ENDBRANCH  16  23
ENDBRANCH  14  20
ENDBRANCH   1  15
TORSDOF 4
ENDMDL
MODEL 5
REMARK VINA RESULT:    -6.453      1.961      2.833
REMARK INTER + INTRA:          -8.590
REMARK INTER:                  -8.005
REMARK INTRA:                  -0.585
REMARK UNBOUND:                -0.627
REMARK  Name = 
REMARK  4 active torsions:
REMARK  status: ('A' for Active; 'I' for Inactive)
REMARK    1  A    between atoms: C_2  and  C_5
REMARK    2  A    between atoms: C_9  and  C_10
REMARK    3  A    between atoms: C_11  and  C_12
REMARK    4  A    between atoms: C_16  and  C_17
REMARK                            x       y       z     vdW  Elec       q    Type
REMARK                         _______ _______ _______ _____ _____    ______ ____
ROOT
ATOM      1  C   UNL     1      48.480   6.327  14.940  0.00  0.00    +0.000 A 
ATOM      2  C   UNL     1      49.489   7.219  14.586  0.00  0.00    +0.000 A 
ATOM      3  C   UNL     1      50.530   7.465  15.471  0.00  0.00    +0.000 A 
ATOM      4  C   UNL     1      50.578   6.795  16.695  0.00  0.00    +0.000 A 
ATOM      5  C   UNL     1      49.617   5.829  17.040  0.00  0.00    +0.000 A 
ATOM      6  C   UNL     1      48.537   5.648  16.159  0.00  0.00    +0.000 A 
ENDROOT
BRANCH   5   7
ATOM      7  C   UNL     1      49.700   4.983  18.313  0.00  0.00    +0.000 C 
ATOM      8  C   UNL     1      51.116   4.570  18.761  0.00  0.00    +0.000 C 
ATOM      9  C   UNL     1      51.729   3.497  17.853  0.00  0.00    +0.000 C 
ATOM     10  N   UNL     1      50.881   2.314  17.718  0.00  0.00    +0.000 NA
ATOM     11  C   UNL     1      49.522   2.657  17.294  0.00  0.00    +0.000 C 
ATOM     12  C   UNL     1      48.866   3.687  18.215  0.00  0.00    +0.000 C 
ATOM     13  H   UNL     1      50.842   1.823  18.610  0.00  0.00    +0.000 HD
ENDBRANCH   5   7
BRANCH   1  15
ATOM     14  C   UNL     1      46.498   5.849  13.291  0.00  0.00    +0.000 C 
ATOM     15  C   UNL     1      47.400   6.105  14.036  0.00  0.00    +0.000 C 
BRANCH  14  20
ATOM     16  C   UNL     1      44.652   4.578  10.308  0.00  0.00    +0.000 A 
ATOM     17  C   UNL     1      43.328   4.757  10.741  0.00  0.00    +0.000 A 
ATOM     18  C   UNL     1      43.059   5.291  12.003  0.00  0.00    +0.000 A 
ATOM     19  C   UNL     1      44.110   5.650  12.843  0.00  0.00    +0.000 A 
ATOM     20  C   UNL     1      45.429   5.476  12.423  0.00  0.00    +0.000 A 
ATOM     21  C   UNL     1      45.703   4.942  11.164  0.00  0.00    +0.000 A 
BRANCH  16  23
ATOM     22  F   UNL     1      45.175   2.662   8.956  0.00  0.00    +0.000 F 
ATOM     23  C   UNL     1      44.963   4.007   8.948  0.00  0.00    +0.000 C 
ATOM     24  F   UNL     1      46.081   4.558   8.398  0.00  0.00    +0.000 F 
ATOM     25  F   UNL     1      43.960   4.222   8.052  0.00  0.00    +0.000 F 
ENDBRANCH  16  23
ENDBRANCH  14  20
ENDBRANCH   1  15
TORSDOF 4
ENDMDL
MODEL 6
REMARK VINA RESULT:    -6.237      5.129      9.010
REMARK INTER + INTRA:          -8.323
REMARK INTER:                  -7.744
REMARK INTRA:                  -0.578
REMARK UNBOUND:                -0.627
REMARK  Name = 
REMARK  4 active torsions:
REMARK  status: ('A' for Active; 'I' for Inactive)
REMARK    1  A    between atoms: C_2  and  C_5
REMARK    2  A    between atoms: C_9  and  C_10
REMARK    3  A    between atoms: C_11  and  C_12
REMARK    4  A    between atoms: C_16  and  C_17
REMARK                            x       y       z     vdW  Elec       q    Type
REMARK                         _______ _______ _______ _____ _____    ______ ____
ROOT
ATOM      1  C   UNL     1      47.086   5.768  13.683  0.00  0.00    +0.000 A 
ATOM      2  C   UNL     1      47.873   6.490  12.790  0.00  0.00    +0.000 A 
ATOM      3  C   UNL     1      47.385   6.776  11.522  0.00  0.00    +0.000 A 
ATOM      4  C   UNL     1      46.099   6.369  11.161  0.00  0.00    +0.000 A 
ATOM      5  C   UNL     1      45.255   5.712  12.072  0.00  0.00    +0.000 A 
ATOM      6  C   UNL     1      45.796   5.373  13.325  0.00  0.00    +0.000 A 
ENDROOT
BRANCH   5   7
ATOM      7  C   UNL     1      43.799   5.359  11.760  0.00  0.00    +0.000 C 
ATOM      8  C   UNL     1      43.122   4.360  12.720  0.00  0.00    +0.000 C 
ATOM      9  C   UNL     1      43.642   2.929  12.540  0.00  0.00    +0.000 C 
ATOM     10  N   UNL     1      43.532   2.453  11.161  0.00  0.00    +0.000 NA
ATOM     11  C   UNL     1      44.161   3.372  10.210  0.00  0.00    +0.000 C 
ATOM     12  C   UNL     1      43.621   4.798  10.332  0.00  0.00    +0.000 C 
ATOM     13  H   UNL     1      42.548   2.340  10.921  0.00  0.00    +0.000 HD
ENDBRANCH   5   7
BRANCH   1  15
ATOM     14  C   UNL     1      48.085   5.250  16.052  0.00  0.00    +0.000 C 
ATOM     15  C   UNL     1      47.609   5.453  14.972  0.00  0.00    +0.000 C 
BRANCH  14  20
ATOM     16  C   UNL     1      50.622   4.559  18.699  0.00  0.00    +0.000 A 
ATOM     17  C   UNL     1      49.832   4.722  19.849  0.00  0.00    +0.000 A 
ATOM     18  C   UNL     1      48.481   5.057  19.740  0.00  0.00    +0.000 A 
ATOM     19  C   UNL     1      47.908   5.231  18.483  0.00  0.00    +0.000 A 
ATOM     20  C   UNL     1      48.683   5.072  17.334  0.00  0.00    +0.000 A 
ATOM     21  C   UNL     1      50.034   4.738  17.438  0.00  0.00    +0.000 A 
BRANCH  16  23
ATOM     22  F   UNL     1      52.478   3.851  20.051  0.00  0.00    +0.000 F 
ATOM     23  C   UNL     1      52.082   4.194  18.794  0.00  0.00    +0.000 C 
ATOM     24  F   UNL     1      52.898   5.215  18.411  0.00  0.00    +0.000 F 
ATOM     25  F   UNL     1      52.406   3.137  17.999  0.00  0.00    +0.000 F 
ENDBRANCH  16  23
ENDBRANCH  14  20
ENDBRANCH   1  15
TORSDOF 4
ENDMDL
MODEL 7
REMARK VINA RESULT:    -6.124      1.779      2.305
REMARK INTER + INTRA:          -8.183
REMARK INTER:                  -7.595
REMARK INTRA:                  -0.587
REMARK UNBOUND:                -0.627
REMARK  Name = 
REMARK  4 active torsions:
REMARK  status: ('A' for Active; 'I' for Inactive)
REMARK    1  A    between atoms: C_2  and  C_5
REMARK    2  A    between atoms: C_9  and  C_10
REMARK    3  A    between atoms: C_11  and  C_12
REMARK    4  A    between atoms: C_16  and  C_17
REMARK                            x       y       z     vdW  Elec       q    Type
REMARK                         _______ _______ _______ _____ _____    ______ ____
ROOT
ATOM      1  C   UNL     1      48.059   4.649  16.863  0.00  0.00    +0.000 A 
ATOM      2  C   UNL     1      47.945   3.402  17.471  0.00  0.00    +0.000 A 
ATOM      3  C   UNL     1      48.453   3.212  18.748  0.00  0.00    +0.000 A 
ATOM      4  C   UNL     1      49.046   4.278  19.430  0.00  0.00    +0.000 A 
ATOM      5  C   UNL     1      49.099   5.566  18.870  0.00  0.00    +0.000 A 
ATOM      6  C   UNL     1      48.640   5.717  17.550  0.00  0.00    +0.000 A 
ENDROOT
BRANCH   5   7
ATOM      7  C   UNL     1      49.625   6.786  19.629  0.00  0.00    +0.000 C 
ATOM      8  C   UNL     1      49.366   6.804  21.149  0.00  0.00    +0.000 C 
ATOM      9  C   UNL     1      47.894   7.065  21.489  0.00  0.00    +0.000 C 
ATOM     10  N   UNL     1      47.378   8.290  20.879  0.00  0.00    +0.000 NA
ATOM     11  C   UNL     1      47.603   8.319  19.432  0.00  0.00    +0.000 C 
ATOM     12  C   UNL     1      49.074   8.114  19.066  0.00  0.00    +0.000 C 
ATOM     13  H   UNL     1      47.829   9.096  21.307  0.00  0.00    +0.000 HD
ENDBRANCH   5   7
BRANCH   1  15
ATOM     14  C   UNL     1      47.076   4.959  14.451  0.00  0.00    +0.000 C 
ATOM     15  C   UNL     1      47.560   4.825  15.538  0.00  0.00    +0.000 C 
BRANCH  14  20
ATOM     16  C   UNL     1      44.749   4.416  11.586  0.00  0.00    +0.000 A 
ATOM     17  C   UNL     1      45.201   5.414  10.707  0.00  0.00    +0.000 A 
ATOM     18  C   UNL     1      46.260   6.250  11.065  0.00  0.00    +0.000 A 
ATOM     19  C   UNL     1      46.877   6.096  12.304  0.00  0.00    +0.000 A 
ATOM     20  C   UNL     1      46.436   5.109  13.186  0.00  0.00    +0.000 A 
ATOM     21  C   UNL     1      45.377   4.272  12.832  0.00  0.00    +0.000 A 
BRANCH  16  23
ATOM     22  F   UNL     1      43.402   2.498  12.113  0.00  0.00    +0.000 F 
ATOM     23  C   UNL     1      43.610   3.500  11.216  0.00  0.00    +0.000 C 
ATOM     24  F   UNL     1      43.803   2.891  10.013  0.00  0.00    +0.000 F 
ATOM     25  F   UNL     1      42.424   4.162  11.114  0.00  0.00    +0.000 F 
ENDBRANCH  16  23
ENDBRANCH  14  20
ENDBRANCH   1  15
TORSDOF 4
ENDMDL
MODEL 8
REMARK VINA RESULT:    -6.117      6.138      8.490
REMARK INTER + INTRA:          -8.175
REMARK INTER:                  -7.602
REMARK INTRA:                  -0.573
REMARK UNBOUND:                -0.627
REMARK  Name = 
REMARK  4 active torsions:
REMARK  status: ('A' for Active; 'I' for Inactive)
REMARK    1  A    between atoms: C_2  and  C_5
REMARK    2  A    between atoms: C_9  and  C_10
REMARK    3  A    between atoms: C_11  and  C_12
REMARK    4  A    between atoms: C_16  and  C_17
REMARK                            x       y       z     vdW  Elec       q    Type
REMARK                         _______ _______ _______ _____ _____    ______ ____
ROOT
ATOM      1  C   UNL     1      47.523   7.559  12.104  0.00  0.00    +0.000 A 
ATOM      2  C   UNL     1      46.796   8.744  12.182  0.00  0.00    +0.000 A 
ATOM      3  C   UNL     1      45.436   8.698  12.460  0.00  0.00    +0.000 A 
ATOM      4  C   UNL     1      44.812   7.470  12.690  0.00  0.00    +0.000 A 
ATOM      5  C   UNL     1      45.539   6.268  12.697  0.00  0.00    +0.000 A 
ATOM      6  C   UNL     1      46.899   6.333  12.347  0.00  0.00    +0.000 A 
ENDROOT
BRANCH   5   7
ATOM      7  C   UNL     1      44.921   4.918  13.066  0.00  0.00    +0.000 C 
ATOM      8  C   UNL     1      45.381   3.708  12.228  0.00  0.00    +0.000 C 
ATOM      9  C   UNL     1      44.807   3.729  10.806  0.00  0.00    +0.000 C 
ATOM     10  N   UNL     1      43.348   3.828  10.783  0.00  0.00    +0.000 NA
ATOM     11  C   UNL     1      42.863   4.965  11.569  0.00  0.00    +0.000 C 
ATOM     12  C   UNL     1      43.377   4.941  13.009  0.00  0.00    +0.000 C 
ATOM     13  H   UNL     1      42.945   2.968  11.150  0.00  0.00    +0.000 HD
ENDBRANCH   5   7
BRANCH   1  15
ATOM     14  C   UNL     1      50.061   7.686  11.458  0.00  0.00    +0.000 C 
ATOM     15  C   UNL     1      48.912   7.615  11.788  0.00  0.00    +0.000 C 
BRANCH  14  20
ATOM     16  C   UNL     1      53.157   7.180   9.437  0.00  0.00    +0.000 A 
ATOM     17  C   UNL     1      54.044   8.020  10.129  0.00  0.00    +0.000 A 
ATOM     18  C   UNL     1      53.617   8.739  11.247  0.00  0.00    +0.000 A 
ATOM     19  C   UNL     1      52.299   8.626  11.682  0.00  0.00    +0.000 A 
ATOM     20  C   UNL     1      51.408   7.796  11.001  0.00  0.00    +0.000 A 
ATOM     21  C   UNL     1      51.830   7.076   9.884  0.00  0.00    +0.000 A 
BRANCH  16  23
ATOM     22  F   UNL     1      54.792   6.804   7.717  0.00  0.00    +0.000 F 
ATOM     23  C   UNL     1      53.600   6.393   8.230  0.00  0.00    +0.000 C 
ATOM     24  F   UNL     1      52.706   6.467   7.205  0.00  0.00    +0.000 F 
ATOM     25  F   UNL     1      53.748   5.067   8.502  0.00  0.00    +0.000 F 
ENDBRANCH  16  23
ENDBRANCH  14  20
ENDBRANCH   1  15
TORSDOF 4
ENDMDL
MODEL 9
REMARK VINA RESULT:    -5.900      5.035      6.117
REMARK INTER + INTRA:          -7.907
REMARK INTER:                  -7.309
REMARK INTRA:                  -0.598
REMARK UNBOUND:                -0.627
REMARK  Name = 
REMARK  4 active torsions:
REMARK  status: ('A' for Active; 'I' for Inactive)
REMARK    1  A    between atoms: C_2  and  C_5
REMARK    2  A    between atoms: C_9  and  C_10
REMARK    3  A    between atoms: C_11  and  C_12
REMARK    4  A    between atoms: C_16  and  C_17
REMARK                            x       y       z     vdW  Elec       q    Type
REMARK                         _______ _______ _______ _____ _____    ______ ____
ROOT
ATOM      1  C   UNL     1      47.370   8.496  12.037  0.00  0.00    +0.000 A 
ATOM      2  C   UNL     1      46.650   9.681  12.152  0.00  0.00    +0.000 A 
ATOM      3  C   UNL     1      47.327  10.889  12.252  0.00  0.00    +0.000 A 
ATOM      4  C   UNL     1      48.723  10.913  12.203  0.00  0.00    +0.000 A 
ATOM      5  C   UNL     1      49.469   9.739  12.005  0.00  0.00    +0.000 A 
ATOM      6  C   UNL     1      48.765   8.523  11.975  0.00  0.00    +0.000 A 
ENDROOT
BRANCH   5   7
ATOM      7  C   UNL     1      50.988   9.735  11.821  0.00  0.00    +0.000 C 
ATOM      8  C   UNL     1      51.732   8.490  12.346  0.00  0.00    +0.000 C 
ATOM      9  C   UNL     1      51.787   8.443  13.878  0.00  0.00    +0.000 C 
ATOM     10  N   UNL     1      52.361   9.654  14.464  0.00  0.00    +0.000 NA
ATOM     11  C   UNL     1      51.686  10.866  13.993  0.00  0.00    +0.000 C 
ATOM     12  C   UNL     1      51.664  10.965  12.467  0.00  0.00    +0.000 C 
ATOM     13  H   UNL     1      53.350   9.706  14.230  0.00  0.00    +0.000 HD
ENDBRANCH   5   7
BRANCH   1  15
ATOM     14  C   UNL     1      46.026   6.251  11.863  0.00  0.00    +0.000 C 
ATOM     15  C   UNL     1      46.665   7.258  11.966  0.00  0.00    +0.000 C 
BRANCH  14  20
ATOM     16  C   UNL     1      44.561   3.155  10.383  0.00  0.00    +0.000 A 
ATOM     17  C   UNL     1      43.637   2.815  11.385  0.00  0.00    +0.000 A 
ATOM     18  C   UNL     1      43.507   3.603  12.529  0.00  0.00    +0.000 A 
ATOM     19  C   UNL     1      44.299   4.738  12.684  0.00  0.00    +0.000 A 
ATOM     20  C   UNL     1      45.221   5.085  11.696  0.00  0.00    +0.000 A 
ATOM     21  C   UNL     1      45.355   4.300  10.551  0.00  0.00    +0.000 A 
BRANCH  16  23
ATOM     22  F   UNL     1      44.304   2.950   8.003  0.00  0.00    +0.000 F 
ATOM     23  C   UNL     1      44.713   2.319   9.138  0.00  0.00    +0.000 C 
ATOM     24  F   UNL     1      44.000   1.161   9.200  0.00  0.00    +0.000 F 
ATOM     25  F   UNL     1      46.005   1.951   8.914  0.00  0.00    +0.000 F 
ENDBRANCH  16  23
ENDBRANCH  14  20
ENDBRANCH   1  15
TORSDOF 4
ENDMDL
