MODEL 1
REMARK VINA RESULT:    -8.561      0.000      0.000
REMARK INTER + INTRA:         -12.547
REMARK INTER:                 -11.564
REMARK INTRA:                  -0.983
REMARK UNBOUND:                -0.983
REMARK  Name = 
REMARK  6 active torsions:
REMARK  status: ('A' for Active; 'I' for Inactive)
REMARK    1  A    between atoms: C_2  and  C_19
REMARK    2  A    between atoms: N_3  and  C_4
REMARK    3  A    between atoms: C_4  and  C_5
REMARK    4  A    between atoms: C_8  and  O_9
REMARK    5  A    between atoms: O_9  and  C_10
REMARK    6  A    between atoms: C_10  and  C_11
REMARK                            x       y       z     vdW  Elec       q    Type
REMARK                         _______ _______ _______ _____ _____    ______ ____
ROOT
ATOM      1  O   UNL     1      49.137   6.599  13.363  0.00  0.00    +0.000 OA
ATOM      2  C   UNL     1      48.430   6.675  14.372  0.00  0.00    +0.000 C 
ATOM      3  N   UNL     1      47.169   7.208  14.354  0.00  0.00    +0.000 N 
ATOM      4  H   UNL     1      46.702   7.433  15.226  0.00  0.00    +0.000 HD
ENDROOT
BRANCH   2   5
ATOM      5  C   UNL     1      48.900   6.156  15.650  0.00  0.00    +0.000 A 
ATOM      6  C   UNL     1      49.928   6.766  16.354  0.00  0.00    +0.000 A 
ATOM      7  S   UNL     1      50.260   6.001  17.847  0.00  0.00    +0.000 S 
ATOM      8  C   UNL     1      49.026   4.855  17.595  0.00  0.00    +0.000 A 
ATOM      9  N   UNL     1      48.748   3.900  18.519  0.00  0.00    +0.000 NA
ATOM     10  C   UNL     1      47.769   3.119  18.200  0.00  0.00    +0.000 A 
ATOM     11  N   UNL     1      47.048   3.201  17.041  0.00  0.00    +0.000 N 
ATOM     12  C   UNL     1      47.337   4.096  16.044  0.00  0.00    +0.000 A 
ATOM     13  O   UNL     1      46.769   4.025  14.959  0.00  0.00    +0.000 OA
ATOM     14  C   UNL     1      48.398   5.029  16.380  0.00  0.00    +0.000 A 
ATOM     15  H   UNL     1      46.324   2.531  16.824  0.00  0.00    +0.000 HD
ENDBRANCH   2   5
BRANCH   3  16
ATOM     16  C   UNL     1      46.614   7.765  13.154  0.00  0.00    +0.000 C 
BRANCH  16  17
ATOM     17  C   UNL     1      45.970   6.748  12.246  0.00  0.00    +0.000 A 
ATOM     18  C   UNL     1      44.794   6.090  12.635  0.00  0.00    +0.000 A 
ATOM     19  C   UNL     1      44.127   5.222  11.760  0.00  0.00    +0.000 A 
ATOM     20  C   UNL     1      44.636   4.987  10.482  0.00  0.00    +0.000 A 
ATOM     21  C   UNL     1      45.831   5.605  10.106  0.00  0.00    +0.000 A 
ATOM     22  C   UNL     1      46.495   6.477  10.976  0.00  0.00    +0.000 A 
BRANCH  20  23
ATOM     23  O   UNL     1      44.085   4.156   9.540  0.00  0.00    +0.000 OA
BRANCH  23  24
ATOM     24  C   UNL     1      44.497   2.785   9.594  0.00  0.00    +0.000 C 
BRANCH  24  25
ATOM     25  C   UNL     1      45.461   2.471   8.461  0.00  0.00    +0.000 A 
ATOM     26  C   UNL     1      45.659   3.395   7.438  0.00  0.00    +0.000 A 
ATOM     27  C   UNL     1      46.527   3.078   6.394  0.00  0.00    +0.000 A 
ATOM     28  C   UNL     1      47.172   1.849   6.393  0.00  0.00    +0.000 A 
ATOM     29  C   UNL     1      46.918   0.980   7.440  0.00  0.00    +0.000 A 
ATOM     30  N   UNL     1      46.078   1.259   8.465  0.00  0.00    +0.000 NA
ENDBRANCH  24  25
ENDBRANCH  23  24
ENDBRANCH  20  23
ENDBRANCH  16  17
ENDBRANCH   3  16
TORSDOF 6
ENDMDL
MODEL 2
REMARK VINA RESULT:    -7.925      1.883      2.398
REMARK INTER + INTRA:         -11.687
REMARK INTER:                 -10.961
REMARK INTRA:                  -0.726
REMARK UNBOUND:                -0.983
REMARK  Name = 
REMARK  6 active torsions:
REMARK  status: ('A' for Active; 'I' for Inactive)
REMARK    1  A    between atoms: C_2  and  C_19
REMARK    2  A    between atoms: N_3  and  C_4
REMARK    3  A    between atoms: C_4  and  C_5
REMARK    4  A    between atoms: C_8  and  O_9
REMARK    5  A    between atoms: O_9  and  C_10
REMARK    6  A    between atoms: C_10  and  C_11
REMARK                            x       y       z     vdW  Elec       q    Type
REMARK                         _______ _______ _______ _____ _____    ______ ____
ROOT
ATOM      1  O   UNL     1      49.427   6.670  15.421  0.00  0.00    +0.000 OA
ATOM      2  C   UNL     1      48.467   5.941  15.690  0.00  0.00    +0.000 C 
ATOM      3  N   UNL     1      47.407   5.773  14.841  0.00  0.00    +0.000 N 
ATOM      4  H   UNL     1      46.557   5.331  15.174  0.00  0.00    +0.000 HD
ENDROOT
BRANCH   2   5
ATOM      5  C   UNL     1      48.435   5.181  16.933  0.00  0.00    +0.000 A 
ATOM      6  C   UNL     1      48.540   3.798  16.947  0.00  0.00    +0.000 A 
ATOM      7  S   UNL     1      48.531   3.144  18.527  0.00  0.00    +0.000 S 
ATOM      8  C   UNL     1      48.410   4.692  19.224  0.00  0.00    +0.000 A 
ATOM      9  N   UNL     1      48.381   4.862  20.572  0.00  0.00    +0.000 NA
ATOM     10  C   UNL     1      48.313   6.095  20.952  0.00  0.00    +0.000 A 
ATOM     11  N   UNL     1      48.264   7.172  20.112  0.00  0.00    +0.000 N 
ATOM     12  C   UNL     1      48.214   7.052  18.747  0.00  0.00    +0.000 A 
ATOM     13  O   UNL     1      48.008   8.035  18.042  0.00  0.00    +0.000 OA
ATOM     14  C   UNL     1      48.340   5.686  18.270  0.00  0.00    +0.000 A 
ATOM     15  H   UNL     1      48.163   8.112  20.466  0.00  0.00    +0.000 HD
ENDBRANCH   2   5
BRANCH   3  16
ATOM     16  C   UNL     1      47.326   6.487  13.599  0.00  0.00    +0.000 C 
BRANCH  16  17
ATOM     17  C   UNL     1      46.432   5.835  12.574  0.00  0.00    +0.000 A 
ATOM     18  C   UNL     1      46.282   6.399  11.299  0.00  0.00    +0.000 A 
ATOM     19  C   UNL     1      45.540   5.749  10.303  0.00  0.00    +0.000 A 
ATOM     20  C   UNL     1      44.924   4.526  10.572  0.00  0.00    +0.000 A 
ATOM     21  C   UNL     1      45.034   3.982  11.854  0.00  0.00    +0.000 A 
ATOM     22  C   UNL     1      45.779   4.626  12.849  0.00  0.00    +0.000 A 
BRANCH  20  23
ATOM     23  O   UNL     1      44.167   3.798   9.690  0.00  0.00    +0.000 OA
BRANCH  23  24
ATOM     24  C   UNL     1      44.571   2.440   9.488  0.00  0.00    +0.000 C 
BRANCH  24  25
ATOM     25  C   UNL     1      45.579   2.343   8.354  0.00  0.00    +0.000 A 
ATOM     26  C   UNL     1      45.691   3.382   7.432  0.00  0.00    +0.000 A 
ATOM     27  C   UNL     1      46.602   3.263   6.382  0.00  0.00    +0.000 A 
ATOM     28  C   UNL     1      47.375   2.115   6.276  0.00  0.00    +0.000 A 
ATOM     29  C   UNL     1      47.200   1.123   7.226  0.00  0.00    +0.000 A 
ATOM     30  N   UNL     1      46.321   1.208   8.252  0.00  0.00    +0.000 NA
ENDBRANCH  24  25
ENDBRANCH  23  24
ENDBRANCH  20  23
ENDBRANCH  16  17
ENDBRANCH   3  16
TORSDOF 6
ENDMDL
MODEL 3
REMARK VINA RESULT:    -7.752      1.892      2.353
REMARK INTER + INTRA:         -11.454
REMARK INTER:                 -10.609
REMARK INTRA:                  -0.846
REMARK UNBOUND:                -0.983
REMARK  Name = 
REMARK  6 active torsions:
REMARK  status: ('A' for Active; 'I' for Inactive)
REMARK    1  A    between atoms: C_2  and  C_19
REMARK    2  A    between atoms: N_3  and  C_4
REMARK    3  A    between atoms: C_4  and  C_5
REMARK    4  A    between atoms: C_8  and  O_9
REMARK    5  A    between atoms: O_9  and  C_10
REMARK    6  A    between atoms: C_10  and  C_11
REMARK                            x       y       z     vdW  Elec       q    Type
REMARK                         _______ _______ _______ _____ _____    ______ ____
ROOT
ATOM      1  O   UNL     1      50.277   7.357  15.614  0.00  0.00    +0.000 OA
ATOM      2  C   UNL     1      49.133   7.133  16.022  0.00  0.00    +0.000 C 
ATOM      3  N   UNL     1      48.089   6.855  15.181  0.00  0.00    +0.000 N 
ATOM      4  H   UNL     1      47.138   6.873  15.533  0.00  0.00    +0.000 HD
ENDROOT
BRANCH   2   5
ATOM      5  C   UNL     1      48.843   7.116  17.450  0.00  0.00    +0.000 A 
ATOM      6  C   UNL     1      48.430   8.254  18.126  0.00  0.00    +0.000 A 
ATOM      7  S   UNL     1      48.102   7.966  19.779  0.00  0.00    +0.000 S 
ATOM      8  C   UNL     1      48.482   6.314  19.622  0.00  0.00    +0.000 A 
ATOM      9  N   UNL     1      48.385   5.462  20.675  0.00  0.00    +0.000 NA
ATOM     10  C   UNL     1      48.681   4.235  20.396  0.00  0.00    +0.000 A 
ATOM     11  N   UNL     1      49.071   3.784  19.166  0.00  0.00    +0.000 N 
ATOM     12  C   UNL     1      49.257   4.614  18.091  0.00  0.00    +0.000 A 
ATOM     13  O   UNL     1      49.762   4.190  17.056  0.00  0.00    +0.000 OA
ATOM     14  C   UNL     1      48.887   5.996  18.343  0.00  0.00    +0.000 A 
ATOM     15  H   UNL     1      49.337   2.821  19.019  0.00  0.00    +0.000 HD
ENDBRANCH   2   5
BRANCH   3  16
ATOM     16  C   UNL     1      48.258   6.864  13.756  0.00  0.00    +0.000 C 
BRANCH  16  17
ATOM     17  C   UNL     1      47.165   6.144  13.006  0.00  0.00    +0.000 A 
ATOM     18  C   UNL     1      46.637   6.686  11.825  0.00  0.00    +0.000 A 
ATOM     19  C   UNL     1      45.698   5.979  11.061  0.00  0.00    +0.000 A 
ATOM     20  C   UNL     1      45.262   4.720  11.475  0.00  0.00    +0.000 A 
ATOM     21  C   UNL     1      45.753   4.195  12.673  0.00  0.00    +0.000 A 
ATOM     22  C   UNL     1      46.695   4.897  13.434  0.00  0.00    +0.000 A 
BRANCH  20  23
ATOM     23  O   UNL     1      44.345   3.935  10.823  0.00  0.00    +0.000 OA
BRANCH  23  24
ATOM     24  C   UNL     1      44.167   4.204   9.428  0.00  0.00    +0.000 C 
BRANCH  24  25
ATOM     25  C   UNL     1      45.183   3.433   8.600  0.00  0.00    +0.000 A 
ATOM     26  C   UNL     1      45.371   2.070   8.822  0.00  0.00    +0.000 A 
ATOM     27  C   UNL     1      46.326   1.385   8.072  0.00  0.00    +0.000 A 
ATOM     28  C   UNL     1      47.072   2.074   7.124  0.00  0.00    +0.000 A 
ATOM     29  C   UNL     1      46.833   3.428   6.968  0.00  0.00    +0.000 A 
ATOM     30  N   UNL     1      45.916   4.121   7.684  0.00  0.00    +0.000 NA
ENDBRANCH  24  25
ENDBRANCH  23  24
ENDBRANCH  20  23
ENDBRANCH  16  17
ENDBRANCH   3  16
TORSDOF 6
ENDMDL
MODEL 4
REMARK VINA RESULT:    -7.512      2.384      3.160
REMARK INTER + INTRA:         -11.130
REMARK INTER:                 -10.149
REMARK INTRA:                  -0.980
REMARK UNBOUND:                -0.983
REMARK  Name = 
REMARK  6 active torsions:
REMARK  status: ('A' for Active; 'I' for Inactive)
REMARK    1  A    between atoms: C_2  and  C_19
REMARK    2  A    between atoms: N_3  and  C_4
REMARK    3  A    between atoms: C_4  and  C_5
REMARK    4  A    between atoms: C_8  and  O_9
REMARK    5  A    between atoms: O_9  and  C_10
REMARK    6  A    between atoms: C_10  and  C_11
REMARK                            x       y       z     vdW  Elec       q    Type
REMARK                         _______ _______ _______ _____ _____    ______ ____
ROOT
ATOM      1  O   UNL     1      47.557   4.897  18.154  0.00  0.00    +0.000 OA
ATOM      2  C   UNL     1      48.342   4.588  17.253  0.00  0.00    +0.000 C 
ATOM      3  N   UNL     1      47.939   4.363  15.965  0.00  0.00    +0.000 N 
ATOM      4  H   UNL     1      48.573   3.924  15.305  0.00  0.00    +0.000 HD
ENDROOT
BRANCH   2   5
ATOM      5  C   UNL     1      49.772   4.485  17.517  0.00  0.00    +0.000 A 
ATOM      6  C   UNL     1      50.519   5.576  17.935  0.00  0.00    +0.000 A 
ATOM      7  S   UNL     1      52.159   5.189  18.229  0.00  0.00    +0.000 S 
ATOM      8  C   UNL     1      51.900   3.555  17.826  0.00  0.00    +0.000 A 
ATOM      9  N   UNL     1      52.905   2.643  17.891  0.00  0.00    +0.000 NA
ATOM     10  C   UNL     1      52.552   1.439  17.581  0.00  0.00    +0.000 A 
ATOM     11  N   UNL     1      51.291   1.065  17.206  0.00  0.00    +0.000 N 
ATOM     12  C   UNL     1      50.262   1.958  17.052  0.00  0.00    +0.000 A 
ATOM     13  O   UNL     1      49.196   1.602  16.560  0.00  0.00    +0.000 OA
ATOM     14  C   UNL     1      50.598   3.317  17.439  0.00  0.00    +0.000 A 
ATOM     15  H   UNL     1      51.084   0.116  16.928  0.00  0.00    +0.000 HD
ENDBRANCH   2   5
BRANCH   3  16
ATOM     16  C   UNL     1      46.553   4.419  15.598  0.00  0.00    +0.000 C 
BRANCH  16  17
ATOM     17  C   UNL     1      46.315   4.809  14.160  0.00  0.00    +0.000 A 
ATOM     18  C   UNL     1      47.134   5.762  13.537  0.00  0.00    +0.000 A 
ATOM     19  C   UNL     1      46.993   6.056  12.174  0.00  0.00    +0.000 A 
ATOM     20  C   UNL     1      46.018   5.409  11.414  0.00  0.00    +0.000 A 
ATOM     21  C   UNL     1      45.171   4.491  12.040  0.00  0.00    +0.000 A 
ATOM     22  C   UNL     1      45.314   4.192  13.400  0.00  0.00    +0.000 A 
BRANCH  20  23
ATOM     23  O   UNL     1      45.775   5.615  10.079  0.00  0.00    +0.000 OA
BRANCH  23  24
ATOM     24  C   UNL     1      44.847   4.714   9.464  0.00  0.00    +0.000 C 
BRANCH  24  25
ATOM     25  C   UNL     1      45.575   3.714   8.581  0.00  0.00    +0.000 A 
ATOM     26  C   UNL     1      45.547   2.357   8.894  0.00  0.00    +0.000 A 
ATOM     27  C   UNL     1      46.244   1.458   8.088  0.00  0.00    +0.000 A 
ATOM     28  C   UNL     1      46.953   1.933   6.993  0.00  0.00    +0.000 A 
ATOM     29  C   UNL     1      46.941   3.295   6.751  0.00  0.00    +0.000 A 
ATOM     30  N   UNL     1      46.277   4.193   7.519  0.00  0.00    +0.000 NA
ENDBRANCH  24  25
ENDBRANCH  23  24
ENDBRANCH  20  23
ENDBRANCH  16  17
ENDBRANCH   3  16
TORSDOF 6
ENDMDL
MODEL 5
REMARK VINA RESULT:    -7.469      2.778      4.585
REMARK INTER + INTRA:         -11.071
REMARK INTER:                  -9.984
REMARK INTRA:                  -1.087
REMARK UNBOUND:                -0.983
REMARK  Name = 
REMARK  6 active torsions:
REMARK  status: ('A' for Active; 'I' for Inactive)
REMARK    1  A    between atoms: C_2  and  C_19
REMARK    2  A    between atoms: N_3  and  C_4
REMARK    3  A    between atoms: C_4  and  C_5
REMARK    4  A    between atoms: C_8  and  O_9
REMARK    5  A    between atoms: O_9  and  C_10
REMARK    6  A    between atoms: C_10  and  C_11
REMARK                            x       y       z     vdW  Elec       q    Type
REMARK                         _______ _______ _______ _____ _____    ______ ____
ROOT
ATOM      1  O   UNL     1      49.902   7.000  15.033  0.00  0.00    +0.000 OA
ATOM      2  C   UNL     1      48.935   7.672  14.661  0.00  0.00    +0.000 C 
ATOM      3  N   UNL     1      47.722   7.115  14.356  0.00  0.00    +0.000 N 
ATOM      4  H   UNL     1      47.021   7.665  13.871  0.00  0.00    +0.000 HD
ENDROOT
BRANCH   2   5
ATOM      5  C   UNL     1      49.030   9.123  14.565  0.00  0.00    +0.000 A 
ATOM      6  C   UNL     1      49.170   9.923  15.689  0.00  0.00    +0.000 A 
ATOM      7  S   UNL     1      49.314  11.584  15.311  0.00  0.00    +0.000 S 
ATOM      8  C   UNL     1      49.215  11.268  13.642  0.00  0.00    +0.000 A 
ATOM      9  N   UNL     1      49.299  12.268  12.725  0.00  0.00    +0.000 NA
ATOM     10  C   UNL     1      49.235  11.872  11.497  0.00  0.00    +0.000 A 
ATOM     11  N   UNL     1      49.087  10.572  11.101  0.00  0.00    +0.000 N 
ATOM     12  C   UNL     1      48.921   9.537  11.984  0.00  0.00    +0.000 A 
ATOM     13  O   UNL     1      48.631   8.414  11.582  0.00  0.00    +0.000 OA
ATOM     14  C   UNL     1      49.039   9.926  13.378  0.00  0.00    +0.000 A 
ATOM     15  H   UNL     1      48.993  10.326  10.126  0.00  0.00    +0.000 HD
ENDBRANCH   2   5
BRANCH   3  16
ATOM     16  C   UNL     1      47.522   5.695  14.399  0.00  0.00    +0.000 C 
BRANCH  16  17
ATOM     17  C   UNL     1      46.708   5.156  13.250  0.00  0.00    +0.000 A 
ATOM     18  C   UNL     1      46.263   3.826  13.256  0.00  0.00    +0.000 A 
ATOM     19  C   UNL     1      45.418   3.341  12.248  0.00  0.00    +0.000 A 
ATOM     20  C   UNL     1      45.015   4.179  11.208  0.00  0.00    +0.000 A 
ATOM     21  C   UNL     1      45.491   5.492  11.173  0.00  0.00    +0.000 A 
ATOM     22  C   UNL     1      46.330   5.980  12.182  0.00  0.00    +0.000 A 
BRANCH  20  23
ATOM     23  O   UNL     1      44.201   3.824  10.162  0.00  0.00    +0.000 OA
BRANCH  23  24
ATOM     24  C   UNL     1      44.350   2.485   9.677  0.00  0.00    +0.000 C 
BRANCH  24  25
ATOM     25  C   UNL     1      45.405   2.425   8.583  0.00  0.00    +0.000 A 
ATOM     26  C   UNL     1      45.656   3.547   7.796  0.00  0.00    +0.000 A 
ATOM     27  C   UNL     1      46.607   3.465   6.780  0.00  0.00    +0.000 A 
ATOM     28  C   UNL     1      47.280   2.269   6.571  0.00  0.00    +0.000 A 
ATOM     29  C   UNL     1      46.969   1.196   7.388  0.00  0.00    +0.000 A 
ATOM     30  N   UNL     1      46.048   1.244   8.379  0.00  0.00    +0.000 NA
ENDBRANCH  24  25
ENDBRANCH  23  24
ENDBRANCH  20  23
ENDBRANCH  16  17
ENDBRANCH   3  16
TORSDOF 6
ENDMDL
MODEL 6
REMARK VINA RESULT:    -7.195      3.025      5.060
REMARK INTER + INTRA:         -10.701
REMARK INTER:                 -10.086
REMARK INTRA:                  -0.615
REMARK UNBOUND:                -0.983
REMARK  Name = 
REMARK  6 active torsions:
REMARK  status: ('A' for Active; 'I' for Inactive)
REMARK    1  A    between atoms: C_2  and  C_19
REMARK    2  A    between atoms: N_3  and  C_4
REMARK    3  A    between atoms: C_4  and  C_5
REMARK    4  A    between atoms: C_8  and  O_9
REMARK    5  A    between atoms: O_9  and  C_10
REMARK    6  A    between atoms: C_10  and  C_11
REMARK                            x       y       z     vdW  Elec       q    Type
REMARK                         _______ _______ _______ _____ _____    ______ ____
ROOT
ATOM      1  O   UNL     1      49.082   7.285  12.138  0.00  0.00    +0.000 OA
ATOM      2  C   UNL     1      48.277   7.983  12.761  0.00  0.00    +0.000 C 
ATOM      3  N   UNL     1      47.471   7.481  13.746  0.00  0.00    +0.000 N 
ATOM      4  H   UNL     1      46.693   8.033  14.095  0.00  0.00    +0.000 HD
ENDROOT
BRANCH   2   5
ATOM      5  C   UNL     1      48.173   9.413  12.499  0.00  0.00    +0.000 A 
ATOM      6  C   UNL     1      49.297  10.218  12.381  0.00  0.00    +0.000 A 
ATOM      7  S   UNL     1      48.916  11.846  12.020  0.00  0.00    +0.000 S 
ATOM      8  C   UNL     1      47.248  11.505  11.990  0.00  0.00    +0.000 A 
ATOM      9  N   UNL     1      46.333  12.469  11.709  0.00  0.00    +0.000 NA
ATOM     10  C   UNL     1      45.110  12.055  11.697  0.00  0.00    +0.000 A 
ATOM     11  N   UNL     1      44.716  10.770  11.948  0.00  0.00    +0.000 N 
ATOM     12  C   UNL     1      45.590   9.779  12.311  0.00  0.00    +0.000 A 
ATOM     13  O   UNL     1      45.174   8.685  12.682  0.00  0.00    +0.000 OA
ATOM     14  C   UNL     1      46.984  10.184  12.287  0.00  0.00    +0.000 A 
ATOM     15  H   UNL     1      43.739  10.514  11.973  0.00  0.00    +0.000 HD
ENDBRANCH   2   5
BRANCH   3  16
ATOM     16  C   UNL     1      47.477   6.084  14.075  0.00  0.00    +0.000 C 
BRANCH  16  17
ATOM     17  C   UNL     1      46.610   5.240  13.176  0.00  0.00    +0.000 A 
ATOM     18  C   UNL     1      46.016   5.795  12.033  0.00  0.00    +0.000 A 
ATOM     19  C   UNL     1      45.296   4.999  11.132  0.00  0.00    +0.000 A 
ATOM     20  C   UNL     1      45.146   3.632  11.368  0.00  0.00    +0.000 A 
ATOM     21  C   UNL     1      45.699   3.082  12.527  0.00  0.00    +0.000 A 
ATOM     22  C   UNL     1      46.423   3.874  13.426  0.00  0.00    +0.000 A 
BRANCH  20  23
ATOM     23  O   UNL     1      44.460   2.751  10.571  0.00  0.00    +0.000 OA
BRANCH  23  24
ATOM     24  C   UNL     1      44.312   3.130   9.198  0.00  0.00    +0.000 C 
BRANCH  24  25
ATOM     25  C   UNL     1      45.504   2.658   8.380  0.00  0.00    +0.000 A 
ATOM     26  C   UNL     1      46.139   3.536   7.504  0.00  0.00    +0.000 A 
ATOM     27  C   UNL     1      47.213   3.076   6.742  0.00  0.00    +0.000 A 
ATOM     28  C   UNL     1      47.624   1.756   6.869  0.00  0.00    +0.000 A 
ATOM     29  C   UNL     1      46.938   0.943   7.754  0.00  0.00    +0.000 A 
ATOM     30  N   UNL     1      45.889   1.360   8.503  0.00  0.00    +0.000 NA
ENDBRANCH  24  25
ENDBRANCH  23  24
ENDBRANCH  20  23
ENDBRANCH  16  17
ENDBRANCH   3  16
TORSDOF 6
ENDMDL
MODEL 7
REMARK VINA RESULT:    -7.149      3.542      4.561
REMARK INTER + INTRA:         -10.639
REMARK INTER:                  -9.524
REMARK INTRA:                  -1.115
REMARK UNBOUND:                -0.983
REMARK  Name = 
REMARK  6 active torsions:
REMARK  status: ('A' for Active; 'I' for Inactive)
REMARK    1  A    between atoms: C_2  and  C_19
REMARK    2  A    between atoms: N_3  and  C_4
REMARK    3  A    between atoms: C_4  and  C_5
REMARK    4  A    between atoms: C_8  and  O_9
REMARK    5  A    between atoms: O_9  and  C_10
REMARK    6  A    between atoms: C_10  and  C_11
REMARK                            x       y       z     vdW  Elec       q    Type
REMARK                         _______ _______ _______ _____ _____    ______ ____
ROOT
ATOM      1  O   UNL     1      46.720  10.567  11.508  0.00  0.00    +0.000 OA
ATOM      2  C   UNL     1      47.361   9.989  12.391  0.00  0.00    +0.000 C 
ATOM      3  N   UNL     1      46.830   8.981  13.150  0.00  0.00    +0.000 N 
ATOM      4  H   UNL     1      47.311   8.670  13.986  0.00  0.00    +0.000 HD
ENDROOT
BRANCH   2   5
ATOM      5  C   UNL     1      48.753  10.335  12.647  0.00  0.00    +0.000 A 
ATOM      6  C   UNL     1      49.110  11.528  13.259  0.00  0.00    +0.000 A 
ATOM      7  S   UNL     1      50.797  11.676  13.497  0.00  0.00    +0.000 S 
ATOM      8  C   UNL     1      51.083  10.145  12.811  0.00  0.00    +0.000 A 
ATOM      9  N   UNL     1      52.337   9.630  12.724  0.00  0.00    +0.000 NA
ATOM     10  C   UNL     1      52.394   8.449  12.205  0.00  0.00    +0.000 A 
ATOM     11  N   UNL     1      51.315   7.738  11.757  0.00  0.00    +0.000 N 
ATOM     12  C   UNL     1      50.040   8.241  11.752  0.00  0.00    +0.000 A 
ATOM     13  O   UNL     1      49.132   7.632  11.194  0.00  0.00    +0.000 OA
ATOM     14  C   UNL     1      49.919   9.547  12.375  0.00  0.00    +0.000 A 
ATOM     15  H   UNL     1      51.425   6.837  11.315  0.00  0.00    +0.000 HD
ENDBRANCH   2   5
BRANCH   3  16
ATOM     16  C   UNL     1      45.463   8.573  12.995  0.00  0.00    +0.000 C 
BRANCH  16  17
ATOM     17  C   UNL     1      45.298   7.153  12.516  0.00  0.00    +0.000 A 
ATOM     18  C   UNL     1      44.496   6.866  11.402  0.00  0.00    +0.000 A 
ATOM     19  C   UNL     1      44.418   5.567  10.881  0.00  0.00    +0.000 A 
ATOM     20  C   UNL     1      45.134   4.528  11.477  0.00  0.00    +0.000 A 
ATOM     21  C   UNL     1      45.901   4.800  12.613  0.00  0.00    +0.000 A 
ATOM     22  C   UNL     1      45.984   6.098  13.131  0.00  0.00    +0.000 A 
BRANCH  20  23
ATOM     23  O   UNL     1      45.135   3.218  11.070  0.00  0.00    +0.000 OA
BRANCH  23  24
ATOM     24  C   UNL     1      44.443   2.940   9.847  0.00  0.00    +0.000 C 
BRANCH  24  25
ATOM     25  C   UNL     1      45.429   2.645   8.728  0.00  0.00    +0.000 A 
ATOM     26  C   UNL     1      45.793   3.652   7.838  0.00  0.00    +0.000 A 
ATOM     27  C   UNL     1      46.678   3.355   6.801  0.00  0.00    +0.000 A 
ATOM     28  C   UNL     1      47.173   2.064   6.676  0.00  0.00    +0.000 A 
ATOM     29  C   UNL     1      46.758   1.116   7.594  0.00  0.00    +0.000 A 
ATOM     30  N   UNL     1      45.897   1.374   8.608  0.00  0.00    +0.000 NA
ENDBRANCH  24  25
ENDBRANCH  23  24
ENDBRANCH  20  23
ENDBRANCH  16  17
ENDBRANCH   3  16
TORSDOF 6
ENDMDL
MODEL 8
REMARK VINA RESULT:    -7.080      4.432      8.943
REMARK INTER + INTRA:         -10.546
REMARK INTER:                  -9.724
REMARK INTRA:                  -0.822
REMARK UNBOUND:                -0.983
REMARK  Name = 
REMARK  6 active torsions:
REMARK  status: ('A' for Active; 'I' for Inactive)
REMARK    1  A    between atoms: C_2  and  C_19
REMARK    2  A    between atoms: N_3  and  C_4
REMARK    3  A    between atoms: C_4  and  C_5
REMARK    4  A    between atoms: C_8  and  O_9
REMARK    5  A    between atoms: O_9  and  C_10
REMARK    6  A    between atoms: C_10  and  C_11
REMARK                            x       y       z     vdW  Elec       q    Type
REMARK                         _______ _______ _______ _____ _____    ______ ____
ROOT
ATOM      1  O   UNL     1      47.278   3.136  14.177  0.00  0.00    +0.000 OA
ATOM      2  C   UNL     1      46.976   4.251  14.613  0.00  0.00    +0.000 C 
ATOM      3  N   UNL     1      46.978   4.549  15.949  0.00  0.00    +0.000 N 
ATOM      4  H   UNL     1      46.540   5.403  16.278  0.00  0.00    +0.000 HD
ENDROOT
BRANCH   2   5
ATOM      5  C   UNL     1      46.634   5.337  13.703  0.00  0.00    +0.000 A 
ATOM      6  C   UNL     1      47.520   6.369  13.429  0.00  0.00    +0.000 A 
ATOM      7  S   UNL     1      46.908   7.490  12.292  0.00  0.00    +0.000 S 
ATOM      8  C   UNL     1      45.460   6.610  12.124  0.00  0.00    +0.000 A 
ATOM      9  N   UNL     1      44.484   7.010  11.268  0.00  0.00    +0.000 NA
ATOM     10  C   UNL     1      43.456   6.228  11.230  0.00  0.00    +0.000 A 
ATOM     11  N   UNL     1      43.311   5.090  11.973  0.00  0.00    +0.000 N 
ATOM     12  C   UNL     1      44.230   4.684  12.905  0.00  0.00    +0.000 A 
ATOM     13  O   UNL     1      43.982   3.748  13.660  0.00  0.00    +0.000 OA
ATOM     14  C   UNL     1      45.428   5.504  12.947  0.00  0.00    +0.000 A 
ATOM     15  H   UNL     1      42.462   4.542  11.937  0.00  0.00    +0.000 HD
ENDBRANCH   2   5
BRANCH   3  16
ATOM     16  C   UNL     1      47.281   3.551  16.934  0.00  0.00    +0.000 C 
BRANCH  16  17
ATOM     17  C   UNL     1      48.754   3.398  17.218  0.00  0.00    +0.000 A 
ATOM     18  C   UNL     1      49.400   2.174  16.990  0.00  0.00    +0.000 A 
ATOM     19  C   UNL     1      50.787   2.047  17.148  0.00  0.00    +0.000 A 
ATOM     20  C   UNL     1      51.550   3.143  17.551  0.00  0.00    +0.000 A 
ATOM     21  C   UNL     1      50.906   4.353  17.822  0.00  0.00    +0.000 A 
ATOM     22  C   UNL     1      49.522   4.483  17.659  0.00  0.00    +0.000 A 
BRANCH  20  23
ATOM     23  O   UNL     1      52.908   3.145  17.750  0.00  0.00    +0.000 OA
BRANCH  23  24
ATOM     24  C   UNL     1      53.393   2.276  18.780  0.00  0.00    +0.000 C 
BRANCH  24  25
ATOM     25  C   UNL     1      54.023   1.030  18.177  0.00  0.00    +0.000 A 
ATOM     26  C   UNL     1      54.595   1.083  16.908  0.00  0.00    +0.000 A 
ATOM     27  C   UNL     1      55.143  -0.076  16.361  0.00  0.00    +0.000 A 
ATOM     28  C   UNL     1      55.106  -1.258  17.089  0.00  0.00    +0.000 A 
ATOM     29  C   UNL     1      54.513  -1.233  18.339  0.00  0.00    +0.000 A 
ATOM     30  N   UNL     1      53.968  -0.124  18.894  0.00  0.00    +0.000 NA
ENDBRANCH  24  25
ENDBRANCH  23  24
ENDBRANCH  20  23
ENDBRANCH  16  17
ENDBRANCH   3  16
TORSDOF 6
ENDMDL
MODEL 9
REMARK VINA RESULT:    -6.948      1.483      2.193
REMARK INTER + INTRA:         -10.367
REMARK INTER:                  -9.381
REMARK INTRA:                  -0.986
REMARK UNBOUND:                -0.983
REMARK  Name = 
REMARK  6 active torsions:
REMARK  status: ('A' for Active; 'I' for Inactive)
REMARK    1  A    between atoms: C_2  and  C_19
REMARK    2  A    between atoms: N_3  and  C_4
REMARK    3  A    between atoms: C_4  and  C_5
REMARK    4  A    between atoms: C_8  and  O_9
REMARK    5  A    between atoms: O_9  and  C_10
REMARK    6  A    between atoms: C_10  and  C_11
REMARK                            x       y       z     vdW  Elec       q    Type
REMARK                         _______ _______ _______ _____ _____    ______ ____
ROOT
ATOM      1  O   UNL     1      50.559   7.180  15.140  0.00  0.00    +0.000 OA
ATOM      2  C   UNL     1      49.565   6.982  15.845  0.00  0.00    +0.000 C 
ATOM      3  N   UNL     1      48.358   7.582  15.607  0.00  0.00    +0.000 N 
ATOM      4  H   UNL     1      47.630   7.551  16.313  0.00  0.00    +0.000 HD
ENDROOT
BRANCH   2   5
ATOM      5  C   UNL     1      49.622   6.050  16.965  0.00  0.00    +0.000 A 
ATOM      6  C   UNL     1      50.473   6.252  18.042  0.00  0.00    +0.000 A 
ATOM      7  S   UNL     1      50.316   5.052  19.249  0.00  0.00    +0.000 S 
ATOM      8  C   UNL     1      49.095   4.253  18.372  0.00  0.00    +0.000 A 
ATOM      9  N   UNL     1      48.489   3.138  18.857  0.00  0.00    +0.000 NA
ATOM     10  C   UNL     1      47.565   2.658  18.092  0.00  0.00    +0.000 A 
ATOM     11  N   UNL     1      47.196   3.185  16.885  0.00  0.00    +0.000 N 
ATOM     12  C   UNL     1      47.826   4.262  16.317  0.00  0.00    +0.000 A 
ATOM     13  O   UNL     1      47.569   4.599  15.165  0.00  0.00    +0.000 OA
ATOM     14  C   UNL     1      48.838   4.867  17.165  0.00  0.00    +0.000 A 
ATOM     15  H   UNL     1      46.499   2.739  16.307  0.00  0.00    +0.000 HD
ENDBRANCH   2   5
BRANCH   3  16
ATOM     16  C   UNL     1      48.194   8.530  14.543  0.00  0.00    +0.000 C 
BRANCH  16  17
ATOM     17  C   UNL     1      47.282   8.060  13.439  0.00  0.00    +0.000 A 
ATOM     18  C   UNL     1      47.617   6.938  12.667  0.00  0.00    +0.000 A 
ATOM     19  C   UNL     1      46.731   6.427  11.710  0.00  0.00    +0.000 A 
ATOM     20  C   UNL     1      45.496   7.040  11.499  0.00  0.00    +0.000 A 
ATOM     21  C   UNL     1      45.175   8.184  12.234  0.00  0.00    +0.000 A 
ATOM     22  C   UNL     1      46.056   8.693  13.195  0.00  0.00    +0.000 A 
BRANCH  20  23
ATOM     23  O   UNL     1      44.548   6.644  10.589  0.00  0.00    +0.000 OA
BRANCH  23  24
ATOM     24  C   UNL     1      43.942   5.368  10.829  0.00  0.00    +0.000 C 
BRANCH  24  25
ATOM     25  C   UNL     1      44.527   4.315   9.902  0.00  0.00    +0.000 A 
ATOM     26  C   UNL     1      45.437   4.684   8.914  0.00  0.00    +0.000 A 
ATOM     27  C   UNL     1      45.941   3.707   8.056  0.00  0.00    +0.000 A 
ATOM     28  C   UNL     1      45.524   2.391   8.200  0.00  0.00    +0.000 A 
ATOM     29  C   UNL     1      44.611   2.104   9.200  0.00  0.00    +0.000 A 
ATOM     30  N   UNL     1      44.101   3.031  10.045  0.00  0.00    +0.000 NA
ENDBRANCH  24  25
ENDBRANCH  23  24
ENDBRANCH  20  23
ENDBRANCH  16  17
ENDBRANCH   3  16
TORSDOF 6
ENDMDL
