MODEL 1
REMARK VINA RESULT:    -7.733      0.000      0.000
REMARK INTER + INTRA:         -12.697
REMARK INTER:                 -10.898
REMARK INTRA:                  -1.799
REMARK UNBOUND:                -1.799
REMARK  Name = 
REMARK  7 active torsions:
REMARK  status: ('A' for Active; 'I' for Inactive)
REMARK    1  A    between atoms: C_2  and  C_4
REMARK    2  A    between atoms: C_8  and  O_9
REMARK    3  A    between atoms: O_9  and  C_10
REMARK    4  A    between atoms: C_10  and  C_11
REMARK    5  A    between atoms: C_16  and  C_17
REMARK    6  A    between atoms: C_22  and  O_23
REMARK    7  A    between atoms: O_23  and  C_24
REMARK                            x       y       z     vdW  Elec       q    Type
REMARK                         _______ _______ _______ _____ _____    ______ ____
ROOT
ATOM      1  C   UNL     1      47.336   7.874  12.996  0.00  0.00    +0.000 A 
ATOM      2  C   UNL     1      46.390   8.890  13.140  0.00  0.00    +0.000 A 
ATOM      3  C   UNL     1      45.186   8.806  12.449  0.00  0.00    +0.000 A 
ATOM      4  C   UNL     1      44.912   7.696  11.639  0.00  0.00    +0.000 A 
ATOM      5  F   UNL     1      43.679   7.638  11.113  0.00  0.00    +0.000 F 
ATOM      6  C   UNL     1      45.839   6.659  11.431  0.00  0.00    +0.000 A 
ATOM      7  C   UNL     1      47.072   6.816  12.105  0.00  0.00    +0.000 A 
ATOM      8  F   UNL     1      48.043   5.897  11.950  0.00  0.00    +0.000 F 
ENDROOT
BRANCH   6   9
ATOM      9  C   UNL     1      45.510   5.403  10.674  0.00  0.00    +0.000 A 
ATOM     10  C   UNL     1      45.729   5.374   9.275  0.00  0.00    +0.000 A 
ATOM     11  C   UNL     1      45.516   4.233   8.503  0.00  0.00    +0.000 A 
ATOM     12  C   UNL     1      45.153   3.049   9.119  0.00  0.00    +0.000 A 
ATOM     13  C   UNL     1      44.940   3.027  10.496  0.00  0.00    +0.000 A 
ATOM     14  C   UNL     1      45.031   4.203  11.263  0.00  0.00    +0.000 A 
BRANCH  14  15
ATOM     15  O   UNL     1      44.649   4.263  12.575  0.00  0.00    +0.000 OA
BRANCH  15  16
ATOM     16  C   UNL     1      43.298   4.535  12.914  0.00  0.00    +0.000 C 
ATOM     17  F   UNL     1      43.110   5.772  13.423  0.00  0.00    +0.000 F 
ATOM     18  F   UNL     1      42.501   4.376  11.834  0.00  0.00    +0.000 F 
ATOM     19  F   UNL     1      42.907   3.649  13.860  0.00  0.00    +0.000 F 
ENDBRANCH  15  16
ENDBRANCH  14  15
ENDBRANCH   6   9
BRANCH   1  20
ATOM     20  C   UNL     1      48.586   7.860  13.845  0.00  0.00    +0.000 C 
BRANCH  20  21
ATOM     21  O   UNL     1      48.908   6.525  14.233  0.00  0.00    +0.000 OA
BRANCH  21  26
ATOM     22  C   UNL     1      48.051   4.994  17.324  0.00  0.00    +0.000 A 
ATOM     23  N   UNL     1      48.195   5.979  18.243  0.00  0.00    +0.000 NA
ATOM     24  C   UNL     1      48.614   7.166  17.754  0.00  0.00    +0.000 A 
ATOM     25  C   UNL     1      48.869   7.385  16.420  0.00  0.00    +0.000 A 
ATOM     26  C   UNL     1      48.680   6.309  15.581  0.00  0.00    +0.000 A 
ATOM     27  N   UNL     1      48.272   5.103  16.002  0.00  0.00    +0.000 NA
BRANCH  22  29
ATOM     28  N   UNL     1      48.309   3.118  18.873  0.00  0.00    +0.000 N 
ATOM     29  C   UNL     1      47.582   3.652  17.835  0.00  0.00    +0.000 C 
ATOM     30  O   UNL     1      46.616   3.052  17.378  0.00  0.00    +0.000 OA
ATOM     31  H   UNL     1      48.032   2.226  19.257  0.00  0.00    +0.000 HD
ATOM     32  H   UNL     1      49.104   3.618  19.253  0.00  0.00    +0.000 HD
ENDBRANCH  22  29
ENDBRANCH  21  26
ENDBRANCH  20  21
ENDBRANCH   1  20
TORSDOF 7
ENDMDL
MODEL 2
REMARK VINA RESULT:    -7.556      1.968      2.802
REMARK INTER + INTRA:         -12.447
REMARK INTER:                 -11.059
REMARK INTRA:                  -1.388
REMARK UNBOUND:                -1.799
REMARK  Name = 
REMARK  7 active torsions:
REMARK  status: ('A' for Active; 'I' for Inactive)
REMARK    1  A    between atoms: C_2  and  C_4
REMARK    2  A    between atoms: C_8  and  O_9
REMARK    3  A    between atoms: O_9  and  C_10
REMARK    4  A    between atoms: C_10  and  C_11
REMARK    5  A    between atoms: C_16  and  C_17
REMARK    6  A    between atoms: C_22  and  O_23
REMARK    7  A    between atoms: O_23  and  C_24
REMARK                            x       y       z     vdW  Elec       q    Type
REMARK                         _______ _______ _______ _____ _____    ______ ____
ROOT
ATOM      1  C   UNL     1      47.876   7.315  13.092  0.00  0.00    +0.000 A 
ATOM      2  C   UNL     1      47.382   8.575  12.751  0.00  0.00    +0.000 A 
ATOM      3  C   UNL     1      46.173   8.674  12.072  0.00  0.00    +0.000 A 
ATOM      4  C   UNL     1      45.441   7.521  11.758  0.00  0.00    +0.000 A 
ATOM      5  F   UNL     1      44.230   7.718  11.217  0.00  0.00    +0.000 F 
ATOM      6  C   UNL     1      45.905   6.224  12.047  0.00  0.00    +0.000 A 
ATOM      7  C   UNL     1      47.166   6.169  12.684  0.00  0.00    +0.000 A 
ATOM      8  F   UNL     1      47.718   4.978  12.977  0.00  0.00    +0.000 F 
ENDROOT
BRANCH   6   9
ATOM      9  C   UNL     1      45.074   4.990  11.836  0.00  0.00    +0.000 A 
ATOM     10  C   UNL     1      44.502   4.354  12.965  0.00  0.00    +0.000 A 
ATOM     11  C   UNL     1      43.663   3.245  12.861  0.00  0.00    +0.000 A 
ATOM     12  C   UNL     1      43.297   2.782  11.611  0.00  0.00    +0.000 A 
ATOM     13  C   UNL     1      43.823   3.386  10.471  0.00  0.00    +0.000 A 
ATOM     14  C   UNL     1      44.768   4.424  10.570  0.00  0.00    +0.000 A 
BRANCH  14  15
ATOM     15  O   UNL     1      45.447   4.915   9.489  0.00  0.00    +0.000 OA
BRANCH  15  16
ATOM     16  C   UNL     1      45.749   4.068   8.391  0.00  0.00    +0.000 C 
ATOM     17  F   UNL     1      46.098   2.816   8.759  0.00  0.00    +0.000 F 
ATOM     18  F   UNL     1      44.698   4.004   7.544  0.00  0.00    +0.000 F 
ATOM     19  F   UNL     1      46.800   4.596   7.720  0.00  0.00    +0.000 F 
ENDBRANCH  15  16
ENDBRANCH  14  15
ENDBRANCH   6   9
BRANCH   1  20
ATOM     20  C   UNL     1      49.107   7.179  13.958  0.00  0.00    +0.000 C 
BRANCH  20  21
ATOM     21  O   UNL     1      48.858   7.707  15.260  0.00  0.00    +0.000 OA
BRANCH  21  26
ATOM     22  C   UNL     1      48.596   4.623  17.008  0.00  0.00    +0.000 A 
ATOM     23  N   UNL     1      49.104   4.885  18.237  0.00  0.00    +0.000 NA
ATOM     24  C   UNL     1      49.550   6.147  18.419  0.00  0.00    +0.000 A 
ATOM     25  C   UNL     1      49.490   7.116  17.445  0.00  0.00    +0.000 A 
ATOM     26  C   UNL     1      48.948   6.732  16.239  0.00  0.00    +0.000 A 
ATOM     27  N   UNL     1      48.492   5.496  15.991  0.00  0.00    +0.000 NA
BRANCH  22  29
ATOM     28  N   UNL     1      47.014   2.833  17.537  0.00  0.00    +0.000 N 
ATOM     29  C   UNL     1      48.087   3.222  16.770  0.00  0.00    +0.000 C 
ATOM     30  O   UNL     1      48.575   2.454  15.948  0.00  0.00    +0.000 OA
ATOM     31  H   UNL     1      46.630   1.908  17.409  0.00  0.00    +0.000 HD
ATOM     32  H   UNL     1      46.608   3.471  18.211  0.00  0.00    +0.000 HD
ENDBRANCH  22  29
ENDBRANCH  21  26
ENDBRANCH  20  21
ENDBRANCH   1  20
TORSDOF 7
ENDMDL
MODEL 3
REMARK VINA RESULT:    -7.523      4.001      7.181
REMARK INTER + INTRA:         -12.401
REMARK INTER:                 -10.693
REMARK INTRA:                  -1.708
REMARK UNBOUND:                -1.799
REMARK  Name = 
REMARK  7 active torsions:
REMARK  status: ('A' for Active; 'I' for Inactive)
REMARK    1  A    between atoms: C_2  and  C_4
REMARK    2  A    between atoms: C_8  and  O_9
REMARK    3  A    between atoms: O_9  and  C_10
REMARK    4  A    between atoms: C_10  and  C_11
REMARK    5  A    between atoms: C_16  and  C_17
REMARK    6  A    between atoms: C_22  and  O_23
REMARK    7  A    between atoms: O_23  and  C_24
REMARK                            x       y       z     vdW  Elec       q    Type
REMARK                         _______ _______ _______ _____ _____    ______ ____
ROOT
ATOM      1  C   UNL     1      45.436   4.711  12.255  0.00  0.00    +0.000 A 
ATOM      2  C   UNL     1      45.669   4.114  13.496  0.00  0.00    +0.000 A 
ATOM      3  C   UNL     1      46.662   4.626  14.325  0.00  0.00    +0.000 A 
ATOM      4  C   UNL     1      47.402   5.749  13.931  0.00  0.00    +0.000 A 
ATOM      5  F   UNL     1      48.249   6.248  14.844  0.00  0.00    +0.000 F 
ATOM      6  C   UNL     1      47.234   6.371  12.680  0.00  0.00    +0.000 A 
ATOM      7  C   UNL     1      46.255   5.780  11.847  0.00  0.00    +0.000 A 
ATOM      8  F   UNL     1      46.036   6.276  10.616  0.00  0.00    +0.000 F 
ENDROOT
BRANCH   6   9
ATOM      9  C   UNL     1      47.924   7.650  12.300  0.00  0.00    +0.000 A 
ATOM     10  C   UNL     1      49.290   7.601  11.928  0.00  0.00    +0.000 A 
ATOM     11  C   UNL     1      49.994   8.725  11.497  0.00  0.00    +0.000 A 
ATOM     12  C   UNL     1      49.330   9.928  11.342  0.00  0.00    +0.000 A 
ATOM     13  C   UNL     1      47.982  10.020  11.682  0.00  0.00    +0.000 A 
ATOM     14  C   UNL     1      47.298   8.923  12.236  0.00  0.00    +0.000 A 
BRANCH  14  15
ATOM     15  O   UNL     1      46.036   9.021  12.755  0.00  0.00    +0.000 OA
BRANCH  15  16
ATOM     16  C   UNL     1      44.947   9.383  11.920  0.00  0.00    +0.000 C 
ATOM     17  F   UNL     1      45.323  10.055  10.810  0.00  0.00    +0.000 F 
ATOM     18  F   UNL     1      44.247   8.287  11.558  0.00  0.00    +0.000 F 
ATOM     19  F   UNL     1      44.123  10.198  12.621  0.00  0.00    +0.000 F 
ENDBRANCH  15  16
ENDBRANCH  14  15
ENDBRANCH   6   9
BRANCH   1  20
ATOM     20  C   UNL     1      44.270   4.275  11.399  0.00  0.00    +0.000 C 
BRANCH  20  21
ATOM     21  O   UNL     1      44.482   2.952  10.908  0.00  0.00    +0.000 OA
BRANCH  21  26
ATOM     22  C   UNL     1      46.179   2.050   7.918  0.00  0.00    +0.000 A 
ATOM     23  N   UNL     1      45.905   3.058   7.054  0.00  0.00    +0.000 NA
ATOM     24  C   UNL     1      45.106   4.032   7.541  0.00  0.00    +0.000 A 
ATOM     25  C   UNL     1      44.606   4.028   8.822  0.00  0.00    +0.000 A 
ATOM     26  C   UNL     1      44.958   2.954   9.608  0.00  0.00    +0.000 A 
ATOM     27  N   UNL     1      45.742   1.951   9.186  0.00  0.00    +0.000 NA
BRANCH  22  29
ATOM     28  N   UNL     1      46.688  -0.337   7.735  0.00  0.00    +0.000 N 
ATOM     29  C   UNL     1      47.070   0.943   7.408  0.00  0.00    +0.000 C 
ATOM     30  O   UNL     1      48.078   1.139   6.738  0.00  0.00    +0.000 OA
ATOM     31  H   UNL     1      47.246  -1.113   7.411  0.00  0.00    +0.000 HD
ATOM     32  H   UNL     1      45.851  -0.497   8.284  0.00  0.00    +0.000 HD
ENDBRANCH  22  29
ENDBRANCH  21  26
ENDBRANCH  20  21
ENDBRANCH   1  20
TORSDOF 7
ENDMDL
MODEL 4
REMARK VINA RESULT:    -6.977      2.536      3.511
REMARK INTER + INTRA:         -11.630
REMARK INTER:                  -9.450
REMARK INTRA:                  -2.181
REMARK UNBOUND:                -1.799
REMARK  Name = 
REMARK  7 active torsions:
REMARK  status: ('A' for Active; 'I' for Inactive)
REMARK    1  A    between atoms: C_2  and  C_4
REMARK    2  A    between atoms: C_8  and  O_9
REMARK    3  A    between atoms: O_9  and  C_10
REMARK    4  A    between atoms: C_10  and  C_11
REMARK    5  A    between atoms: C_16  and  C_17
REMARK    6  A    between atoms: C_22  and  O_23
REMARK    7  A    between atoms: O_23  and  C_24
REMARK                            x       y       z     vdW  Elec       q    Type
REMARK                         _______ _______ _______ _____ _____    ______ ____
ROOT
ATOM      1  C   UNL     1      49.134   7.309  15.103  0.00  0.00    +0.000 A 
ATOM      2  C   UNL     1      49.846   7.983  14.110  0.00  0.00    +0.000 A 
ATOM      3  C   UNL     1      49.499   7.800  12.776  0.00  0.00    +0.000 A 
ATOM      4  C   UNL     1      48.424   6.969  12.433  0.00  0.00    +0.000 A 
ATOM      5  F   UNL     1      48.081   6.950  11.136  0.00  0.00    +0.000 F 
ATOM      6  C   UNL     1      47.692   6.239  13.387  0.00  0.00    +0.000 A 
ATOM      7  C   UNL     1      48.118   6.410  14.725  0.00  0.00    +0.000 A 
ATOM      8  F   UNL     1      47.508   5.734  15.714  0.00  0.00    +0.000 F 
ENDROOT
BRANCH   6   9
ATOM      9  C   UNL     1      46.458   5.451  13.048  0.00  0.00    +0.000 A 
ATOM     10  C   UNL     1      46.569   4.048  12.891  0.00  0.00    +0.000 A 
ATOM     11  C   UNL     1      45.468   3.229  12.642  0.00  0.00    +0.000 A 
ATOM     12  C   UNL     1      44.199   3.777  12.626  0.00  0.00    +0.000 A 
ATOM     13  C   UNL     1      44.041   5.151  12.791  0.00  0.00    +0.000 A 
ATOM     14  C   UNL     1      45.155   6.001  12.916  0.00  0.00    +0.000 A 
BRANCH  14  15
ATOM     15  O   UNL     1      45.055   7.364  12.891  0.00  0.00    +0.000 OA
BRANCH  15  16
ATOM     16  C   UNL     1      45.022   8.056  11.652  0.00  0.00    +0.000 C 
ATOM     17  F   UNL     1      45.869   9.107  11.601  0.00  0.00    +0.000 F 
ATOM     18  F   UNL     1      45.302   7.212  10.635  0.00  0.00    +0.000 F 
ATOM     19  F   UNL     1      43.772   8.540  11.466  0.00  0.00    +0.000 F 
ENDBRANCH  15  16
ENDBRANCH  14  15
ENDBRANCH   6   9
BRANCH   1  20
ATOM     20  C   UNL     1      49.388   7.600  16.564  0.00  0.00    +0.000 C 
BRANCH  20  21
ATOM     21  O   UNL     1      50.446   6.780  17.056  0.00  0.00    +0.000 OA
BRANCH  21  26
ATOM     22  C   UNL     1      49.796   3.325  17.583  0.00  0.00    +0.000 A 
ATOM     23  N   UNL     1      48.959   3.295  18.649  0.00  0.00    +0.000 NA
ATOM     24  C   UNL     1      48.656   4.501  19.177  0.00  0.00    +0.000 A 
ATOM     25  C   UNL     1      49.139   5.687  18.675  0.00  0.00    +0.000 A 
ATOM     26  C   UNL     1      49.975   5.590  17.586  0.00  0.00    +0.000 A 
ATOM     27  N   UNL     1      50.321   4.426  17.018  0.00  0.00    +0.000 NA
BRANCH  22  29
ATOM     28  N   UNL     1      51.001   1.199  17.705  0.00  0.00    +0.000 N 
ATOM     29  C   UNL     1      50.156   1.995  16.967  0.00  0.00    +0.000 C 
ATOM     30  O   UNL     1      49.736   1.615  15.879  0.00  0.00    +0.000 OA
ATOM     31  H   UNL     1      51.266   0.295  17.340  0.00  0.00    +0.000 HD
ATOM     32  H   UNL     1      51.343   1.512  18.606  0.00  0.00    +0.000 HD
ENDBRANCH  22  29
ENDBRANCH  21  26
ENDBRANCH  20  21
ENDBRANCH   1  20
TORSDOF 7
ENDMDL
MODEL 5
REMARK VINA RESULT:    -6.789      3.915      7.969
REMARK INTER + INTRA:         -11.367
REMARK INTER:                  -9.794
REMARK INTRA:                  -1.573
REMARK UNBOUND:                -1.799
REMARK  Name = 
REMARK  7 active torsions:
REMARK  status: ('A' for Active; 'I' for Inactive)
REMARK    1  A    between atoms: C_2  and  C_4
REMARK    2  A    between atoms: C_8  and  O_9
REMARK    3  A    between atoms: O_9  and  C_10
REMARK    4  A    between atoms: C_10  and  C_11
REMARK    5  A    between atoms: C_16  and  C_17
REMARK    6  A    between atoms: C_22  and  O_23
REMARK    7  A    between atoms: O_23  and  C_24
REMARK                            x       y       z     vdW  Elec       q    Type
REMARK                         _______ _______ _______ _____ _____    ______ ____
ROOT
ATOM      1  C   UNL     1      47.397   5.467  14.426  0.00  0.00    +0.000 A 
ATOM      2  C   UNL     1      47.988   6.295  13.470  0.00  0.00    +0.000 A 
ATOM      3  C   UNL     1      49.088   7.069  13.823  0.00  0.00    +0.000 A 
ATOM      4  C   UNL     1      49.617   6.998  15.119  0.00  0.00    +0.000 A 
ATOM      5  F   UNL     1      50.751   7.682  15.334  0.00  0.00    +0.000 F 
ATOM      6  C   UNL     1      49.043   6.208  16.132  0.00  0.00    +0.000 A 
ATOM      7  C   UNL     1      47.892   5.484  15.744  0.00  0.00    +0.000 A 
ATOM      8  F   UNL     1      47.245   4.721  16.644  0.00  0.00    +0.000 F 
ENDROOT
BRANCH   6   9
ATOM      9  C   UNL     1      49.674   6.020  17.483  0.00  0.00    +0.000 A 
ATOM     10  C   UNL     1      49.699   7.115  18.380  0.00  0.00    +0.000 A 
ATOM     11  C   UNL     1      50.203   7.016  19.677  0.00  0.00    +0.000 A 
ATOM     12  C   UNL     1      50.625   5.788  20.153  0.00  0.00    +0.000 A 
ATOM     13  C   UNL     1      50.605   4.679  19.309  0.00  0.00    +0.000 A 
ATOM     14  C   UNL     1      50.217   4.798  17.962  0.00  0.00    +0.000 A 
BRANCH  14  15
ATOM     15  O   UNL     1      50.359   3.783  17.056  0.00  0.00    +0.000 OA
BRANCH  15  16
ATOM     16  C   UNL     1      49.685   2.550  17.254  0.00  0.00    +0.000 C 
ATOM     17  F   UNL     1      50.509   1.539  17.606  0.00  0.00    +0.000 F 
ATOM     18  F   UNL     1      48.723   2.685  18.192  0.00  0.00    +0.000 F 
ATOM     19  F   UNL     1      49.092   2.196  16.090  0.00  0.00    +0.000 F 
ENDBRANCH  15  16
ENDBRANCH  14  15
ENDBRANCH   6   9
BRANCH   1  20
ATOM     20  C   UNL     1      46.299   4.505  14.037  0.00  0.00    +0.000 C 
BRANCH  20  21
ATOM     21  O   UNL     1      45.329   5.162  13.223  0.00  0.00    +0.000 OA
BRANCH  21  26
ATOM     22  C   UNL     1      44.784   3.522  10.117  0.00  0.00    +0.000 A 
ATOM     23  N   UNL     1      43.737   2.693  10.349  0.00  0.00    +0.000 NA
ATOM     24  C   UNL     1      43.254   2.714  11.611  0.00  0.00    +0.000 A 
ATOM     25  C   UNL     1      43.765   3.523  12.600  0.00  0.00    +0.000 A 
ATOM     26  C   UNL     1      44.824   4.325  12.242  0.00  0.00    +0.000 A 
ATOM     27  N   UNL     1      45.355   4.349  11.010  0.00  0.00    +0.000 NA
BRANCH  22  29
ATOM     28  N   UNL     1      45.850   2.325   8.268  0.00  0.00    +0.000 N 
ATOM     29  C   UNL     1      45.349   3.525   8.716  0.00  0.00    +0.000 C 
ATOM     30  O   UNL     1      45.371   4.517   7.997  0.00  0.00    +0.000 OA
ATOM     31  H   UNL     1      46.232   2.272   7.334  0.00  0.00    +0.000 HD
ATOM     32  H   UNL     1      45.825   1.505   8.862  0.00  0.00    +0.000 HD
ENDBRANCH  22  29
ENDBRANCH  21  26
ENDBRANCH  20  21
ENDBRANCH   1  20
TORSDOF 7
ENDMDL
MODEL 6
REMARK VINA RESULT:    -6.784      4.298      7.836
REMARK INTER + INTRA:         -11.360
REMARK INTER:                  -9.487
REMARK INTRA:                  -1.872
REMARK UNBOUND:                -1.799
REMARK  Name = 
REMARK  7 active torsions:
REMARK  status: ('A' for Active; 'I' for Inactive)
REMARK    1  A    between atoms: C_2  and  C_4
REMARK    2  A    between atoms: C_8  and  O_9
REMARK    3  A    between atoms: O_9  and  C_10
REMARK    4  A    between atoms: C_10  and  C_11
REMARK    5  A    between atoms: C_16  and  C_17
REMARK    6  A    between atoms: C_22  and  O_23
REMARK    7  A    between atoms: O_23  and  C_24
REMARK                            x       y       z     vdW  Elec       q    Type
REMARK                         _______ _______ _______ _____ _____    ______ ____
ROOT
ATOM      1  C   UNL     1      45.299   6.720  11.513  0.00  0.00    +0.000 A 
ATOM      2  C   UNL     1      44.541   7.879  11.338  0.00  0.00    +0.000 A 
ATOM      3  C   UNL     1      45.008   9.085  11.850  0.00  0.00    +0.000 A 
ATOM      4  C   UNL     1      46.242   9.142  12.512  0.00  0.00    +0.000 A 
ATOM      5  F   UNL     1      46.669  10.365  12.861  0.00  0.00    +0.000 F 
ATOM      6  C   UNL     1      47.032   8.002  12.747  0.00  0.00    +0.000 A 
ATOM      7  C   UNL     1      46.491   6.790  12.260  0.00  0.00    +0.000 A 
ATOM      8  F   UNL     1      47.150   5.634  12.459  0.00  0.00    +0.000 F 
ENDROOT
BRANCH   6   9
ATOM      9  C   UNL     1      48.413   8.069  13.334  0.00  0.00    +0.000 A 
ATOM     10  C   UNL     1      48.602   7.662  14.678  0.00  0.00    +0.000 A 
ATOM     11  C   UNL     1      49.857   7.626  15.286  0.00  0.00    +0.000 A 
ATOM     12  C   UNL     1      50.984   7.917  14.541  0.00  0.00    +0.000 A 
ATOM     13  C   UNL     1      50.848   8.309  13.210  0.00  0.00    +0.000 A 
ATOM     14  C   UNL     1      49.578   8.469  12.627  0.00  0.00    +0.000 A 
BRANCH  14  15
ATOM     15  O   UNL     1      49.394   9.027  11.392  0.00  0.00    +0.000 OA
BRANCH  15  16
ATOM     16  C   UNL     1      49.497  10.433  11.221  0.00  0.00    +0.000 C 
ATOM     17  F   UNL     1      49.507  11.115  12.388  0.00  0.00    +0.000 F 
ATOM     18  F   UNL     1      50.609  10.741  10.519  0.00  0.00    +0.000 F 
ATOM     19  F   UNL     1      48.422  10.858  10.518  0.00  0.00    +0.000 F 
ENDBRANCH  15  16
ENDBRANCH  14  15
ENDBRANCH   6   9
BRANCH   1  20
ATOM     20  C   UNL     1      44.896   5.428  10.842  0.00  0.00    +0.000 C 
BRANCH  20  21
ATOM     21  O   UNL     1      45.325   5.422   9.481  0.00  0.00    +0.000 OA
BRANCH  21  26
ATOM     22  C   UNL     1      46.484   2.657   7.572  0.00  0.00    +0.000 A 
ATOM     23  N   UNL     1      45.842   1.586   8.099  0.00  0.00    +0.000 NA
ATOM     24  C   UNL     1      45.024   1.860   9.139  0.00  0.00    +0.000 A 
ATOM     25  C   UNL     1      44.830   3.130   9.632  0.00  0.00    +0.000 A 
ATOM     26  C   UNL     1      45.533   4.137   9.009  0.00  0.00    +0.000 A 
ATOM     27  N   UNL     1      46.365   3.932   7.978  0.00  0.00    +0.000 NA
BRANCH  22  29
ATOM     28  N   UNL     1      47.300   3.251   5.343  0.00  0.00    +0.000 N 
ATOM     29  C   UNL     1      47.407   2.387   6.407  0.00  0.00    +0.000 C 
ATOM     30  O   UNL     1      48.216   1.466   6.383  0.00  0.00    +0.000 OA
ATOM     31  H   UNL     1      47.902   3.119   4.542  0.00  0.00    +0.000 HD
ATOM     32  H   UNL     1      46.635   4.015   5.368  0.00  0.00    +0.000 HD
ENDBRANCH  22  29
ENDBRANCH  21  26
ENDBRANCH  20  21
ENDBRANCH   1  20
TORSDOF 7
ENDMDL
MODEL 7
REMARK VINA RESULT:    -6.765      4.022      7.425
REMARK INTER + INTRA:         -11.333
REMARK INTER:                  -9.847
REMARK INTRA:                  -1.485
REMARK UNBOUND:                -1.799
REMARK  Name = 
REMARK  7 active torsions:
REMARK  status: ('A' for Active; 'I' for Inactive)
REMARK    1  A    between atoms: C_2  and  C_4
REMARK    2  A    between atoms: C_8  and  O_9
REMARK    3  A    between atoms: O_9  and  C_10
REMARK    4  A    between atoms: C_10  and  C_11
REMARK    5  A    between atoms: C_16  and  C_17
REMARK    6  A    between atoms: C_22  and  O_23
REMARK    7  A    between atoms: O_23  and  C_24
REMARK                            x       y       z     vdW  Elec       q    Type
REMARK                         _______ _______ _______ _____ _____    ______ ____
ROOT
ATOM      1  C   UNL     1      45.415   6.642  11.468  0.00  0.00    +0.000 A 
ATOM      2  C   UNL     1      44.589   7.764  11.377  0.00  0.00    +0.000 A 
ATOM      3  C   UNL     1      45.084   9.009  11.750  0.00  0.00    +0.000 A 
ATOM      4  C   UNL     1      46.409   9.141  12.186  0.00  0.00    +0.000 A 
ATOM      5  F   UNL     1      46.837  10.394  12.404  0.00  0.00    +0.000 F 
ATOM      6  C   UNL     1      47.276   8.043  12.330  0.00  0.00    +0.000 A 
ATOM      7  C   UNL     1      46.712   6.790  11.996  0.00  0.00    +0.000 A 
ATOM      8  F   UNL     1      47.444   5.669  12.127  0.00  0.00    +0.000 F 
ENDROOT
BRANCH   6   9
ATOM      9  C   UNL     1      48.733   8.186  12.668  0.00  0.00    +0.000 A 
ATOM     10  C   UNL     1      49.662   8.364  11.614  0.00  0.00    +0.000 A 
ATOM     11  C   UNL     1      51.023   8.572  11.835  0.00  0.00    +0.000 A 
ATOM     12  C   UNL     1      51.493   8.694  13.130  0.00  0.00    +0.000 A 
ATOM     13  C   UNL     1      50.612   8.541  14.199  0.00  0.00    +0.000 A 
ATOM     14  C   UNL     1      49.262   8.206  13.986  0.00  0.00    +0.000 A 
BRANCH  14  15
ATOM     15  O   UNL     1      48.413   7.864  15.002  0.00  0.00    +0.000 OA
BRANCH  15  16
ATOM     16  C   UNL     1      48.653   6.694  15.769  0.00  0.00    +0.000 C 
ATOM     17  F   UNL     1      49.928   6.253  15.690  0.00  0.00    +0.000 F 
ATOM     18  F   UNL     1      48.340   6.910  17.066  0.00  0.00    +0.000 F 
ATOM     19  F   UNL     1      47.857   5.705  15.302  0.00  0.00    +0.000 F 
ENDBRANCH  15  16
ENDBRANCH  14  15
ENDBRANCH   6   9
BRANCH   1  20
ATOM     20  C   UNL     1      44.959   5.305  10.932  0.00  0.00    +0.000 C 
BRANCH  20  21
ATOM     21  O   UNL     1      45.044   5.287   9.508  0.00  0.00    +0.000 OA
BRANCH  21  26
ATOM     22  C   UNL     1      46.439   2.633   7.599  0.00  0.00    +0.000 A 
ATOM     23  N   UNL     1      45.845   1.516   8.084  0.00  0.00    +0.000 NA
ATOM     24  C   UNL     1      44.974   1.721   9.096  0.00  0.00    +0.000 A 
ATOM     25  C   UNL     1      44.685   2.967   9.602  0.00  0.00    +0.000 A 
ATOM     26  C   UNL     1      45.347   4.026   9.023  0.00  0.00    +0.000 A 
ATOM     27  N   UNL     1      46.228   3.892   8.021  0.00  0.00    +0.000 NA
BRANCH  22  29
ATOM     28  N   UNL     1      47.294   3.313   5.409  0.00  0.00    +0.000 N 
ATOM     29  C   UNL     1      47.419   2.442   6.466  0.00  0.00    +0.000 C 
ATOM     30  O   UNL     1      48.287   1.576   6.459  0.00  0.00    +0.000 OA
ATOM     31  H   UNL     1      47.932   3.232   4.629  0.00  0.00    +0.000 HD
ATOM     32  H   UNL     1      46.580   4.032   5.419  0.00  0.00    +0.000 HD
ENDBRANCH  22  29
ENDBRANCH  21  26
ENDBRANCH  20  21
ENDBRANCH   1  20
TORSDOF 7
ENDMDL
MODEL 8
REMARK VINA RESULT:    -6.533      4.551      8.683
REMARK INTER + INTRA:         -11.005
REMARK INTER:                  -9.156
REMARK INTRA:                  -1.849
REMARK UNBOUND:                -1.799
REMARK  Name = 
REMARK  7 active torsions:
REMARK  status: ('A' for Active; 'I' for Inactive)
REMARK    1  A    between atoms: C_2  and  C_4
REMARK    2  A    between atoms: C_8  and  O_9
REMARK    3  A    between atoms: O_9  and  C_10
REMARK    4  A    between atoms: C_10  and  C_11
REMARK    5  A    between atoms: C_16  and  C_17
REMARK    6  A    between atoms: C_22  and  O_23
REMARK    7  A    between atoms: O_23  and  C_24
REMARK                            x       y       z     vdW  Elec       q    Type
REMARK                         _______ _______ _______ _____ _____    ______ ____
ROOT
ATOM      1  C   UNL     1      48.476   3.571  16.483  0.00  0.00    +0.000 A 
ATOM      2  C   UNL     1      49.221   2.400  16.630  0.00  0.00    +0.000 A 
ATOM      3  C   UNL     1      50.386   2.422  17.390  0.00  0.00    +0.000 A 
ATOM      4  C   UNL     1      50.793   3.602  18.027  0.00  0.00    +0.000 A 
ATOM      5  F   UNL     1      51.856   3.500  18.839  0.00  0.00    +0.000 F 
ATOM      6  C   UNL     1      50.100   4.819  17.888  0.00  0.00    +0.000 A 
ATOM      7  C   UNL     1      48.956   4.763  17.058  0.00  0.00    +0.000 A 
ATOM      8  F   UNL     1      48.238   5.877  16.831  0.00  0.00    +0.000 F 
ENDROOT
BRANCH   6   9
ATOM      9  C   UNL     1      50.448   6.055  18.668  0.00  0.00    +0.000 A 
ATOM     10  C   UNL     1      51.612   6.779  18.312  0.00  0.00    +0.000 A 
ATOM     11  C   UNL     1      51.977   7.972  18.936  0.00  0.00    +0.000 A 
ATOM     12  C   UNL     1      51.141   8.530  19.885  0.00  0.00    +0.000 A 
ATOM     13  C   UNL     1      49.977   7.860  20.256  0.00  0.00    +0.000 A 
ATOM     14  C   UNL     1      49.667   6.595  19.724  0.00  0.00    +0.000 A 
BRANCH  14  15
ATOM     15  O   UNL     1      48.641   5.823  20.195  0.00  0.00    +0.000 OA
BRANCH  15  16
ATOM     16  C   UNL     1      48.908   4.738  21.070  0.00  0.00    +0.000 C 
ATOM     17  F   UNL     1      48.571   3.536  20.552  0.00  0.00    +0.000 F 
ATOM     18  F   UNL     1      50.214   4.721  21.413  0.00  0.00    +0.000 F 
ATOM     19  F   UNL     1      48.178   4.906  22.197  0.00  0.00    +0.000 F 
ENDBRANCH  15  16
ENDBRANCH  14  15
ENDBRANCH   6   9
BRANCH   1  20
ATOM     20  C   UNL     1      47.133   3.546  15.792  0.00  0.00    +0.000 C 
BRANCH  20  21
ATOM     21  O   UNL     1      47.288   3.187  14.419  0.00  0.00    +0.000 OA
BRANCH  21  26
ATOM     22  C   UNL     1      45.030   4.491  12.003  0.00  0.00    +0.000 A 
ATOM     23  N   UNL     1      45.356   5.803  11.905  0.00  0.00    +0.000 NA
ATOM     24  C   UNL     1      46.359   6.208  12.715  0.00  0.00    +0.000 A 
ATOM     25  C   UNL     1      47.024   5.364  13.573  0.00  0.00    +0.000 A 
ATOM     26  C   UNL     1      46.608   4.052  13.579  0.00  0.00    +0.000 A 
ATOM     27  N   UNL     1      45.616   3.585  12.806  0.00  0.00    +0.000 NA
BRANCH  22  29
ATOM     28  N   UNL     1      43.672   4.751   9.984  0.00  0.00    +0.000 N 
ATOM     29  C   UNL     1      43.913   4.002  11.112  0.00  0.00    +0.000 C 
ATOM     30  O   UNL     1      43.246   3.001  11.349  0.00  0.00    +0.000 OA
ATOM     31  H   UNL     1      42.941   4.461   9.351  0.00  0.00    +0.000 HD
ATOM     32  H   UNL     1      44.229   5.574   9.787  0.00  0.00    +0.000 HD
ENDBRANCH  22  29
ENDBRANCH  21  26
ENDBRANCH  20  21
ENDBRANCH   1  20
TORSDOF 7
ENDMDL
MODEL 9
REMARK VINA RESULT:    -6.432      4.184      8.613
REMARK INTER + INTRA:         -10.863
REMARK INTER:                  -9.149
REMARK INTRA:                  -1.714
REMARK UNBOUND:                -1.799
REMARK  Name = 
REMARK  7 active torsions:
REMARK  status: ('A' for Active; 'I' for Inactive)
REMARK    1  A    between atoms: C_2  and  C_4
REMARK    2  A    between atoms: C_8  and  O_9
REMARK    3  A    between atoms: O_9  and  C_10
REMARK    4  A    between atoms: C_10  and  C_11
REMARK    5  A    between atoms: C_16  and  C_17
REMARK    6  A    between atoms: C_22  and  O_23
REMARK    7  A    between atoms: O_23  and  C_24
REMARK                            x       y       z     vdW  Elec       q    Type
REMARK                         _______ _______ _______ _____ _____    ______ ____
ROOT
ATOM      1  C   UNL     1      47.245   4.646  15.448  0.00  0.00    +0.000 A 
ATOM      2  C   UNL     1      46.904   3.512  16.187  0.00  0.00    +0.000 A 
ATOM      3  C   UNL     1      47.491   3.305  17.430  0.00  0.00    +0.000 A 
ATOM      4  C   UNL     1      48.395   4.241  17.950  0.00  0.00    +0.000 A 
ATOM      5  F   UNL     1      48.814   4.023  19.206  0.00  0.00    +0.000 F 
ATOM      6  C   UNL     1      48.801   5.384  17.237  0.00  0.00    +0.000 A 
ATOM      7  C   UNL     1      48.223   5.523  15.954  0.00  0.00    +0.000 A 
ATOM      8  F   UNL     1      48.566   6.564  15.174  0.00  0.00    +0.000 F 
ENDROOT
BRANCH   6   9
ATOM      9  C   UNL     1      49.663   6.460  17.834  0.00  0.00    +0.000 A 
ATOM     10  C   UNL     1      49.037   7.582  18.428  0.00  0.00    +0.000 A 
ATOM     11  C   UNL     1      49.753   8.595  19.065  0.00  0.00    +0.000 A 
ATOM     12  C   UNL     1      51.124   8.478  19.204  0.00  0.00    +0.000 A 
ATOM     13  C   UNL     1      51.781   7.383  18.648  0.00  0.00    +0.000 A 
ATOM     14  C   UNL     1      51.082   6.422  17.896  0.00  0.00    +0.000 A 
BRANCH  14  15
ATOM     15  O   UNL     1      51.709   5.440  17.179  0.00  0.00    +0.000 OA
BRANCH  15  16
ATOM     16  C   UNL     1      52.081   4.224  17.809  0.00  0.00    +0.000 C 
ATOM     17  F   UNL     1      51.429   3.146  17.321  0.00  0.00    +0.000 F 
ATOM     18  F   UNL     1      53.412   4.024  17.697  0.00  0.00    +0.000 F 
ATOM     19  F   UNL     1      51.778   4.313  19.125  0.00  0.00    +0.000 F 
ENDBRANCH  15  16
ENDBRANCH  14  15
ENDBRANCH   6   9
BRANCH   1  20
ATOM     20  C   UNL     1      46.516   4.977  14.166  0.00  0.00    +0.000 C 
BRANCH  20  21
ATOM     21  O   UNL     1      45.623   3.920  13.816  0.00  0.00    +0.000 OA
BRANCH  21  26
ATOM     22  C   UNL     1      44.443   4.458  10.507  0.00  0.00    +0.000 A 
ATOM     23  N   UNL     1      43.210   4.995  10.669  0.00  0.00    +0.000 NA
ATOM     24  C   UNL     1      42.808   5.139  11.950  0.00  0.00    +0.000 A 
ATOM     25  C   UNL     1      43.585   4.785  13.029  0.00  0.00    +0.000 A 
ATOM     26  C   UNL     1      44.822   4.255  12.738  0.00  0.00    +0.000 A 
ATOM     27  N   UNL     1      45.279   4.080  11.490  0.00  0.00    +0.000 NA
BRANCH  22  29
ATOM     28  N   UNL     1      44.322   3.279   8.366  0.00  0.00    +0.000 N 
ATOM     29  C   UNL     1      44.926   4.283   9.087  0.00  0.00    +0.000 C 
ATOM     30  O   UNL     1      45.797   4.978   8.576  0.00  0.00    +0.000 OA
ATOM     31  H   UNL     1      44.604   3.126   7.408  0.00  0.00    +0.000 HD
ATOM     32  H   UNL     1      43.599   2.709   8.788  0.00  0.00    +0.000 HD
ENDBRANCH  22  29
ENDBRANCH  21  26
ENDBRANCH  20  21
ENDBRANCH   1  20
TORSDOF 7
ENDMDL
