MODEL 1
REMARK VINA RESULT:    -8.276      0.000      0.000
REMARK INTER + INTRA:         -11.935
REMARK INTER:                 -11.179
REMARK INTRA:                  -0.756
REMARK UNBOUND:                -0.756
REMARK  Name = 
REMARK  6 active torsions:
REMARK  status: ('A' for Active; 'I' for Inactive)
REMARK    1  A    between atoms: C_2  and  C_19
REMARK    2  A    between atoms: N_3  and  C_4
REMARK    3  A    between atoms: C_4  and  C_5
REMARK    4  A    between atoms: C_8  and  C_9
REMARK    5  A    between atoms: C_9  and  O_10
REMARK    6  A    between atoms: O_10  and  C_11
REMARK                            x       y       z     vdW  Elec       q    Type
REMARK                         _______ _______ _______ _____ _____    ______ ____
ROOT
ATOM      1  O   UNL     1      48.919   6.538  13.372  0.00  0.00    +0.000 OA
ATOM      2  C   UNL     1      48.320   6.958  14.354  0.00  0.00    +0.000 C 
ATOM      3  N   UNL     1      47.285   7.863  14.301  0.00  0.00    +0.000 N 
ATOM      4  H   UNL     1      46.708   7.980  15.122  0.00  0.00    +0.000 HD
ENDROOT
BRANCH   2   5
ATOM      5  C   UNL     1      48.476   6.416  15.696  0.00  0.00    +0.000 A 
ATOM      6  C   UNL     1      49.060   7.132  16.727  0.00  0.00    +0.000 A 
ATOM      7  S   UNL     1      49.606   6.097  17.982  0.00  0.00    +0.000 S 
ATOM      8  C   UNL     1      48.938   4.725  17.218  0.00  0.00    +0.000 A 
ATOM      9  N   UNL     1      49.158   3.458  17.661  0.00  0.00    +0.000 NA
ATOM     10  C   UNL     1      48.525   2.547  16.996  0.00  0.00    +0.000 A 
ATOM     11  N   UNL     1      47.656   2.787  15.958  0.00  0.00    +0.000 N 
ATOM     12  C   UNL     1      47.402   4.047  15.471  0.00  0.00    +0.000 A 
ATOM     13  O   UNL     1      46.587   4.256  14.586  0.00  0.00    +0.000 OA
ATOM     14  C   UNL     1      48.190   5.078  16.118  0.00  0.00    +0.000 A 
ATOM     15  H   UNL     1      47.137   2.040  15.526  0.00  0.00    +0.000 HD
ENDBRANCH   2   5
BRANCH   3  16
ATOM     16  C   UNL     1      46.661   8.250  13.054  0.00  0.00    +0.000 C 
BRANCH  16  17
ATOM     17  C   UNL     1      45.999   7.070  12.370  0.00  0.00    +0.000 A 
ATOM     18  N   UNL     1      46.465   6.691  11.165  0.00  0.00    +0.000 NA
ATOM     19  C   UNL     1      45.828   5.667  10.563  0.00  0.00    +0.000 A 
ATOM     20  C   UNL     1      44.734   5.020  11.097  0.00  0.00    +0.000 A 
ATOM     21  C   UNL     1      44.326   5.494  12.324  0.00  0.00    +0.000 A 
ATOM     22  N   UNL     1      44.915   6.526  12.966  0.00  0.00    +0.000 NA
BRANCH  20  23
ATOM     23  C   UNL     1      44.048   3.890  10.400  0.00  0.00    +0.000 C 
BRANCH  23  24
ATOM     24  O   UNL     1      44.203   4.036   8.990  0.00  0.00    +0.000 OA
BRANCH  24  25
ATOM     25  C   UNL     1      45.137   3.230   8.397  0.00  0.00    +0.000 A 
ATOM     26  C   UNL     1      46.009   3.592   7.372  0.00  0.00    +0.000 A 
ATOM     27  C   UNL     1      46.912   2.655   6.868  0.00  0.00    +0.000 A 
ATOM     28  C   UNL     1      46.911   1.378   7.405  0.00  0.00    +0.000 A 
ATOM     29  N   UNL     1      46.085   0.989   8.394  0.00  0.00    +0.000 NA
ATOM     30  C   UNL     1      45.217   1.923   8.866  0.00  0.00    +0.000 A 
ENDBRANCH  24  25
ENDBRANCH  23  24
ENDBRANCH  20  23
ENDBRANCH  16  17
ENDBRANCH   3  16
TORSDOF 6
ENDMDL
MODEL 2
REMARK VINA RESULT:    -7.954      2.467      3.086
REMARK INTER + INTRA:         -11.500
REMARK INTER:                 -10.664
REMARK INTRA:                  -0.836
REMARK UNBOUND:                -0.756
REMARK  Name = 
REMARK  6 active torsions:
REMARK  status: ('A' for Active; 'I' for Inactive)
REMARK    1  A    between atoms: C_2  and  C_19
REMARK    2  A    between atoms: N_3  and  C_4
REMARK    3  A    between atoms: C_4  and  C_5
REMARK    4  A    between atoms: C_8  and  C_9
REMARK    5  A    between atoms: C_9  and  O_10
REMARK    6  A    between atoms: O_10  and  C_11
REMARK                            x       y       z     vdW  Elec       q    Type
REMARK                         _______ _______ _______ _____ _____    ______ ____
ROOT
ATOM      1  O   UNL     1      49.797   5.342  16.292  0.00  0.00    +0.000 OA
ATOM      2  C   UNL     1      48.742   5.958  16.379  0.00  0.00    +0.000 C 
ATOM      3  N   UNL     1      47.569   5.575  15.771  0.00  0.00    +0.000 N 
ATOM      4  H   UNL     1      46.708   6.006  16.076  0.00  0.00    +0.000 HD
ENDROOT
BRANCH   2   5
ATOM      5  C   UNL     1      48.521   7.067  17.296  0.00  0.00    +0.000 A 
ATOM      6  C   UNL     1      48.993   8.345  17.049  0.00  0.00    +0.000 A 
ATOM      7  S   UNL     1      49.081   9.273  18.490  0.00  0.00    +0.000 S 
ATOM      8  C   UNL     1      48.361   8.025  19.405  0.00  0.00    +0.000 A 
ATOM      9  N   UNL     1      48.264   8.072  20.760  0.00  0.00    +0.000 NA
ATOM     10  C   UNL     1      47.636   7.068  21.281  0.00  0.00    +0.000 A 
ATOM     11  N   UNL     1      47.055   6.044  20.570  0.00  0.00    +0.000 N 
ATOM     12  C   UNL     1      47.127   5.950  19.201  0.00  0.00    +0.000 A 
ATOM     13  O   UNL     1      46.561   5.068  18.573  0.00  0.00    +0.000 OA
ATOM     14  C   UNL     1      47.929   6.997  18.598  0.00  0.00    +0.000 A 
ATOM     15  H   UNL     1      46.516   5.327  21.028  0.00  0.00    +0.000 HD
ENDBRANCH   2   5
BRANCH   3  16
ATOM     16  C   UNL     1      47.415   4.285  15.135  0.00  0.00    +0.000 C 
BRANCH  16  17
ATOM     17  C   UNL     1      46.586   4.380  13.869  0.00  0.00    +0.000 A 
ATOM     18  N   UNL     1      46.219   5.603  13.441  0.00  0.00    +0.000 NA
ATOM     19  C   UNL     1      45.447   5.653  12.337  0.00  0.00    +0.000 A 
ATOM     20  C   UNL     1      45.006   4.539  11.655  0.00  0.00    +0.000 A 
ATOM     21  C   UNL     1      45.423   3.337  12.184  0.00  0.00    +0.000 A 
ATOM     22  N   UNL     1      46.182   3.226  13.294  0.00  0.00    +0.000 NA
BRANCH  20  23
ATOM     23  C   UNL     1      44.146   4.629  10.436  0.00  0.00    +0.000 C 
BRANCH  23  24
ATOM     24  O   UNL     1      44.092   3.356   9.796  0.00  0.00    +0.000 OA
BRANCH  24  25
ATOM     25  C   UNL     1      45.074   3.099   8.877  0.00  0.00    +0.000 A 
ATOM     26  C   UNL     1      45.672   4.027   8.027  0.00  0.00    +0.000 A 
ATOM     27  C   UNL     1      46.666   3.612   7.139  0.00  0.00    +0.000 A 
ATOM     28  C   UNL     1      47.029   2.275   7.127  0.00  0.00    +0.000 A 
ATOM     29  N   UNL     1      46.474   1.348   7.931  0.00  0.00    +0.000 NA
ATOM     30  C   UNL     1      45.510   1.781   8.786  0.00  0.00    +0.000 A 
ENDBRANCH  24  25
ENDBRANCH  23  24
ENDBRANCH  20  23
ENDBRANCH  16  17
ENDBRANCH   3  16
TORSDOF 6
ENDMDL
MODEL 3
REMARK VINA RESULT:    -7.625      2.117      2.632
REMARK INTER + INTRA:         -11.056
REMARK INTER:                 -10.167
REMARK INTRA:                  -0.888
REMARK UNBOUND:                -0.756
REMARK  Name = 
REMARK  6 active torsions:
REMARK  status: ('A' for Active; 'I' for Inactive)
REMARK    1  A    between atoms: C_2  and  C_19
REMARK    2  A    between atoms: N_3  and  C_4
REMARK    3  A    between atoms: C_4  and  C_5
REMARK    4  A    between atoms: C_8  and  C_9
REMARK    5  A    between atoms: C_9  and  O_10
REMARK    6  A    between atoms: O_10  and  C_11
REMARK                            x       y       z     vdW  Elec       q    Type
REMARK                         _______ _______ _______ _____ _____    ______ ____
ROOT
ATOM      1  O   UNL     1      50.213   6.441  15.931  0.00  0.00    +0.000 OA
ATOM      2  C   UNL     1      49.067   6.788  16.186  0.00  0.00    +0.000 C 
ATOM      3  N   UNL     1      48.082   6.961  15.240  0.00  0.00    +0.000 N 
ATOM      4  H   UNL     1      47.124   7.025  15.553  0.00  0.00    +0.000 HD
ENDROOT
BRANCH   2   5
ATOM      5  C   UNL     1      48.522   6.873  17.533  0.00  0.00    +0.000 A 
ATOM      6  C   UNL     1      48.209   8.079  18.137  0.00  0.00    +0.000 A 
ATOM      7  S   UNL     1      48.130   7.926  19.845  0.00  0.00    +0.000 S 
ATOM      8  C   UNL     1      48.371   6.238  19.762  0.00  0.00    +0.000 A 
ATOM      9  N   UNL     1      48.569   5.470  20.866  0.00  0.00    +0.000 NA
ATOM     10  C   UNL     1      48.674   4.205  20.619  0.00  0.00    +0.000 A 
ATOM     11  N   UNL     1      48.555   3.630  19.376  0.00  0.00    +0.000 N 
ATOM     12  C   UNL     1      48.358   4.362  18.229  0.00  0.00    +0.000 A 
ATOM     13  O   UNL     1      48.197   3.839  17.137  0.00  0.00    +0.000 OA
ATOM     14  C   UNL     1      48.356   5.793  18.459  0.00  0.00    +0.000 A 
ATOM     15  H   UNL     1      48.574   2.630  19.257  0.00  0.00    +0.000 HD
ENDBRANCH   2   5
BRANCH   3  16
ATOM     16  C   UNL     1      48.251   6.544  13.866  0.00  0.00    +0.000 C 
BRANCH  16  17
ATOM     17  C   UNL     1      47.087   5.696  13.391  0.00  0.00    +0.000 A 
ATOM     18  N   UNL     1      45.963   6.324  12.998  0.00  0.00    +0.000 NA
ATOM     19  C   UNL     1      44.931   5.542  12.622  0.00  0.00    +0.000 A 
ATOM     20  C   UNL     1      44.963   4.164  12.641  0.00  0.00    +0.000 A 
ATOM     21  C   UNL     1      46.153   3.620  13.074  0.00  0.00    +0.000 A 
ATOM     22  N   UNL     1      47.212   4.353  13.478  0.00  0.00    +0.000 NA
BRANCH  20  23
ATOM     23  C   UNL     1      43.799   3.326  12.222  0.00  0.00    +0.000 C 
BRANCH  23  24
ATOM     24  O   UNL     1      43.388   3.703  10.910  0.00  0.00    +0.000 OA
BRANCH  24  25
ATOM     25  C   UNL     1      44.242   3.376   9.891  0.00  0.00    +0.000 A 
ATOM     26  C   UNL     1      44.754   2.109   9.618  0.00  0.00    +0.000 A 
ATOM     27  C   UNL     1      45.618   1.930   8.537  0.00  0.00    +0.000 A 
ATOM     28  C   UNL     1      45.948   3.030   7.762  0.00  0.00    +0.000 A 
ATOM     29  N   UNL     1      45.476   4.270   7.995  0.00  0.00    +0.000 NA
ATOM     30  C   UNL     1      44.636   4.414   9.053  0.00  0.00    +0.000 A 
ENDBRANCH  24  25
ENDBRANCH  23  24
ENDBRANCH  20  23
ENDBRANCH  16  17
ENDBRANCH   3  16
TORSDOF 6
ENDMDL
MODEL 4
REMARK VINA RESULT:    -7.411      1.840      3.357
REMARK INTER + INTRA:         -10.766
REMARK INTER:                 -10.059
REMARK INTRA:                  -0.707
REMARK UNBOUND:                -0.756
REMARK  Name = 
REMARK  6 active torsions:
REMARK  status: ('A' for Active; 'I' for Inactive)
REMARK    1  A    between atoms: C_2  and  C_19
REMARK    2  A    between atoms: N_3  and  C_4
REMARK    3  A    between atoms: C_4  and  C_5
REMARK    4  A    between atoms: C_8  and  C_9
REMARK    5  A    between atoms: C_9  and  O_10
REMARK    6  A    between atoms: O_10  and  C_11
REMARK                            x       y       z     vdW  Elec       q    Type
REMARK                         _______ _______ _______ _____ _____    ______ ____
ROOT
ATOM      1  O   UNL     1      49.176   3.955  16.760  0.00  0.00    +0.000 OA
ATOM      2  C   UNL     1      48.607   5.002  16.480  0.00  0.00    +0.000 C 
ATOM      3  N   UNL     1      47.555   5.100  15.598  0.00  0.00    +0.000 N 
ATOM      4  H   UNL     1      47.007   5.949  15.598  0.00  0.00    +0.000 HD
ENDROOT
BRANCH   2   5
ATOM      5  C   UNL     1      48.822   6.259  17.183  0.00  0.00    +0.000 A 
ATOM      6  C   UNL     1      48.675   6.381  18.554  0.00  0.00    +0.000 A 
ATOM      7  S   UNL     1      48.440   8.017  19.018  0.00  0.00    +0.000 S 
ATOM      8  C   UNL     1      48.676   8.564  17.419  0.00  0.00    +0.000 A 
ATOM      9  N   UNL     1      48.466   9.855  17.048  0.00  0.00    +0.000 NA
ATOM     10  C   UNL     1      48.752  10.103  15.810  0.00  0.00    +0.000 A 
ATOM     11  N   UNL     1      49.271   9.192  14.922  0.00  0.00    +0.000 N 
ATOM     12  C   UNL     1      49.499   7.875  15.247  0.00  0.00    +0.000 A 
ATOM     13  O   UNL     1      50.012   7.086  14.469  0.00  0.00    +0.000 OA
ATOM     14  C   UNL     1      49.075   7.538  16.592  0.00  0.00    +0.000 A 
ATOM     15  H   UNL     1      49.542   9.463  13.990  0.00  0.00    +0.000 HD
ENDBRANCH   2   5
BRANCH   3  16
ATOM     16  C   UNL     1      46.879   3.935  15.072  0.00  0.00    +0.000 C 
BRANCH  16  17
ATOM     17  C   UNL     1      46.355   4.177  13.670  0.00  0.00    +0.000 A 
ATOM     18  N   UNL     1      46.494   5.410  13.144  0.00  0.00    +0.000 NA
ATOM     19  C   UNL     1      45.981   5.605  11.913  0.00  0.00    +0.000 A 
ATOM     20  C   UNL     1      45.316   4.636  11.193  0.00  0.00    +0.000 A 
ATOM     21  C   UNL     1      45.214   3.416  11.826  0.00  0.00    +0.000 A 
ATOM     22  N   UNL     1      45.693   3.168  13.063  0.00  0.00    +0.000 NA
BRANCH  20  23
ATOM     23  C   UNL     1      44.754   4.888   9.831  0.00  0.00    +0.000 C 
BRANCH  23  24
ATOM     24  O   UNL     1      44.399   3.646   9.226  0.00  0.00    +0.000 OA
BRANCH  24  25
ATOM     25  C   UNL     1      45.377   3.028   8.494  0.00  0.00    +0.000 A 
ATOM     26  C   UNL     1      46.225   3.636   7.570  0.00  0.00    +0.000 A 
ATOM     27  C   UNL     1      47.179   2.870   6.899  0.00  0.00    +0.000 A 
ATOM     28  C   UNL     1      47.252   1.514   7.170  0.00  0.00    +0.000 A 
ATOM     29  N   UNL     1      46.450   0.890   8.054  0.00  0.00    +0.000 NA
ATOM     30  C   UNL     1      45.531   1.660   8.694  0.00  0.00    +0.000 A 
ENDBRANCH  24  25
ENDBRANCH  23  24
ENDBRANCH  20  23
ENDBRANCH  16  17
ENDBRANCH   3  16
TORSDOF 6
ENDMDL
MODEL 5
REMARK VINA RESULT:    -7.387      1.957      2.353
REMARK INTER + INTRA:         -10.735
REMARK INTER:                  -9.852
REMARK INTRA:                  -0.883
REMARK UNBOUND:                -0.756
REMARK  Name = 
REMARK  6 active torsions:
REMARK  status: ('A' for Active; 'I' for Inactive)
REMARK    1  A    between atoms: C_2  and  C_19
REMARK    2  A    between atoms: N_3  and  C_4
REMARK    3  A    between atoms: C_4  and  C_5
REMARK    4  A    between atoms: C_8  and  C_9
REMARK    5  A    between atoms: C_9  and  O_10
REMARK    6  A    between atoms: O_10  and  C_11
REMARK                            x       y       z     vdW  Elec       q    Type
REMARK                         _______ _______ _______ _____ _____    ______ ____
ROOT
ATOM      1  O   UNL     1      48.277   7.414  17.043  0.00  0.00    +0.000 OA
ATOM      2  C   UNL     1      48.715   6.324  16.697  0.00  0.00    +0.000 C 
ATOM      3  N   UNL     1      48.530   5.778  15.448  0.00  0.00    +0.000 N 
ATOM      4  H   UNL     1      49.108   4.994  15.178  0.00  0.00    +0.000 HD
ENDROOT
BRANCH   2   5
ATOM      5  C   UNL     1      49.661   5.541  17.479  0.00  0.00    +0.000 A 
ATOM      6  C   UNL     1      50.653   6.123  18.250  0.00  0.00    +0.000 A 
ATOM      7  S   UNL     1      51.917   5.013  18.591  0.00  0.00    +0.000 S 
ATOM      8  C   UNL     1      51.076   3.735  17.835  0.00  0.00    +0.000 A 
ATOM      9  N   UNL     1      51.636   2.515  17.619  0.00  0.00    +0.000 NA
ATOM     10  C   UNL     1      50.832   1.650  17.089  0.00  0.00    +0.000 A 
ATOM     11  N   UNL     1      49.508   1.877  16.797  0.00  0.00    +0.000 N 
ATOM     12  C   UNL     1      48.896   3.092  16.994  0.00  0.00    +0.000 A 
ATOM     13  O   UNL     1      47.706   3.269  16.785  0.00  0.00    +0.000 OA
ATOM     14  C   UNL     1      49.803   4.117  17.475  0.00  0.00    +0.000 A 
ATOM     15  H   UNL     1      48.914   1.141  16.452  0.00  0.00    +0.000 HD
ENDBRANCH   2   5
BRANCH   3  16
ATOM     16  C   UNL     1      47.973   6.534  14.349  0.00  0.00    +0.000 C 
BRANCH  16  17
ATOM     17  C   UNL     1      46.861   5.774  13.653  0.00  0.00    +0.000 A 
ATOM     18  N   UNL     1      46.952   4.432  13.589  0.00  0.00    +0.000 NA
ATOM     19  C   UNL     1      45.970   3.788  12.927  0.00  0.00    +0.000 A 
ATOM     20  C   UNL     1      44.916   4.423  12.306  0.00  0.00    +0.000 A 
ATOM     21  C   UNL     1      44.924   5.796  12.415  0.00  0.00    +0.000 A 
ATOM     22  N   UNL     1      45.889   6.495  13.051  0.00  0.00    +0.000 NA
BRANCH  20  23
ATOM     23  C   UNL     1      43.846   3.678  11.575  0.00  0.00    +0.000 C 
BRANCH  23  24
ATOM     24  O   UNL     1      43.792   4.128  10.223  0.00  0.00    +0.000 OA
BRANCH  24  25
ATOM     25  C   UNL     1      44.684   3.553   9.358  0.00  0.00    +0.000 A 
ATOM     26  C   UNL     1      45.016   2.201   9.292  0.00  0.00    +0.000 A 
ATOM     27  C   UNL     1      45.947   1.762   8.350  0.00  0.00    +0.000 A 
ATOM     28  C   UNL     1      46.523   2.694   7.503  0.00  0.00    +0.000 A 
ATOM     29  N   UNL     1      46.230   4.008   7.535  0.00  0.00    +0.000 NA
ATOM     30  C   UNL     1      45.319   4.407   8.461  0.00  0.00    +0.000 A 
ENDBRANCH  24  25
ENDBRANCH  23  24
ENDBRANCH  20  23
ENDBRANCH  16  17
ENDBRANCH   3  16
TORSDOF 6
ENDMDL
MODEL 6
REMARK VINA RESULT:    -7.263      2.867      4.880
REMARK INTER + INTRA:         -10.566
REMARK INTER:                  -9.422
REMARK INTRA:                  -1.144
REMARK UNBOUND:                -0.756
REMARK  Name = 
REMARK  6 active torsions:
REMARK  status: ('A' for Active; 'I' for Inactive)
REMARK    1  A    between atoms: C_2  and  C_19
REMARK    2  A    between atoms: N_3  and  C_4
REMARK    3  A    between atoms: C_4  and  C_5
REMARK    4  A    between atoms: C_8  and  C_9
REMARK    5  A    between atoms: C_9  and  O_10
REMARK    6  A    between atoms: O_10  and  C_11
REMARK                            x       y       z     vdW  Elec       q    Type
REMARK                         _______ _______ _______ _____ _____    ______ ____
ROOT
ATOM      1  O   UNL     1      49.501   7.771  15.051  0.00  0.00    +0.000 OA
ATOM      2  C   UNL     1      49.181   7.582  13.884  0.00  0.00    +0.000 C 
ATOM      3  N   UNL     1      48.363   6.559  13.462  0.00  0.00    +0.000 N 
ATOM      4  H   UNL     1      47.973   6.611  12.532  0.00  0.00    +0.000 HD
ENDROOT
BRANCH   2   5
ATOM      5  C   UNL     1      49.448   8.522  12.805  0.00  0.00    +0.000 A 
ATOM      6  C   UNL     1      50.684   8.619  12.189  0.00  0.00    +0.000 A 
ATOM      7  S   UNL     1      50.871  10.124  11.386  0.00  0.00    +0.000 S 
ATOM      8  C   UNL     1      49.263  10.577  11.739  0.00  0.00    +0.000 A 
ATOM      9  N   UNL     1      48.778  11.821  11.483  0.00  0.00    +0.000 NA
ATOM     10  C   UNL     1      47.523  11.967  11.761  0.00  0.00    +0.000 A 
ATOM     11  N   UNL     1      46.696  10.973  12.227  0.00  0.00    +0.000 N 
ATOM     12  C   UNL     1      47.138   9.701  12.504  0.00  0.00    +0.000 A 
ATOM     13  O   UNL     1      46.385   8.809  12.865  0.00  0.00    +0.000 OA
ATOM     14  C   UNL     1      48.567   9.540  12.318  0.00  0.00    +0.000 A 
ATOM     15  H   UNL     1      45.709  11.129  12.356  0.00  0.00    +0.000 HD
ENDBRANCH   2   5
BRANCH   3  16
ATOM     16  C   UNL     1      47.630   5.725  14.388  0.00  0.00    +0.000 C 
BRANCH  16  17
ATOM     17  C   UNL     1      46.526   4.953  13.692  0.00  0.00    +0.000 A 
ATOM     18  N   UNL     1      46.695   3.629  13.510  0.00  0.00    +0.000 NA
ATOM     19  C   UNL     1      45.717   2.977  12.851  0.00  0.00    +0.000 A 
ATOM     20  C   UNL     1      44.589   3.589  12.346  0.00  0.00    +0.000 A 
ATOM     21  C   UNL     1      44.520   4.947  12.571  0.00  0.00    +0.000 A 
ATOM     22  N   UNL     1      45.477   5.653  13.209  0.00  0.00    +0.000 NA
BRANCH  20  23
ATOM     23  C   UNL     1      43.524   2.838  11.614  0.00  0.00    +0.000 C 
BRANCH  23  24
ATOM     24  O   UNL     1      43.348   3.403  10.317  0.00  0.00    +0.000 OA
BRANCH  24  25
ATOM     25  C   UNL     1      44.367   3.204   9.426  0.00  0.00    +0.000 A 
ATOM     26  C   UNL     1      44.960   1.983   9.109  0.00  0.00    +0.000 A 
ATOM     27  C   UNL     1      45.995   1.938   8.174  0.00  0.00    +0.000 A 
ATOM     28  C   UNL     1      46.410   3.122   7.587  0.00  0.00    +0.000 A 
ATOM     29  N   UNL     1      45.864   4.321   7.868  0.00  0.00    +0.000 NA
ATOM     30  C   UNL     1      44.858   4.334   8.780  0.00  0.00    +0.000 A 
ENDBRANCH  24  25
ENDBRANCH  23  24
ENDBRANCH  20  23
ENDBRANCH  16  17
ENDBRANCH   3  16
TORSDOF 6
ENDMDL
MODEL 7
REMARK VINA RESULT:    -6.692      3.178      4.583
REMARK INTER + INTRA:          -9.795
REMARK INTER:                  -8.927
REMARK INTRA:                  -0.868
REMARK UNBOUND:                -0.756
REMARK  Name = 
REMARK  6 active torsions:
REMARK  status: ('A' for Active; 'I' for Inactive)
REMARK    1  A    between atoms: C_2  and  C_19
REMARK    2  A    between atoms: N_3  and  C_4
REMARK    3  A    between atoms: C_4  and  C_5
REMARK    4  A    between atoms: C_8  and  C_9
REMARK    5  A    between atoms: C_9  and  O_10
REMARK    6  A    between atoms: O_10  and  C_11
REMARK                            x       y       z     vdW  Elec       q    Type
REMARK                         _______ _______ _______ _____ _____    ______ ____
ROOT
ATOM      1  O   UNL     1      48.386   8.505  15.326  0.00  0.00    +0.000 OA
ATOM      2  C   UNL     1      48.835   8.175  14.236  0.00  0.00    +0.000 C 
ATOM      3  N   UNL     1      48.620   6.949  13.650  0.00  0.00    +0.000 N 
ATOM      4  H   UNL     1      48.832   6.844  12.667  0.00  0.00    +0.000 HD
ENDROOT
BRANCH   2   5
ATOM      5  C   UNL     1      49.487   9.093  13.313  0.00  0.00    +0.000 A 
ATOM      6  C   UNL     1      48.802  10.097  12.651  0.00  0.00    +0.000 A 
ATOM      7  S   UNL     1      49.657  10.633  11.263  0.00  0.00    +0.000 S 
ATOM      8  C   UNL     1      50.991   9.632  11.627  0.00  0.00    +0.000 A 
ATOM      9  N   UNL     1      52.037   9.465  10.775  0.00  0.00    +0.000 NA
ATOM     10  C   UNL     1      52.985   8.719  11.242  0.00  0.00    +0.000 A 
ATOM     11  N   UNL     1      53.006   8.161  12.498  0.00  0.00    +0.000 N 
ATOM     12  C   UNL     1      51.973   8.297  13.394  0.00  0.00    +0.000 A 
ATOM     13  O   UNL     1      52.024   7.845  14.528  0.00  0.00    +0.000 OA
ATOM     14  C   UNL     1      50.842   9.028  12.856  0.00  0.00    +0.000 A 
ATOM     15  H   UNL     1      53.807   7.648  12.831  0.00  0.00    +0.000 HD
ENDBRANCH   2   5
BRANCH   3  16
ATOM     16  C   UNL     1      47.665   5.999  14.174  0.00  0.00    +0.000 C 
BRANCH  16  17
ATOM     17  C   UNL     1      46.631   5.612  13.135  0.00  0.00    +0.000 A 
ATOM     18  N   UNL     1      45.899   4.502  13.349  0.00  0.00    +0.000 NA
ATOM     19  C   UNL     1      45.019   4.161  12.386  0.00  0.00    +0.000 A 
ATOM     20  C   UNL     1      44.852   4.863  11.212  0.00  0.00    +0.000 A 
ATOM     21  C   UNL     1      45.659   5.972  11.083  0.00  0.00    +0.000 A 
ATOM     22  N   UNL     1      46.569   6.352  12.005  0.00  0.00    +0.000 NA
BRANCH  20  23
ATOM     23  C   UNL     1      43.869   4.454  10.162  0.00  0.00    +0.000 C 
BRANCH  23  24
ATOM     24  O   UNL     1      44.120   3.104   9.775  0.00  0.00    +0.000 OA
BRANCH  24  25
ATOM     25  C   UNL     1      45.091   2.917   8.829  0.00  0.00    +0.000 A 
ATOM     26  C   UNL     1      45.586   3.880   7.951  0.00  0.00    +0.000 A 
ATOM     27  C   UNL     1      46.583   3.536   7.037  0.00  0.00    +0.000 A 
ATOM     28  C   UNL     1      47.052   2.233   7.027  0.00  0.00    +0.000 A 
ATOM     29  N   UNL     1      46.600   1.274   7.857  0.00  0.00    +0.000 NA
ATOM     30  C   UNL     1      45.630   1.638   8.737  0.00  0.00    +0.000 A 
ENDBRANCH  24  25
ENDBRANCH  23  24
ENDBRANCH  20  23
ENDBRANCH  16  17
ENDBRANCH   3  16
TORSDOF 6
ENDMDL
MODEL 8
REMARK VINA RESULT:    -6.647      2.963      4.342
REMARK INTER + INTRA:          -9.735
REMARK INTER:                  -8.932
REMARK INTRA:                  -0.803
REMARK UNBOUND:                -0.756
REMARK  Name = 
REMARK  6 active torsions:
REMARK  status: ('A' for Active; 'I' for Inactive)
REMARK    1  A    between atoms: C_2  and  C_19
REMARK    2  A    between atoms: N_3  and  C_4
REMARK    3  A    between atoms: C_4  and  C_5
REMARK    4  A    between atoms: C_8  and  C_9
REMARK    5  A    between atoms: C_9  and  O_10
REMARK    6  A    between atoms: O_10  and  C_11
REMARK                            x       y       z     vdW  Elec       q    Type
REMARK                         _______ _______ _______ _____ _____    ______ ____
ROOT
ATOM      1  O   UNL     1      50.046   4.952  17.756  0.00  0.00    +0.000 OA
ATOM      2  C   UNL     1      48.979   5.467  18.069  0.00  0.00    +0.000 C 
ATOM      3  N   UNL     1      47.782   5.207  17.443  0.00  0.00    +0.000 N 
ATOM      4  H   UNL     1      46.929   5.494  17.903  0.00  0.00    +0.000 HD
ENDROOT
BRANCH   2   5
ATOM      5  C   UNL     1      48.783   6.267  19.269  0.00  0.00    +0.000 A 
ATOM      6  C   UNL     1      48.805   5.722  20.541  0.00  0.00    +0.000 A 
ATOM      7  S   UNL     1      48.015   6.740  21.676  0.00  0.00    +0.000 S 
ATOM      8  C   UNL     1      47.776   7.957  20.503  0.00  0.00    +0.000 A 
ATOM      9  N   UNL     1      47.021   9.063  20.737  0.00  0.00    +0.000 NA
ATOM     10  C   UNL     1      47.000   9.907  19.756  0.00  0.00    +0.000 A 
ATOM     11  N   UNL     1      47.698   9.769  18.581  0.00  0.00    +0.000 N 
ATOM     12  C   UNL     1      48.472   8.670  18.294  0.00  0.00    +0.000 A 
ATOM     13  O   UNL     1      49.133   8.581  17.271  0.00  0.00    +0.000 OA
ATOM     14  C   UNL     1      48.420   7.651  19.325  0.00  0.00    +0.000 A 
ATOM     15  H   UNL     1      47.698  10.496  17.882  0.00  0.00    +0.000 HD
ENDBRANCH   2   5
BRANCH   3  16
ATOM     16  C   UNL     1      47.629   4.136  16.483  0.00  0.00    +0.000 C 
BRANCH  16  17
ATOM     17  C   UNL     1      47.275   4.665  15.107  0.00  0.00    +0.000 A 
ATOM     18  N   UNL     1      47.938   5.745  14.651  0.00  0.00    +0.000 NA
ATOM     19  C   UNL     1      47.571   6.217  13.443  0.00  0.00    +0.000 A 
ATOM     20  C   UNL     1      46.560   5.675  12.679  0.00  0.00    +0.000 A 
ATOM     21  C   UNL     1      45.934   4.584  13.242  0.00  0.00    +0.000 A 
ATOM     22  N   UNL     1      46.247   4.079  14.454  0.00  0.00    +0.000 NA
BRANCH  20  23
ATOM     23  C   UNL     1      46.175   6.226  11.344  0.00  0.00    +0.000 C 
BRANCH  23  24
ATOM     24  O   UNL     1      44.959   5.620  10.912  0.00  0.00    +0.000 OA
BRANCH  24  25
ATOM     25  C   UNL     1      45.066   4.703   9.902  0.00  0.00    +0.000 A 
ATOM     26  C   UNL     1      44.428   3.465   9.839  0.00  0.00    +0.000 A 
ATOM     27  C   UNL     1      44.635   2.634   8.738  0.00  0.00    +0.000 A 
ATOM     28  C   UNL     1      45.482   3.068   7.730  0.00  0.00    +0.000 A 
ATOM     29  N   UNL     1      46.117   4.255   7.754  0.00  0.00    +0.000 NA
ATOM     30  C   UNL     1      45.895   5.044   8.838  0.00  0.00    +0.000 A 
ENDBRANCH  24  25
ENDBRANCH  23  24
ENDBRANCH  20  23
ENDBRANCH  16  17
ENDBRANCH   3  16
TORSDOF 6
ENDMDL
MODEL 9
REMARK VINA RESULT:    -6.569      3.429      9.006
REMARK INTER + INTRA:          -9.629
REMARK INTER:                  -8.628
REMARK INTRA:                  -1.000
REMARK UNBOUND:                -0.756
REMARK  Name = 
REMARK  6 active torsions:
REMARK  status: ('A' for Active; 'I' for Inactive)
REMARK    1  A    between atoms: C_2  and  C_19
REMARK    2  A    between atoms: N_3  and  C_4
REMARK    3  A    between atoms: C_4  and  C_5
REMARK    4  A    between atoms: C_8  and  C_9
REMARK    5  A    between atoms: C_9  and  O_10
REMARK    6  A    between atoms: O_10  and  C_11
REMARK                            x       y       z     vdW  Elec       q    Type
REMARK                         _______ _______ _______ _____ _____    ______ ____
ROOT
ATOM      1  O   UNL     1      47.409   3.079  13.906  0.00  0.00    +0.000 OA
ATOM      2  C   UNL     1      46.745   4.088  14.112  0.00  0.00    +0.000 C 
ATOM      3  N   UNL     1      46.510   4.619  15.359  0.00  0.00    +0.000 N 
ATOM      4  H   UNL     1      46.152   5.562  15.419  0.00  0.00    +0.000 HD
ENDROOT
BRANCH   2   5
ATOM      5  C   UNL     1      46.280   4.984  13.063  0.00  0.00    +0.000 A 
ATOM      6  C   UNL     1      46.993   6.103  12.667  0.00  0.00    +0.000 A 
ATOM      7  S   UNL     1      45.990   7.235  11.857  0.00  0.00    +0.000 S 
ATOM      8  C   UNL     1      44.653   6.175  11.912  0.00  0.00    +0.000 A 
ATOM      9  N   UNL     1      43.402   6.552  11.534  0.00  0.00    +0.000 NA
ATOM     10  C   UNL     1      42.525   5.602  11.586  0.00  0.00    +0.000 A 
ATOM     11  N   UNL     1      42.790   4.300  11.936  0.00  0.00    +0.000 N 
ATOM     12  C   UNL     1      44.036   3.870  12.329  0.00  0.00    +0.000 A 
ATOM     13  O   UNL     1      44.275   2.700  12.584  0.00  0.00    +0.000 OA
ATOM     14  C   UNL     1      45.014   4.938  12.397  0.00  0.00    +0.000 A 
ATOM     15  H   UNL     1      42.079   3.588  11.888  0.00  0.00    +0.000 HD
ENDBRANCH   2   5
BRANCH   3  16
ATOM     16  C   UNL     1      47.202   4.151  16.540  0.00  0.00    +0.000 C 
BRANCH  16  17
ATOM     17  C   UNL     1      48.178   5.186  17.064  0.00  0.00    +0.000 A 
ATOM     18  N   UNL     1      49.122   5.651  16.224  0.00  0.00    +0.000 NA
ATOM     19  C   UNL     1      50.002   6.538  16.731  0.00  0.00    +0.000 A 
ATOM     20  C   UNL     1      49.996   6.964  18.042  0.00  0.00    +0.000 A 
ATOM     21  C   UNL     1      49.001   6.417  18.822  0.00  0.00    +0.000 A 
ATOM     22  N   UNL     1      48.104   5.513  18.373  0.00  0.00    +0.000 NA
BRANCH  20  23
ATOM     23  C   UNL     1      50.990   7.946  18.574  0.00  0.00    +0.000 C 
BRANCH  23  24
ATOM     24  O   UNL     1      50.817   9.201  17.918  0.00  0.00    +0.000 OA
BRANCH  24  25
ATOM     25  C   UNL     1      49.754   9.958  18.332  0.00  0.00    +0.000 A 
ATOM     26  C   UNL     1      48.678  10.369  17.547  0.00  0.00    +0.000 A 
ATOM     27  C   UNL     1      47.663  11.142  18.114  0.00  0.00    +0.000 A 
ATOM     28  C   UNL     1      47.760  11.484  19.453  0.00  0.00    +0.000 A 
ATOM     29  N   UNL     1      48.783  11.108  20.243  0.00  0.00    +0.000 NA
ATOM     30  C   UNL     1      49.755  10.355  19.665  0.00  0.00    +0.000 A 
ENDBRANCH  24  25
ENDBRANCH  23  24
ENDBRANCH  20  23
ENDBRANCH  16  17
ENDBRANCH   3  16
TORSDOF 6
ENDMDL
