MODEL 1
REMARK VINA RESULT:    -8.021      0.000      0.000
REMARK INTER + INTRA:          -9.918
REMARK INTER:                  -9.428
REMARK INTRA:                  -0.490
REMARK UNBOUND:                -0.490
REMARK  Name = 
REMARK  3 active torsions:
REMARK  status: ('A' for Active; 'I' for Inactive)
REMARK    1  A    between atoms: C_2  and  C_11
REMARK    2  A    between atoms: N_3  and  C_4
REMARK    3  A    between atoms: C_4  and  C_5
REMARK                            x       y       z     vdW  Elec       q    Type
REMARK                         _______ _______ _______ _____ _____    ______ ____
ROOT
ATOM      1  O   UNL     1      43.688   4.708  10.953  0.00  0.00    +0.000 OA
ATOM      2  C   UNL     1      44.837   5.060  10.706  0.00  0.00    +0.000 C 
ATOM      3  N   UNL     1      45.417   4.881   9.475  0.00  0.00    +0.000 N 
ATOM      4  H   UNL     1      46.415   5.031   9.379  0.00  0.00    +0.000 HD
ENDROOT
BRANCH   2   5
ATOM      5  C   UNL     1      45.660   5.759  11.700  0.00  0.00    +0.000 A 
ATOM      6  C   UNL     1      45.893   7.121  11.575  0.00  0.00    +0.000 A 
ATOM      7  S   UNL     1      46.897   7.759  12.799  0.00  0.00    +0.000 S 
ATOM      8  C   UNL     1      47.016   6.246  13.567  0.00  0.00    +0.000 A 
ATOM      9  N   UNL     1      47.728   6.096  14.717  0.00  0.00    +0.000 NA
ATOM     10  C   UNL     1      47.692   4.905  15.217  0.00  0.00    +0.000 A 
ATOM     11  N   UNL     1      47.017   3.846  14.665  0.00  0.00    +0.000 N 
ATOM     12  C   UNL     1      46.360   3.931  13.462  0.00  0.00    +0.000 A 
ATOM     13  O   UNL     1      45.895   2.930  12.922  0.00  0.00    +0.000 OA
ATOM     14  C   UNL     1      46.322   5.261  12.885  0.00  0.00    +0.000 A 
ATOM     15  H   UNL     1      47.056   2.931  15.089  0.00  0.00    +0.000 HD
ENDBRANCH   2   5
BRANCH   3  16
ATOM     16  C   UNL     1      44.776   4.171   8.401  0.00  0.00    +0.000 C 
BRANCH  16  17
ATOM     17  C   UNL     1      45.641   3.069   7.867  0.00  0.00    +0.000 A 
ATOM     18  C   UNL     1      46.410   3.248   6.714  0.00  0.00    +0.000 A 
ATOM     19  C   UNL     1      47.221   2.214   6.258  0.00  0.00    +0.000 A 
ATOM     20  C   UNL     1      47.227   1.024   6.966  0.00  0.00    +0.000 A 
ATOM     21  N   UNL     1      46.478   0.801   8.066  0.00  0.00    +0.000 NA
ATOM     22  C   UNL     1      45.697   1.823   8.485  0.00  0.00    +0.000 A 
ENDBRANCH  16  17
ENDBRANCH   3  16
TORSDOF 3
ENDMDL
MODEL 2
REMARK VINA RESULT:    -7.515      1.357      1.648
REMARK INTER + INTRA:          -9.323
REMARK INTER:                  -8.711
REMARK INTRA:                  -0.612
REMARK UNBOUND:                -0.490
REMARK  Name = 
REMARK  3 active torsions:
REMARK  status: ('A' for Active; 'I' for Inactive)
REMARK    1  A    between atoms: C_2  and  C_11
REMARK    2  A    between atoms: N_3  and  C_4
REMARK    3  A    between atoms: C_4  and  C_5
REMARK                            x       y       z     vdW  Elec       q    Type
REMARK                         _______ _______ _______ _____ _____    ______ ____
ROOT
ATOM      1  O   UNL     1      42.913   6.011  11.188  0.00  0.00    +0.000 OA
ATOM      2  C   UNL     1      44.131   6.049  11.048  0.00  0.00    +0.000 C 
ATOM      3  N   UNL     1      44.812   5.174  10.239  0.00  0.00    +0.000 N 
ATOM      4  H   UNL     1      45.823   5.141  10.296  0.00  0.00    +0.000 HD
ENDROOT
BRANCH   2   5
ATOM      5  C   UNL     1      44.950   7.082  11.696  0.00  0.00    +0.000 A 
ATOM      6  C   UNL     1      44.719   8.423  11.424  0.00  0.00    +0.000 A 
ATOM      7  S   UNL     1      45.786   9.478  12.237  0.00  0.00    +0.000 S 
ATOM      8  C   UNL     1      46.562   8.182  13.019  0.00  0.00    +0.000 A 
ATOM      9  N   UNL     1      47.577   8.399  13.899  0.00  0.00    +0.000 NA
ATOM     10  C   UNL     1      48.040   7.329  14.455  0.00  0.00    +0.000 A 
ATOM     11  N   UNL     1      47.587   6.059  14.204  0.00  0.00    +0.000 N 
ATOM     12  C   UNL     1      46.628   5.786  13.260  0.00  0.00    +0.000 A 
ATOM     13  O   UNL     1      46.353   4.630  12.950  0.00  0.00    +0.000 OA
ATOM     14  C   UNL     1      46.033   6.959  12.645  0.00  0.00    +0.000 A 
ATOM     15  H   UNL     1      48.015   5.260  14.648  0.00  0.00    +0.000 HD
ENDBRANCH   2   5
BRANCH   3  16
ATOM     16  C   UNL     1      44.177   4.070   9.570  0.00  0.00    +0.000 C 
BRANCH  16  17
ATOM     17  C   UNL     1      45.157   3.269   8.765  0.00  0.00    +0.000 A 
ATOM     18  C   UNL     1      45.958   3.873   7.793  0.00  0.00    +0.000 A 
ATOM     19  C   UNL     1      46.874   3.105   7.081  0.00  0.00    +0.000 A 
ATOM     20  C   UNL     1      46.951   1.750   7.356  0.00  0.00    +0.000 A 
ATOM     21  N   UNL     1      46.175   1.124   8.266  0.00  0.00    +0.000 NA
ATOM     22  C   UNL     1      45.291   1.895   8.942  0.00  0.00    +0.000 A 
ENDBRANCH  16  17
ENDBRANCH   3  16
TORSDOF 3
ENDMDL
MODEL 3
REMARK VINA RESULT:    -7.449      1.754      2.817
REMARK INTER + INTRA:          -9.246
REMARK INTER:                  -8.638
REMARK INTRA:                  -0.607
REMARK UNBOUND:                -0.490
REMARK  Name = 
REMARK  3 active torsions:
REMARK  status: ('A' for Active; 'I' for Inactive)
REMARK    1  A    between atoms: C_2  and  C_11
REMARK    2  A    between atoms: N_3  and  C_4
REMARK    3  A    between atoms: C_4  and  C_5
REMARK                            x       y       z     vdW  Elec       q    Type
REMARK                         _______ _______ _______ _____ _____    ______ ____
ROOT
ATOM      1  O   UNL     1      44.808   3.012  12.532  0.00  0.00    +0.000 OA
ATOM      2  C   UNL     1      45.256   3.924  11.845  0.00  0.00    +0.000 C 
ATOM      3  N   UNL     1      45.181   3.925  10.475  0.00  0.00    +0.000 N 
ATOM      4  H   UNL     1      45.715   4.613   9.957  0.00  0.00    +0.000 HD
ENDROOT
BRANCH   2   5
ATOM      5  C   UNL     1      45.855   5.121  12.448  0.00  0.00    +0.000 A 
ATOM      6  C   UNL     1      46.993   5.007  13.234  0.00  0.00    +0.000 A 
ATOM      7  S   UNL     1      47.530   6.494  13.879  0.00  0.00    +0.000 S 
ATOM      8  C   UNL     1      46.289   7.349  13.090  0.00  0.00    +0.000 A 
ATOM      9  N   UNL     1      46.186   8.700  13.203  0.00  0.00    +0.000 NA
ATOM     10  C   UNL     1      45.228   9.223  12.512  0.00  0.00    +0.000 A 
ATOM     11  N   UNL     1      44.355   8.515  11.726  0.00  0.00    +0.000 N 
ATOM     12  C   UNL     1      44.367   7.144  11.653  0.00  0.00    +0.000 A 
ATOM     13  O   UNL     1      43.480   6.532  11.063  0.00  0.00    +0.000 OA
ATOM     14  C   UNL     1      45.460   6.509  12.366  0.00  0.00    +0.000 A 
ATOM     15  H   UNL     1      43.606   8.981  11.236  0.00  0.00    +0.000 HD
ENDBRANCH   2   5
BRANCH   3  16
ATOM     16  C   UNL     1      44.673   2.814   9.716  0.00  0.00    +0.000 C 
BRANCH  16  17
ATOM     17  C   UNL     1      45.527   2.518   8.520  0.00  0.00    +0.000 A 
ATOM     18  C   UNL     1      45.757   3.487   7.540  0.00  0.00    +0.000 A 
ATOM     19  C   UNL     1      46.575   3.188   6.454  0.00  0.00    +0.000 A 
ATOM     20  C   UNL     1      47.128   1.921   6.377  0.00  0.00    +0.000 A 
ATOM     21  N   UNL     1      46.907   0.949   7.288  0.00  0.00    +0.000 NA
ATOM     22  C   UNL     1      46.106   1.267   8.331  0.00  0.00    +0.000 A 
ENDBRANCH  16  17
ENDBRANCH   3  16
TORSDOF 3
ENDMDL
MODEL 4
REMARK VINA RESULT:    -7.059      3.969      7.061
REMARK INTER + INTRA:          -8.786
REMARK INTER:                  -8.312
REMARK INTRA:                  -0.474
REMARK UNBOUND:                -0.490
REMARK  Name = 
REMARK  3 active torsions:
REMARK  status: ('A' for Active; 'I' for Inactive)
REMARK    1  A    between atoms: C_2  and  C_11
REMARK    2  A    between atoms: N_3  and  C_4
REMARK    3  A    between atoms: C_4  and  C_5
REMARK                            x       y       z     vdW  Elec       q    Type
REMARK                         _______ _______ _______ _____ _____    ______ ____
ROOT
ATOM      1  O   UNL     1      47.284   3.116  14.043  0.00  0.00    +0.000 OA
ATOM      2  C   UNL     1      46.833   4.171  14.475  0.00  0.00    +0.000 C 
ATOM      3  N   UNL     1      46.793   4.466  15.815  0.00  0.00    +0.000 N 
ATOM      4  H   UNL     1      46.257   5.269  16.123  0.00  0.00    +0.000 HD
ENDROOT
BRANCH   2   5
ATOM      5  C   UNL     1      46.356   5.231  13.578  0.00  0.00    +0.000 A 
ATOM      6  C   UNL     1      47.179   6.306  13.273  0.00  0.00    +0.000 A 
ATOM      7  S   UNL     1      46.448   7.456  12.245  0.00  0.00    +0.000 S 
ATOM      8  C   UNL     1      45.024   6.533  12.132  0.00  0.00    +0.000 A 
ATOM      9  N   UNL     1      43.978   6.947  11.366  0.00  0.00    +0.000 NA
ATOM     10  C   UNL     1      42.982   6.125  11.333  0.00  0.00    +0.000 A 
ATOM     11  N   UNL     1      42.931   4.931  12.006  0.00  0.00    +0.000 N 
ATOM     12  C   UNL     1      43.924   4.517  12.859  0.00  0.00    +0.000 A 
ATOM     13  O   UNL     1      43.782   3.520  13.562  0.00  0.00    +0.000 OA
ATOM     14  C   UNL     1      45.093   5.377  12.890  0.00  0.00    +0.000 A 
ATOM     15  H   UNL     1      42.107   4.349  11.965  0.00  0.00    +0.000 HD
ENDBRANCH   2   5
BRANCH   3  16
ATOM     16  C   UNL     1      47.171   3.527  16.837  0.00  0.00    +0.000 C 
BRANCH  16  17
ATOM     17  C   UNL     1      48.642   3.576  17.122  0.00  0.00    +0.000 A 
ATOM     18  C   UNL     1      49.408   2.409  17.173  0.00  0.00    +0.000 A 
ATOM     19  C   UNL     1      50.775   2.491  17.416  0.00  0.00    +0.000 A 
ATOM     20  C   UNL     1      51.333   3.743  17.614  0.00  0.00    +0.000 A 
ATOM     21  N   UNL     1      50.623   4.892  17.601  0.00  0.00    +0.000 NA
ATOM     22  C   UNL     1      49.295   4.781  17.365  0.00  0.00    +0.000 A 
ENDBRANCH  16  17
ENDBRANCH   3  16
TORSDOF 3
ENDMDL
MODEL 5
REMARK VINA RESULT:    -6.903      3.406      6.931
REMARK INTER + INTRA:          -8.604
REMARK INTER:                  -7.998
REMARK INTRA:                  -0.606
REMARK UNBOUND:                -0.490
REMARK  Name = 
REMARK  3 active torsions:
REMARK  status: ('A' for Active; 'I' for Inactive)
REMARK    1  A    between atoms: C_2  and  C_11
REMARK    2  A    between atoms: N_3  and  C_4
REMARK    3  A    between atoms: C_4  and  C_5
REMARK                            x       y       z     vdW  Elec       q    Type
REMARK                         _______ _______ _______ _____ _____    ______ ____
ROOT
ATOM      1  O   UNL     1      48.790   6.069  12.907  0.00  0.00    +0.000 OA
ATOM      2  C   UNL     1      47.701   6.158  13.464  0.00  0.00    +0.000 C 
ATOM      3  N   UNL     1      47.574   6.354  14.817  0.00  0.00    +0.000 N 
ATOM      4  H   UNL     1      46.661   6.248  15.242  0.00  0.00    +0.000 HD
ENDROOT
BRANCH   2   5
ATOM      5  C   UNL     1      46.442   6.124  12.708  0.00  0.00    +0.000 A 
ATOM      6  C   UNL     1      45.950   7.283  12.126  0.00  0.00    +0.000 A 
ATOM      7  S   UNL     1      44.462   7.063  11.318  0.00  0.00    +0.000 S 
ATOM      8  C   UNL     1      44.450   5.400  11.675  0.00  0.00    +0.000 A 
ATOM      9  N   UNL     1      43.441   4.596  11.242  0.00  0.00    +0.000 NA
ATOM     10  C   UNL     1      43.585   3.348  11.543  0.00  0.00    +0.000 A 
ATOM     11  N   UNL     1      44.642   2.831  12.249  0.00  0.00    +0.000 N 
ATOM     12  C   UNL     1      45.634   3.618  12.781  0.00  0.00    +0.000 A 
ATOM     13  O   UNL     1      46.481   3.146  13.535  0.00  0.00    +0.000 OA
ATOM     14  C   UNL     1      45.551   5.022  12.425  0.00  0.00    +0.000 A 
ATOM     15  H   UNL     1      44.678   1.850  12.481  0.00  0.00    +0.000 HD
ENDBRANCH   2   5
BRANCH   3  16
ATOM     16  C   UNL     1      48.697   6.362  15.716  0.00  0.00    +0.000 C 
BRANCH  16  17
ATOM     17  C   UNL     1      48.642   5.222  16.687  0.00  0.00    +0.000 A 
ATOM     18  C   UNL     1      47.537   4.368  16.736  0.00  0.00    +0.000 A 
ATOM     19  C   UNL     1      47.528   3.303  17.633  0.00  0.00    +0.000 A 
ATOM     20  C   UNL     1      48.623   3.134  18.463  0.00  0.00    +0.000 A 
ATOM     21  N   UNL     1      49.696   3.953  18.466  0.00  0.00    +0.000 NA
ATOM     22  C   UNL     1      49.676   4.981  17.586  0.00  0.00    +0.000 A 
ENDBRANCH  16  17
ENDBRANCH   3  16
TORSDOF 3
ENDMDL
MODEL 6
REMARK VINA RESULT:    -6.516      3.643      4.909
REMARK INTER + INTRA:          -8.148
REMARK INTER:                  -7.482
REMARK INTRA:                  -0.667
REMARK UNBOUND:                -0.490
REMARK  Name = 
REMARK  3 active torsions:
REMARK  status: ('A' for Active; 'I' for Inactive)
REMARK    1  A    between atoms: C_2  and  C_11
REMARK    2  A    between atoms: N_3  and  C_4
REMARK    3  A    between atoms: C_4  and  C_5
REMARK                            x       y       z     vdW  Elec       q    Type
REMARK                         _______ _______ _______ _____ _____    ______ ____
ROOT
ATOM      1  O   UNL     1      48.984   6.529  13.376  0.00  0.00    +0.000 OA
ATOM      2  C   UNL     1      48.111   6.256  14.193  0.00  0.00    +0.000 C 
ATOM      3  N   UNL     1      46.811   6.003  13.833  0.00  0.00    +0.000 N 
ATOM      4  H   UNL     1      46.104   5.955  14.557  0.00  0.00    +0.000 HD
ENDROOT
BRANCH   2   5
ATOM      5  C   UNL     1      48.410   6.119  15.624  0.00  0.00    +0.000 A 
ATOM      6  C   UNL     1      48.896   7.205  16.339  0.00  0.00    +0.000 A 
ATOM      7  S   UNL     1      49.219   6.855  17.978  0.00  0.00    +0.000 S 
ATOM      8  C   UNL     1      48.674   5.253  17.802  0.00  0.00    +0.000 A 
ATOM      9  N   UNL     1      48.658   4.397  18.858  0.00  0.00    +0.000 NA
ATOM     10  C   UNL     1      48.173   3.229  18.593  0.00  0.00    +0.000 A 
ATOM     11  N   UNL     1      47.712   2.836  17.362  0.00  0.00    +0.000 N 
ATOM     12  C   UNL     1      47.791   3.637  16.250  0.00  0.00    +0.000 A 
ATOM     13  O   UNL     1      47.511   3.204  15.135  0.00  0.00    +0.000 OA
ATOM     14  C   UNL     1      48.276   4.981  16.504  0.00  0.00    +0.000 A 
ATOM     15  H   UNL     1      47.375   1.896  17.213  0.00  0.00    +0.000 HD
ENDBRANCH   2   5
BRANCH   3  16
ATOM     16  C   UNL     1      46.330   6.141  12.484  0.00  0.00    +0.000 C 
BRANCH  16  17
ATOM     17  C   UNL     1      45.273   5.128  12.163  0.00  0.00    +0.000 A 
ATOM     18  C   UNL     1      44.805   4.961  10.857  0.00  0.00    +0.000 A 
ATOM     19  C   UNL     1      43.840   3.995  10.589  0.00  0.00    +0.000 A 
ATOM     20  C   UNL     1      43.364   3.232  11.641  0.00  0.00    +0.000 A 
ATOM     21  N   UNL     1      43.770   3.381  12.920  0.00  0.00    +0.000 NA
ATOM     22  C   UNL     1      44.706   4.330  13.152  0.00  0.00    +0.000 A 
ENDBRANCH  16  17
ENDBRANCH   3  16
TORSDOF 3
ENDMDL
MODEL 7
REMARK VINA RESULT:    -6.382      3.337      8.016
REMARK INTER + INTRA:          -7.991
REMARK INTER:                  -7.360
REMARK INTRA:                  -0.631
REMARK UNBOUND:                -0.490
REMARK  Name = 
REMARK  3 active torsions:
REMARK  status: ('A' for Active; 'I' for Inactive)
REMARK    1  A    between atoms: C_2  and  C_11
REMARK    2  A    between atoms: N_3  and  C_4
REMARK    3  A    between atoms: C_4  and  C_5
REMARK                            x       y       z     vdW  Elec       q    Type
REMARK                         _______ _______ _______ _____ _____    ______ ____
ROOT
ATOM      1  O   UNL     1      49.198   6.769  14.033  0.00  0.00    +0.000 OA
ATOM      2  C   UNL     1      48.134   6.264  14.375  0.00  0.00    +0.000 C 
ATOM      3  N   UNL     1      47.918   5.775  15.639  0.00  0.00    +0.000 N 
ATOM      4  H   UNL     1      47.090   5.219  15.813  0.00  0.00    +0.000 HD
ENDROOT
BRANCH   2   5
ATOM      5  C   UNL     1      46.982   6.202  13.466  0.00  0.00    +0.000 A 
ATOM      6  C   UNL     1      46.471   7.367  12.911  0.00  0.00    +0.000 A 
ATOM      7  S   UNL     1      45.114   7.108  11.908  0.00  0.00    +0.000 S 
ATOM      8  C   UNL     1      45.193   5.425  12.140  0.00  0.00    +0.000 A 
ATOM      9  N   UNL     1      44.313   4.590  11.526  0.00  0.00    +0.000 NA
ATOM     10  C   UNL     1      44.519   3.335  11.752  0.00  0.00    +0.000 A 
ATOM     11  N   UNL     1      45.522   2.839  12.547  0.00  0.00    +0.000 N 
ATOM     12  C   UNL     1      46.376   3.647  13.255  0.00  0.00    +0.000 A 
ATOM     13  O   UNL     1      47.162   3.177  14.074  0.00  0.00    +0.000 OA
ATOM     14  C   UNL     1      46.223   5.067  12.993  0.00  0.00    +0.000 A 
ATOM     15  H   UNL     1      45.609   1.846  12.710  0.00  0.00    +0.000 HD
ENDBRANCH   2   5
BRANCH   3  16
ATOM     16  C   UNL     1      48.948   5.709  16.641  0.00  0.00    +0.000 C 
BRANCH  16  17
ATOM     17  C   UNL     1      48.487   6.270  17.952  0.00  0.00    +0.000 A 
ATOM     18  C   UNL     1      48.400   7.649  18.158  0.00  0.00    +0.000 A 
ATOM     19  C   UNL     1      47.945   8.136  19.380  0.00  0.00    +0.000 A 
ATOM     20  C   UNL     1      47.602   7.225  20.364  0.00  0.00    +0.000 A 
ATOM     21  N   UNL     1      47.698   5.887  20.214  0.00  0.00    +0.000 NA
ATOM     22  C   UNL     1      48.147   5.441  19.018  0.00  0.00    +0.000 A 
ENDBRANCH  16  17
ENDBRANCH   3  16
TORSDOF 3
ENDMDL
MODEL 8
REMARK VINA RESULT:    -6.314      3.805      6.949
REMARK INTER + INTRA:          -7.911
REMARK INTER:                  -7.456
REMARK INTRA:                  -0.455
REMARK UNBOUND:                -0.490
REMARK  Name = 
REMARK  3 active torsions:
REMARK  status: ('A' for Active; 'I' for Inactive)
REMARK    1  A    between atoms: C_2  and  C_11
REMARK    2  A    between atoms: N_3  and  C_4
REMARK    3  A    between atoms: C_4  and  C_5
REMARK                            x       y       z     vdW  Elec       q    Type
REMARK                         _______ _______ _______ _____ _____    ______ ____
ROOT
ATOM      1  O   UNL     1      46.458   7.165  11.766  0.00  0.00    +0.000 OA
ATOM      2  C   UNL     1      45.263   6.952  11.585  0.00  0.00    +0.000 C 
ATOM      3  N   UNL     1      44.356   7.959  11.365  0.00  0.00    +0.000 N 
ATOM      4  H   UNL     1      43.367   7.741  11.395  0.00  0.00    +0.000 HD
ENDROOT
BRANCH   2   5
ATOM      5  C   UNL     1      44.722   5.589  11.529  0.00  0.00    +0.000 A 
ATOM      6  C   UNL     1      43.994   5.086  12.598  0.00  0.00    +0.000 A 
ATOM      7  S   UNL     1      43.473   3.476  12.373  0.00  0.00    +0.000 S 
ATOM      8  C   UNL     1      44.162   3.411  10.818  0.00  0.00    +0.000 A 
ATOM      9  N   UNL     1      44.053   2.295  10.049  0.00  0.00    +0.000 NA
ATOM     10  C   UNL     1      44.579   2.402   8.874  0.00  0.00    +0.000 A 
ATOM     11  N   UNL     1      45.214   3.523   8.402  0.00  0.00    +0.000 N 
ATOM     12  C   UNL     1      45.424   4.638   9.175  0.00  0.00    +0.000 A 
ATOM     13  O   UNL     1      46.126   5.564   8.776  0.00  0.00    +0.000 OA
ATOM     14  C   UNL     1      44.803   4.592  10.486  0.00  0.00    +0.000 A 
ATOM     15  H   UNL     1      45.634   3.531   7.484  0.00  0.00    +0.000 HD
ENDBRANCH   2   5
BRANCH   3  16
ATOM     16  C   UNL     1      44.701   9.354  11.436  0.00  0.00    +0.000 C 
BRANCH  16  17
ATOM     17  C   UNL     1      43.681  10.215  10.754  0.00  0.00    +0.000 A 
ATOM     18  C   UNL     1      44.032  11.445  10.191  0.00  0.00    +0.000 A 
ATOM     19  C   UNL     1      43.066  12.209   9.544  0.00  0.00    +0.000 A 
ATOM     20  C   UNL     1      41.771  11.722   9.490  0.00  0.00    +0.000 A 
ATOM     21  N   UNL     1      41.385  10.553  10.045  0.00  0.00    +0.000 NA
ATOM     22  C   UNL     1      42.345   9.833  10.670  0.00  0.00    +0.000 A 
ENDBRANCH  16  17
ENDBRANCH   3  16
TORSDOF 3
ENDMDL
MODEL 9
REMARK VINA RESULT:    -5.733      3.073      4.801
REMARK INTER + INTRA:          -7.229
REMARK INTER:                  -6.777
REMARK INTRA:                  -0.452
REMARK UNBOUND:                -0.490
REMARK  Name = 
REMARK  3 active torsions:
REMARK  status: ('A' for Active; 'I' for Inactive)
REMARK    1  A    between atoms: C_2  and  C_11
REMARK    2  A    between atoms: N_3  and  C_4
REMARK    3  A    between atoms: C_4  and  C_5
REMARK                            x       y       z     vdW  Elec       q    Type
REMARK                         _______ _______ _______ _____ _____    ______ ____
ROOT
ATOM      1  O   UNL     1      48.302   5.820  13.254  0.00  0.00    +0.000 OA
ATOM      2  C   UNL     1      47.413   5.523  14.045  0.00  0.00    +0.000 C 
ATOM      3  N   UNL     1      46.080   5.648  13.742  0.00  0.00    +0.000 N 
ATOM      4  H   UNL     1      45.400   5.553  14.487  0.00  0.00    +0.000 HD
ENDROOT
BRANCH   2   5
ATOM      5  C   UNL     1      47.714   4.949  15.362  0.00  0.00    +0.000 A 
ATOM      6  C   UNL     1      47.344   3.643  15.651  0.00  0.00    +0.000 A 
ATOM      7  S   UNL     1      47.741   3.155  17.238  0.00  0.00    +0.000 S 
ATOM      8  C   UNL     1      48.467   4.656  17.578  0.00  0.00    +0.000 A 
ATOM      9  N   UNL     1      49.043   4.900  18.785  0.00  0.00    +0.000 NA
ATOM     10  C   UNL     1      49.599   6.062  18.888  0.00  0.00    +0.000 A 
ATOM     11  N   UNL     1      49.621   7.008  17.895  0.00  0.00    +0.000 N 
ATOM     12  C   UNL     1      48.976   6.838  16.694  0.00  0.00    +0.000 A 
ATOM     13  O   UNL     1      48.885   7.760  15.888  0.00  0.00    +0.000 OA
ATOM     14  C   UNL     1      48.383   5.527  16.505  0.00  0.00    +0.000 A 
ATOM     15  H   UNL     1      50.044   7.911  18.051  0.00  0.00    +0.000 HD
ENDBRANCH   2   5
BRANCH   3  16
ATOM     16  C   UNL     1      45.605   6.238  12.520  0.00  0.00    +0.000 C 
BRANCH  16  17
ATOM     17  C   UNL     1      45.176   5.198  11.529  0.00  0.00    +0.000 A 
ATOM     18  C   UNL     1      45.452   5.340  10.167  0.00  0.00    +0.000 A 
ATOM     19  C   UNL     1      45.062   4.345   9.276  0.00  0.00    +0.000 A 
ATOM     20  C   UNL     1      44.393   3.241   9.777  0.00  0.00    +0.000 A 
ATOM     21  N   UNL     1      44.083   3.080  11.081  0.00  0.00    +0.000 NA
ATOM     22  C   UNL     1      44.472   4.064  11.923  0.00  0.00    +0.000 A 
ENDBRANCH  16  17
ENDBRANCH   3  16
TORSDOF 3
ENDMDL
