MODEL 1
REMARK VINA RESULT:    -8.728      0.000      0.000
REMARK INTER + INTRA:         -11.862
REMARK INTER:                 -11.279
REMARK INTRA:                  -0.583
REMARK UNBOUND:                -0.583
REMARK  Name = 
REMARK  5 active torsions:
REMARK  status: ('A' for Active; 'I' for Inactive)
REMARK    1  A    between atoms: C_2  and  C_18
REMARK    2  A    between atoms: N_3  and  C_4
REMARK    3  A    between atoms: C_4  and  C_5
REMARK    4  A    between atoms: C_8  and  C_9
REMARK    5  A    between atoms: C_9  and  C_10
REMARK                            x       y       z     vdW  Elec       q    Type
REMARK                         _______ _______ _______ _____ _____    ______ ____
ROOT
ATOM      1  O   UNL     1      48.887   6.613  13.111  0.00  0.00    +0.000 OA
ATOM      2  C   UNL     1      48.130   6.547  14.075  0.00  0.00    +0.000 C 
ATOM      3  N   UNL     1      46.782   6.770  13.969  0.00  0.00    +0.000 N 
ATOM      4  H   UNL     1      46.230   6.872  14.814  0.00  0.00    +0.000 HD
ENDROOT
BRANCH   2   5
ATOM      5  C   UNL     1      48.619   6.173  15.407  0.00  0.00    +0.000 A 
ATOM      6  C   UNL     1      49.525   6.990  16.066  0.00  0.00    +0.000 A 
ATOM      7  S   UNL     1      49.970   6.411  17.608  0.00  0.00    +0.000 S 
ATOM      8  C   UNL     1      48.934   5.068  17.462  0.00  0.00    +0.000 A 
ATOM      9  N   UNL     1      48.797   4.174  18.478  0.00  0.00    +0.000 NA
ATOM     10  C   UNL     1      47.948   3.227  18.247  0.00  0.00    +0.000 A 
ATOM     11  N   UNL     1      47.236   3.086  17.084  0.00  0.00    +0.000 N 
ATOM     12  C   UNL     1      47.404   3.915  16.004  0.00  0.00    +0.000 A 
ATOM     13  O   UNL     1      46.873   3.668  14.924  0.00  0.00    +0.000 OA
ATOM     14  C   UNL     1      48.294   5.037  16.237  0.00  0.00    +0.000 A 
ATOM     15  H   UNL     1      46.617   2.299  16.953  0.00  0.00    +0.000 HD
ENDBRANCH   2   5
BRANCH   3  16
ATOM     16  C   UNL     1      46.161   7.191  12.741  0.00  0.00    +0.000 C 
BRANCH  16  17
ATOM     17  C   UNL     1      45.791   6.025  11.874  0.00  0.00    +0.000 A 
ATOM     18  C   UNL     1      45.288   4.845  12.422  0.00  0.00    +0.000 A 
ATOM     19  C   UNL     1      44.897   3.803  11.584  0.00  0.00    +0.000 A 
ATOM     20  C   UNL     1      45.040   3.957  10.206  0.00  0.00    +0.000 A 
ATOM     21  N   UNL     1      45.573   5.077   9.653  0.00  0.00    +0.000 NA
ATOM     22  C   UNL     1      45.937   6.074  10.493  0.00  0.00    +0.000 A 
BRANCH  20  23
ATOM     23  C   UNL     1      44.530   2.892   9.261  0.00  0.00    +0.000 C 
BRANCH  23  24
ATOM     24  C   UNL     1      45.552   2.492   8.221  0.00  0.00    +0.000 A 
ATOM     25  C   UNL     1      45.820   3.326   7.135  0.00  0.00    +0.000 A 
ATOM     26  C   UNL     1      46.713   2.898   6.156  0.00  0.00    +0.000 A 
ATOM     27  C   UNL     1      47.334   1.664   6.296  0.00  0.00    +0.000 A 
ATOM     28  C   UNL     1      47.042   0.911   7.420  0.00  0.00    +0.000 A 
ATOM     29  N   UNL     1      46.169   1.292   8.380  0.00  0.00    +0.000 NA
ENDBRANCH  23  24
ENDBRANCH  20  23
ENDBRANCH  16  17
ENDBRANCH   3  16
TORSDOF 5
ENDMDL
MODEL 2
REMARK VINA RESULT:    -7.924      2.462      4.162
REMARK INTER + INTRA:         -10.824
REMARK INTER:                  -9.895
REMARK INTRA:                  -0.929
REMARK UNBOUND:                -0.583
REMARK  Name = 
REMARK  5 active torsions:
REMARK  status: ('A' for Active; 'I' for Inactive)
REMARK    1  A    between atoms: C_2  and  C_18
REMARK    2  A    between atoms: N_3  and  C_4
REMARK    3  A    between atoms: C_4  and  C_5
REMARK    4  A    between atoms: C_8  and  C_9
REMARK    5  A    between atoms: C_9  and  C_10
REMARK                            x       y       z     vdW  Elec       q    Type
REMARK                         _______ _______ _______ _____ _____    ______ ____
ROOT
ATOM      1  O   UNL     1      48.805   5.882  15.285  0.00  0.00    +0.000 OA
ATOM      2  C   UNL     1      48.159   6.721  14.664  0.00  0.00    +0.000 C 
ATOM      3  N   UNL     1      46.978   6.425  14.035  0.00  0.00    +0.000 N 
ATOM      4  H   UNL     1      46.574   7.102  13.398  0.00  0.00    +0.000 HD
ENDROOT
BRANCH   2   5
ATOM      5  C   UNL     1      48.592   8.122  14.594  0.00  0.00    +0.000 A 
ATOM      6  C   UNL     1      48.676   8.877  15.755  0.00  0.00    +0.000 A 
ATOM      7  S   UNL     1      49.211  10.475  15.491  0.00  0.00    +0.000 S 
ATOM      8  C   UNL     1      49.387  10.199  13.821  0.00  0.00    +0.000 A 
ATOM      9  N   UNL     1      49.867  11.167  12.995  0.00  0.00    +0.000 NA
ATOM     10  C   UNL     1      49.985  10.807  11.759  0.00  0.00    +0.000 A 
ATOM     11  N   UNL     1      49.651   9.569  11.272  0.00  0.00    +0.000 N 
ATOM     12  C   UNL     1      49.087   8.592  12.052  0.00  0.00    +0.000 A 
ATOM     13  O   UNL     1      48.652   7.555  11.557  0.00  0.00    +0.000 OA
ATOM     14  C   UNL     1      48.998   8.920  13.463  0.00  0.00    +0.000 A 
ATOM     15  H   UNL     1      49.732   9.366  10.287  0.00  0.00    +0.000 HD
ENDBRANCH   2   5
BRANCH   3  16
ATOM     16  C   UNL     1      46.448   5.089  13.975  0.00  0.00    +0.000 C 
BRANCH  16  17
ATOM     17  C   UNL     1      45.892   4.769  12.620  0.00  0.00    +0.000 A 
ATOM     18  C   UNL     1      45.898   5.712  11.592  0.00  0.00    +0.000 A 
ATOM     19  C   UNL     1      45.429   5.363  10.328  0.00  0.00    +0.000 A 
ATOM     20  C   UNL     1      44.940   4.074  10.122  0.00  0.00    +0.000 A 
ATOM     21  N   UNL     1      44.878   3.154  11.120  0.00  0.00    +0.000 NA
ATOM     22  C   UNL     1      45.347   3.522  12.336  0.00  0.00    +0.000 A 
BRANCH  20  23
ATOM     23  C   UNL     1      44.521   3.627   8.740  0.00  0.00    +0.000 C 
BRANCH  23  24
ATOM     24  C   UNL     1      45.619   2.897   8.000  0.00  0.00    +0.000 A 
ATOM     25  C   UNL     1      46.315   3.525   6.967  0.00  0.00    +0.000 A 
ATOM     26  C   UNL     1      47.272   2.805   6.257  0.00  0.00    +0.000 A 
ATOM     27  C   UNL     1      47.528   1.487   6.610  0.00  0.00    +0.000 A 
ATOM     28  C   UNL     1      46.822   0.947   7.671  0.00  0.00    +0.000 A 
ATOM     29  N   UNL     1      45.876   1.615   8.369  0.00  0.00    +0.000 NA
ENDBRANCH  23  24
ENDBRANCH  20  23
ENDBRANCH  16  17
ENDBRANCH   3  16
TORSDOF 5
ENDMDL
MODEL 3
REMARK VINA RESULT:    -7.686      3.664      4.672
REMARK INTER + INTRA:         -10.515
REMARK INTER:                  -9.686
REMARK INTRA:                  -0.829
REMARK UNBOUND:                -0.583
REMARK  Name = 
REMARK  5 active torsions:
REMARK  status: ('A' for Active; 'I' for Inactive)
REMARK    1  A    between atoms: C_2  and  C_18
REMARK    2  A    between atoms: N_3  and  C_4
REMARK    3  A    between atoms: C_4  and  C_5
REMARK    4  A    between atoms: C_8  and  C_9
REMARK    5  A    between atoms: C_9  and  C_10
REMARK                            x       y       z     vdW  Elec       q    Type
REMARK                         _______ _______ _______ _____ _____    ______ ____
ROOT
ATOM      1  O   UNL     1      46.618   9.019  14.062  0.00  0.00    +0.000 OA
ATOM      2  C   UNL     1      46.974   8.681  12.937  0.00  0.00    +0.000 C 
ATOM      3  N   UNL     1      46.369   7.663  12.247  0.00  0.00    +0.000 N 
ATOM      4  H   UNL     1      46.805   7.311  11.402  0.00  0.00    +0.000 HD
ENDROOT
BRANCH   2   5
ATOM      5  C   UNL     1      48.052   9.385  12.232  0.00  0.00    +0.000 A 
ATOM      6  C   UNL     1      47.868  10.699  11.825  0.00  0.00    +0.000 A 
ATOM      7  S   UNL     1      49.226  11.365  11.038  0.00  0.00    +0.000 S 
ATOM      8  C   UNL     1      50.120   9.932  11.249  0.00  0.00    +0.000 A 
ATOM      9  N   UNL     1      51.413   9.843  10.837  0.00  0.00    +0.000 NA
ATOM     10  C   UNL     1      51.982   8.711  11.097  0.00  0.00    +0.000 A 
ATOM     11  N   UNL     1      51.368   7.655  11.719  0.00  0.00    +0.000 N 
ATOM     12  C   UNL     1      50.043   7.671  12.076  0.00  0.00    +0.000 A 
ATOM     13  O   UNL     1      49.481   6.657  12.482  0.00  0.00    +0.000 OA
ATOM     14  C   UNL     1      49.377   8.944  11.870  0.00  0.00    +0.000 A 
ATOM     15  H   UNL     1      51.859   6.784  11.857  0.00  0.00    +0.000 HD
ENDBRANCH   2   5
BRANCH   3  16
ATOM     16  C   UNL     1      45.331   6.849  12.822  0.00  0.00    +0.000 C 
BRANCH  16  17
ATOM     17  C   UNL     1      45.016   5.658  11.968  0.00  0.00    +0.000 A 
ATOM     18  C   UNL     1      44.109   5.741  10.912  0.00  0.00    +0.000 A 
ATOM     19  C   UNL     1      43.885   4.632  10.101  0.00  0.00    +0.000 A 
ATOM     20  C   UNL     1      44.562   3.446  10.378  0.00  0.00    +0.000 A 
ATOM     21  N   UNL     1      45.413   3.326  11.431  0.00  0.00    +0.000 NA
ATOM     22  C   UNL     1      45.614   4.424  12.197  0.00  0.00    +0.000 A 
BRANCH  20  23
ATOM     23  C   UNL     1      44.425   2.254   9.459  0.00  0.00    +0.000 C 
BRANCH  23  24
ATOM     24  C   UNL     1      45.518   2.187   8.415  0.00  0.00    +0.000 A 
ATOM     25  C   UNL     1      45.819   3.303   7.634  0.00  0.00    +0.000 A 
ATOM     26  C   UNL     1      46.780   3.191   6.633  0.00  0.00    +0.000 A 
ATOM     27  C   UNL     1      47.434   1.979   6.453  0.00  0.00    +0.000 A 
ATOM     28  C   UNL     1      47.104   0.929   7.293  0.00  0.00    +0.000 A 
ATOM     29  N   UNL     1      46.165   1.002   8.264  0.00  0.00    +0.000 NA
ENDBRANCH  23  24
ENDBRANCH  20  23
ENDBRANCH  16  17
ENDBRANCH   3  16
TORSDOF 5
ENDMDL
MODEL 4
REMARK VINA RESULT:    -7.552      1.208      1.590
REMARK INTER + INTRA:         -10.343
REMARK INTER:                  -9.584
REMARK INTRA:                  -0.759
REMARK UNBOUND:                -0.583
REMARK  Name = 
REMARK  5 active torsions:
REMARK  status: ('A' for Active; 'I' for Inactive)
REMARK    1  A    between atoms: C_2  and  C_18
REMARK    2  A    between atoms: N_3  and  C_4
REMARK    3  A    between atoms: C_4  and  C_5
REMARK    4  A    between atoms: C_8  and  C_9
REMARK    5  A    between atoms: C_9  and  C_10
REMARK                            x       y       z     vdW  Elec       q    Type
REMARK                         _______ _______ _______ _____ _____    ______ ____
ROOT
ATOM      1  O   UNL     1      49.987   7.169  14.622  0.00  0.00    +0.000 OA
ATOM      2  C   UNL     1      49.009   6.838  15.288  0.00  0.00    +0.000 C 
ATOM      3  N   UNL     1      47.724   6.994  14.837  0.00  0.00    +0.000 N 
ATOM      4  H   UNL     1      46.955   6.866  15.484  0.00  0.00    +0.000 HD
ENDROOT
BRANCH   2   5
ATOM      5  C   UNL     1      49.158   6.201  16.602  0.00  0.00    +0.000 A 
ATOM      6  C   UNL     1      49.845   6.857  17.613  0.00  0.00    +0.000 A 
ATOM      7  S   UNL     1      49.905   5.981  19.075  0.00  0.00    +0.000 S 
ATOM      8  C   UNL     1      48.980   4.712  18.416  0.00  0.00    +0.000 A 
ATOM      9  N   UNL     1      48.619   3.641  19.172  0.00  0.00    +0.000 NA
ATOM     10  C   UNL     1      47.884   2.773  18.556  0.00  0.00    +0.000 A 
ATOM     11  N   UNL     1      47.492   2.876  17.246  0.00  0.00    +0.000 N 
ATOM     12  C   UNL     1      47.901   3.896  16.425  0.00  0.00    +0.000 A 
ATOM     13  O   UNL     1      47.667   3.874  15.219  0.00  0.00    +0.000 OA
ATOM     14  C   UNL     1      48.670   4.933  17.086  0.00  0.00    +0.000 A 
ATOM     15  H   UNL     1      46.950   2.142  16.814  0.00  0.00    +0.000 HD
ENDBRANCH   2   5
BRANCH   3  16
ATOM     16  C   UNL     1      47.415   7.643  13.590  0.00  0.00    +0.000 C 
BRANCH  16  17
ATOM     17  C   UNL     1      46.665   6.738  12.660  0.00  0.00    +0.000 A 
ATOM     18  C   UNL     1      46.274   5.458  13.052  0.00  0.00    +0.000 A 
ATOM     19  C   UNL     1      45.526   4.665  12.185  0.00  0.00    +0.000 A 
ATOM     20  C   UNL     1      45.201   5.165  10.925  0.00  0.00    +0.000 A 
ATOM     21  N   UNL     1      45.613   6.390  10.503  0.00  0.00    +0.000 NA
ATOM     22  C   UNL     1      46.333   7.138  11.371  0.00  0.00    +0.000 A 
BRANCH  20  23
ATOM     23  C   UNL     1      44.304   4.378   9.998  0.00  0.00    +0.000 C 
BRANCH  23  24
ATOM     24  C   UNL     1      45.076   3.559   8.987  0.00  0.00    +0.000 A 
ATOM     25  C   UNL     1      45.246   2.186   9.171  0.00  0.00    +0.000 A 
ATOM     26  C   UNL     1      46.022   1.472   8.262  0.00  0.00    +0.000 A 
ATOM     27  C   UNL     1      46.587   2.137   7.182  0.00  0.00    +0.000 A 
ATOM     28  C   UNL     1      46.340   3.493   7.050  0.00  0.00    +0.000 A 
ATOM     29  N   UNL     1      45.605   4.217   7.923  0.00  0.00    +0.000 NA
ENDBRANCH  23  24
ENDBRANCH  20  23
ENDBRANCH  16  17
ENDBRANCH   3  16
TORSDOF 5
ENDMDL
MODEL 5
REMARK VINA RESULT:    -7.541      4.016      6.079
REMARK INTER + INTRA:         -10.329
REMARK INTER:                  -9.616
REMARK INTRA:                  -0.713
REMARK UNBOUND:                -0.583
REMARK  Name = 
REMARK  5 active torsions:
REMARK  status: ('A' for Active; 'I' for Inactive)
REMARK    1  A    between atoms: C_2  and  C_18
REMARK    2  A    between atoms: N_3  and  C_4
REMARK    3  A    between atoms: C_4  and  C_5
REMARK    4  A    between atoms: C_8  and  C_9
REMARK    5  A    between atoms: C_9  and  C_10
REMARK                            x       y       z     vdW  Elec       q    Type
REMARK                         _______ _______ _______ _____ _____    ______ ____
ROOT
ATOM      1  O   UNL     1      46.816   7.700  12.007  0.00  0.00    +0.000 OA
ATOM      2  C   UNL     1      45.729   8.258  12.121  0.00  0.00    +0.000 C 
ATOM      3  N   UNL     1      44.665   7.675  12.761  0.00  0.00    +0.000 N 
ATOM      4  H   UNL     1      43.748   8.099  12.680  0.00  0.00    +0.000 HD
ENDROOT
BRANCH   2   5
ATOM      5  C   UNL     1      45.510   9.618  11.616  0.00  0.00    +0.000 A 
ATOM      6  C   UNL     1      46.501  10.578  11.766  0.00  0.00    +0.000 A 
ATOM      7  S   UNL     1      46.085  12.095  11.107  0.00  0.00    +0.000 S 
ATOM      8  C   UNL     1      44.582  11.509  10.564  0.00  0.00    +0.000 A 
ATOM      9  N   UNL     1      43.731  12.303   9.860  0.00  0.00    +0.000 NA
ATOM     10  C   UNL     1      42.644  11.716   9.476  0.00  0.00    +0.000 A 
ATOM     11  N   UNL     1      42.326  10.410   9.749  0.00  0.00    +0.000 N 
ATOM     12  C   UNL     1      43.115   9.599  10.525  0.00  0.00    +0.000 A 
ATOM     13  O   UNL     1      42.728   8.490  10.884  0.00  0.00    +0.000 OA
ATOM     14  C   UNL     1      44.381  10.188  10.922  0.00  0.00    +0.000 A 
ATOM     15  H   UNL     1      41.442  10.025   9.453  0.00  0.00    +0.000 HD
ENDBRANCH   2   5
BRANCH   3  16
ATOM     16  C   UNL     1      44.709   6.329  13.267  0.00  0.00    +0.000 C 
BRANCH  16  17
ATOM     17  C   UNL     1      44.702   5.316  12.162  0.00  0.00    +0.000 A 
ATOM     18  C   UNL     1      45.465   4.151  12.242  0.00  0.00    +0.000 A 
ATOM     19  C   UNL     1      45.389   3.202  11.225  0.00  0.00    +0.000 A 
ATOM     20  C   UNL     1      44.563   3.450  10.132  0.00  0.00    +0.000 A 
ATOM     21  N   UNL     1      43.848   4.599  10.008  0.00  0.00    +0.000 NA
ATOM     22  C   UNL     1      43.939   5.499  11.016  0.00  0.00    +0.000 A 
BRANCH  20  23
ATOM     23  C   UNL     1      44.374   2.399   9.061  0.00  0.00    +0.000 C 
BRANCH  23  24
ATOM     24  C   UNL     1      45.571   2.270   8.146  0.00  0.00    +0.000 A 
ATOM     25  C   UNL     1      45.901   3.299   7.264  0.00  0.00    +0.000 A 
ATOM     26  C   UNL     1      46.965   3.122   6.383  0.00  0.00    +0.000 A 
ATOM     27  C   UNL     1      47.688   1.937   6.422  0.00  0.00    +0.000 A 
ATOM     28  C   UNL     1      47.320   0.979   7.351  0.00  0.00    +0.000 A 
ATOM     29  N   UNL     1      46.283   1.115   8.208  0.00  0.00    +0.000 NA
ENDBRANCH  23  24
ENDBRANCH  20  23
ENDBRANCH  16  17
ENDBRANCH   3  16
TORSDOF 5
ENDMDL
MODEL 6
REMARK VINA RESULT:    -7.487      2.546      3.520
REMARK INTER + INTRA:         -10.258
REMARK INTER:                  -9.377
REMARK INTRA:                  -0.881
REMARK UNBOUND:                -0.583
REMARK  Name = 
REMARK  5 active torsions:
REMARK  status: ('A' for Active; 'I' for Inactive)
REMARK    1  A    between atoms: C_2  and  C_18
REMARK    2  A    between atoms: N_3  and  C_4
REMARK    3  A    between atoms: C_4  and  C_5
REMARK    4  A    between atoms: C_8  and  C_9
REMARK    5  A    between atoms: C_9  and  C_10
REMARK                            x       y       z     vdW  Elec       q    Type
REMARK                         _______ _______ _______ _____ _____    ______ ____
ROOT
ATOM      1  O   UNL     1      50.412   6.156  16.073  0.00  0.00    +0.000 OA
ATOM      2  C   UNL     1      49.239   6.321  16.395  0.00  0.00    +0.000 C 
ATOM      3  N   UNL     1      48.255   6.590  15.479  0.00  0.00    +0.000 N 
ATOM      4  H   UNL     1      47.343   6.885  15.807  0.00  0.00    +0.000 HD
ENDROOT
BRANCH   2   5
ATOM      5  C   UNL     1      48.803   6.192  17.790  0.00  0.00    +0.000 A 
ATOM      6  C   UNL     1      48.952   4.982  18.451  0.00  0.00    +0.000 A 
ATOM      7  S   UNL     1      48.409   5.017  20.068  0.00  0.00    +0.000 S 
ATOM      8  C   UNL     1      47.992   6.663  19.949  0.00  0.00    +0.000 A 
ATOM      9  N   UNL     1      47.502   7.343  21.021  0.00  0.00    +0.000 NA
ATOM     10  C   UNL     1      47.266   8.595  20.799  0.00  0.00    +0.000 A 
ATOM     11  N   UNL     1      47.461   9.223  19.597  0.00  0.00    +0.000 N 
ATOM     12  C   UNL     1      47.874   8.559  18.469  0.00  0.00    +0.000 A 
ATOM     13  O   UNL     1      47.884   9.113  17.373  0.00  0.00    +0.000 OA
ATOM     14  C   UNL     1      48.220   7.166  18.681  0.00  0.00    +0.000 A 
ATOM     15  H   UNL     1      47.219  10.196  19.481  0.00  0.00    +0.000 HD
ENDBRANCH   2   5
BRANCH   3  16
ATOM     16  C   UNL     1      48.533   6.792  14.081  0.00  0.00    +0.000 C 
BRANCH  16  17
ATOM     17  C   UNL     1      47.397   6.340  13.215  0.00  0.00    +0.000 A 
ATOM     18  C   UNL     1      46.846   7.179  12.245  0.00  0.00    +0.000 A 
ATOM     19  C   UNL     1      45.831   6.708  11.415  0.00  0.00    +0.000 A 
ATOM     20  C   UNL     1      45.369   5.405  11.590  0.00  0.00    +0.000 A 
ATOM     21  N   UNL     1      45.854   4.586  12.560  0.00  0.00    +0.000 NA
ATOM     22  C   UNL     1      46.844   5.072  13.345  0.00  0.00    +0.000 A 
BRANCH  20  23
ATOM     23  C   UNL     1      44.343   4.825  10.642  0.00  0.00    +0.000 C 
BRANCH  23  24
ATOM     24  C   UNL     1      44.961   3.967   9.561  0.00  0.00    +0.000 A 
ATOM     25  C   UNL     1      44.931   2.575   9.657  0.00  0.00    +0.000 A 
ATOM     26  C   UNL     1      45.571   1.814   8.683  0.00  0.00    +0.000 A 
ATOM     27  C   UNL     1      46.202   2.456   7.626  0.00  0.00    +0.000 A 
ATOM     28  C   UNL     1      46.157   3.839   7.583  0.00  0.00    +0.000 A 
ATOM     29  N   UNL     1      45.557   4.607   8.521  0.00  0.00    +0.000 NA
ENDBRANCH  23  24
ENDBRANCH  20  23
ENDBRANCH  16  17
ENDBRANCH   3  16
TORSDOF 5
ENDMDL
MODEL 7
REMARK VINA RESULT:    -7.425      2.128      2.989
REMARK INTER + INTRA:         -10.179
REMARK INTER:                  -9.750
REMARK INTRA:                  -0.428
REMARK UNBOUND:                -0.583
REMARK  Name = 
REMARK  5 active torsions:
REMARK  status: ('A' for Active; 'I' for Inactive)
REMARK    1  A    between atoms: C_2  and  C_18
REMARK    2  A    between atoms: N_3  and  C_4
REMARK    3  A    between atoms: C_4  and  C_5
REMARK    4  A    between atoms: C_8  and  C_9
REMARK    5  A    between atoms: C_9  and  C_10
REMARK                            x       y       z     vdW  Elec       q    Type
REMARK                         _______ _______ _______ _____ _____    ______ ____
ROOT
ATOM      1  O   UNL     1      50.224   5.974  16.188  0.00  0.00    +0.000 OA
ATOM      2  C   UNL     1      49.181   6.592  16.383  0.00  0.00    +0.000 C 
ATOM      3  N   UNL     1      48.375   7.018  15.359  0.00  0.00    +0.000 N 
ATOM      4  H   UNL     1      47.623   7.667  15.560  0.00  0.00    +0.000 HD
ENDROOT
BRANCH   2   5
ATOM      5  C   UNL     1      48.702   6.876  17.740  0.00  0.00    +0.000 A 
ATOM      6  C   UNL     1      48.213   8.136  18.051  0.00  0.00    +0.000 A 
ATOM      7  S   UNL     1      47.683   8.282  19.666  0.00  0.00    +0.000 S 
ATOM      8  C   UNL     1      48.053   6.653  19.992  0.00  0.00    +0.000 A 
ATOM      9  N   UNL     1      47.791   6.103  21.209  0.00  0.00    +0.000 NA
ATOM     10  C   UNL     1      48.086   4.848  21.304  0.00  0.00    +0.000 A 
ATOM     11  N   UNL     1      48.634   4.097  20.296  0.00  0.00    +0.000 N 
ATOM     12  C   UNL     1      48.990   4.630  19.083  0.00  0.00    +0.000 A 
ATOM     13  O   UNL     1      49.625   3.972  18.261  0.00  0.00    +0.000 OA
ATOM     14  C   UNL     1      48.616   6.020  18.899  0.00  0.00    +0.000 A 
ATOM     15  H   UNL     1      48.876   3.130  20.449  0.00  0.00    +0.000 HD
ENDBRANCH   2   5
BRANCH   3  16
ATOM     16  C   UNL     1      48.733   6.857  13.974  0.00  0.00    +0.000 C 
BRANCH  16  17
ATOM     17  C   UNL     1      47.574   6.385  13.149  0.00  0.00    +0.000 A 
ATOM     18  C   UNL     1      47.068   7.154  12.101  0.00  0.00    +0.000 A 
ATOM     19  C   UNL     1      46.030   6.661  11.315  0.00  0.00    +0.000 A 
ATOM     20  C   UNL     1      45.499   5.407  11.611  0.00  0.00    +0.000 A 
ATOM     21  N   UNL     1      45.941   4.660  12.657  0.00  0.00    +0.000 NA
ATOM     22  C   UNL     1      46.955   5.165  13.398  0.00  0.00    +0.000 A 
BRANCH  20  23
ATOM     23  C   UNL     1      44.444   4.793  10.719  0.00  0.00    +0.000 C 
BRANCH  23  24
ATOM     24  C   UNL     1      45.032   3.958   9.603  0.00  0.00    +0.000 A 
ATOM     25  C   UNL     1      44.971   2.565   9.654  0.00  0.00    +0.000 A 
ATOM     26  C   UNL     1      45.583   1.822   8.648  0.00  0.00    +0.000 A 
ATOM     27  C   UNL     1      46.218   2.484   7.606  0.00  0.00    +0.000 A 
ATOM     28  C   UNL     1      46.203   3.868   7.609  0.00  0.00    +0.000 A 
ATOM     29  N   UNL     1      45.631   4.618   8.578  0.00  0.00    +0.000 NA
ENDBRANCH  23  24
ENDBRANCH  20  23
ENDBRANCH  16  17
ENDBRANCH   3  16
TORSDOF 5
ENDMDL
MODEL 8
REMARK VINA RESULT:    -7.327      1.431      2.210
REMARK INTER + INTRA:         -10.052
REMARK INTER:                  -9.487
REMARK INTRA:                  -0.565
REMARK UNBOUND:                -0.583
REMARK  Name = 
REMARK  5 active torsions:
REMARK  status: ('A' for Active; 'I' for Inactive)
REMARK    1  A    between atoms: C_2  and  C_18
REMARK    2  A    between atoms: N_3  and  C_4
REMARK    3  A    between atoms: C_4  and  C_5
REMARK    4  A    between atoms: C_8  and  C_9
REMARK    5  A    between atoms: C_9  and  C_10
REMARK                            x       y       z     vdW  Elec       q    Type
REMARK                         _______ _______ _______ _____ _____    ______ ____
ROOT
ATOM      1  O   UNL     1      48.849   6.540  13.389  0.00  0.00    +0.000 OA
ATOM      2  C   UNL     1      47.977   6.322  14.225  0.00  0.00    +0.000 C 
ATOM      3  N   UNL     1      46.645   6.524  13.970  0.00  0.00    +0.000 N 
ATOM      4  H   UNL     1      45.985   6.495  14.738  0.00  0.00    +0.000 HD
ENDROOT
BRANCH   2   5
ATOM      5  C   UNL     1      48.303   5.780  15.549  0.00  0.00    +0.000 A 
ATOM      6  C   UNL     1      47.682   4.623  15.994  0.00  0.00    +0.000 A 
ATOM      7  S   UNL     1      48.194   4.128  17.544  0.00  0.00    +0.000 S 
ATOM      8  C   UNL     1      49.293   5.423  17.655  0.00  0.00    +0.000 A 
ATOM      9  N   UNL     1      50.106   5.563  18.736  0.00  0.00    +0.000 NA
ATOM     10  C   UNL     1      50.919   6.567  18.669  0.00  0.00    +0.000 A 
ATOM     11  N   UNL     1      50.978   7.452  17.624  0.00  0.00    +0.000 N 
ATOM     12  C   UNL     1      50.121   7.397  16.554  0.00  0.00    +0.000 A 
ATOM     13  O   UNL     1      50.092   8.295  15.716  0.00  0.00    +0.000 OA
ATOM     14  C   UNL     1      49.237   6.247  16.546  0.00  0.00    +0.000 A 
ATOM     15  H   UNL     1      51.610   8.239  17.653  0.00  0.00    +0.000 HD
ENDBRANCH   2   5
BRANCH   3  16
ATOM     16  C   UNL     1      46.171   7.094  12.736  0.00  0.00    +0.000 C 
BRANCH  16  17
ATOM     17  C   UNL     1      45.760   6.039  11.754  0.00  0.00    +0.000 A 
ATOM     18  C   UNL     1      44.973   4.954  12.142  0.00  0.00    +0.000 A 
ATOM     19  C   UNL     1      44.558   4.023  11.192  0.00  0.00    +0.000 A 
ATOM     20  C   UNL     1      44.962   4.186   9.869  0.00  0.00    +0.000 A 
ATOM     21  N   UNL     1      45.769   5.207   9.476  0.00  0.00    +0.000 NA
ATOM     22  C   UNL     1      46.149   6.097  10.421  0.00  0.00    +0.000 A 
BRANCH  20  23
ATOM     23  C   UNL     1      44.447   3.257   8.793  0.00  0.00    +0.000 C 
BRANCH  23  24
ATOM     24  C   UNL     1      45.556   2.628   7.978  0.00  0.00    +0.000 A 
ATOM     25  C   UNL     1      46.033   3.257   6.828  0.00  0.00    +0.000 A 
ATOM     26  C   UNL     1      47.004   2.619   6.060  0.00  0.00    +0.000 A 
ATOM     27  C   UNL     1      47.492   1.386   6.471  0.00  0.00    +0.000 A 
ATOM     28  C   UNL     1      46.993   0.845   7.643  0.00  0.00    +0.000 A 
ATOM     29  N   UNL     1      46.040   1.432   8.402  0.00  0.00    +0.000 NA
ENDBRANCH  23  24
ENDBRANCH  20  23
ENDBRANCH  16  17
ENDBRANCH   3  16
TORSDOF 5
ENDMDL
MODEL 9
REMARK VINA RESULT:    -7.264      2.882      4.206
REMARK INTER + INTRA:          -9.970
REMARK INTER:                  -9.412
REMARK INTRA:                  -0.558
REMARK UNBOUND:                -0.583
REMARK  Name = 
REMARK  5 active torsions:
REMARK  status: ('A' for Active; 'I' for Inactive)
REMARK    1  A    between atoms: C_2  and  C_18
REMARK    2  A    between atoms: N_3  and  C_4
REMARK    3  A    between atoms: C_4  and  C_5
REMARK    4  A    between atoms: C_8  and  C_9
REMARK    5  A    between atoms: C_9  and  C_10
REMARK                            x       y       z     vdW  Elec       q    Type
REMARK                         _______ _______ _______ _____ _____    ______ ____
ROOT
ATOM      1  O   UNL     1      48.742   5.904  12.958  0.00  0.00    +0.000 OA
ATOM      2  C   UNL     1      47.957   6.812  13.212  0.00  0.00    +0.000 C 
ATOM      3  N   UNL     1      46.685   6.580  13.669  0.00  0.00    +0.000 N 
ATOM      4  H   UNL     1      46.024   7.348  13.700  0.00  0.00    +0.000 HD
ENDROOT
BRANCH   2   5
ATOM      5  C   UNL     1      48.350   8.221  13.089  0.00  0.00    +0.000 A 
ATOM      6  C   UNL     1      47.688   9.047  12.192  0.00  0.00    +0.000 A 
ATOM      7  S   UNL     1      48.262  10.653  12.193  0.00  0.00    +0.000 S 
ATOM      8  C   UNL     1      49.389  10.307  13.421  0.00  0.00    +0.000 A 
ATOM      9  N   UNL     1      50.189  11.280  13.935  0.00  0.00    +0.000 NA
ATOM     10  C   UNL     1      50.968  10.885  14.889  0.00  0.00    +0.000 A 
ATOM     11  N   UNL     1      51.029   9.600  15.363  0.00  0.00    +0.000 N 
ATOM     12  C   UNL     1      50.302   8.571  14.819  0.00  0.00    +0.000 A 
ATOM     13  O   UNL     1      50.498   7.406  15.156  0.00  0.00    +0.000 OA
ATOM     14  C   UNL     1      49.360   8.974  13.792  0.00  0.00    +0.000 A 
ATOM     15  H   UNL     1      51.689   9.350  16.085  0.00  0.00    +0.000 HD
ENDBRANCH   2   5
BRANCH   3  16
ATOM     16  C   UNL     1      46.139   5.255  13.797  0.00  0.00    +0.000 C 
BRANCH  16  17
ATOM     17  C   UNL     1      45.630   4.731  12.488  0.00  0.00    +0.000 A 
ATOM     18  C   UNL     1      45.551   5.549  11.360  0.00  0.00    +0.000 A 
ATOM     19  C   UNL     1      45.131   5.016  10.145  0.00  0.00    +0.000 A 
ATOM     20  C   UNL     1      44.773   3.670  10.087  0.00  0.00    +0.000 A 
ATOM     21  N   UNL     1      44.794   2.866  11.182  0.00  0.00    +0.000 NA
ATOM     22  C   UNL     1      45.214   3.413  12.347  0.00  0.00    +0.000 A 
BRANCH  20  23
ATOM     23  C   UNL     1      44.413   3.031   8.765  0.00  0.00    +0.000 C 
BRANCH  23  24
ATOM     24  C   UNL     1      45.622   2.738   7.905  0.00  0.00    +0.000 A 
ATOM     25  C   UNL     1      46.295   1.521   8.019  0.00  0.00    +0.000 A 
ATOM     26  C   UNL     1      47.446   1.309   7.266  0.00  0.00    +0.000 A 
ATOM     27  C   UNL     1      47.883   2.303   6.401  0.00  0.00    +0.000 A 
ATOM     28  C   UNL     1      47.140   3.468   6.317  0.00  0.00    +0.000 A 
ATOM     29  N   UNL     1      46.027   3.710   7.046  0.00  0.00    +0.000 NA
ENDBRANCH  23  24
ENDBRANCH  20  23
ENDBRANCH  16  17
ENDBRANCH   3  16
TORSDOF 5
ENDMDL
