MODEL 1
REMARK VINA RESULT:    -8.250      0.000      0.000
REMARK INTER + INTRA:         -12.845
REMARK INTER:                 -12.108
REMARK INTRA:                  -0.737
REMARK UNBOUND:                -0.737
REMARK  Name = 
REMARK  9 active torsions:
REMARK  status: ('A' for Active; 'I' for Inactive)
REMARK    1  A    between atoms: C_2  and  C_23
REMARK    2  A    between atoms: N_3  and  CA_4
REMARK    3  A    between atoms: CA_4  and  C_5
REMARK    4  A    between atoms: CA_4  and  C_7
REMARK    5  A    between atoms: C_5  and  O_6
REMARK    6  A    between atoms: N_11  and  C_12
REMARK    7  A    between atoms: C_12  and  C_13
REMARK    8  A    between atoms: C_13  and  O_14
REMARK    9  A    between atoms: C_13  and  C_15
REMARK                            x       y       z     vdW  Elec       q    Type
REMARK                         _______ _______ _______ _____ _____    ______ ____
ROOT
ATOM      1  CA  UNL     1      44.208   5.315  12.095  0.00  0.00    +0.000 C 
ENDROOT
BRANCH   1   2
ATOM      2  C   UNL     1      45.335   6.112  12.725  0.00  0.00    +0.000 A 
ATOM      3  C   UNL     1      45.465   7.499  12.602  0.00  0.00    +0.000 A 
ATOM      4  C   UNL     1      46.554   8.156  13.176  0.00  0.00    +0.000 A 
ATOM      5  C   UNL     1      47.537   7.421  13.821  0.00  0.00    +0.000 A 
ATOM      6  N   UNL     1      48.670   8.108  14.262  0.00  0.00    +0.000 N 
ATOM      7  N   UNL     1      47.449   6.083  13.935  0.00  0.00    +0.000 NA
ATOM      8  C   UNL     1      46.364   5.464  13.403  0.00  0.00    +0.000 A 
ATOM      9  H   UNL     1      48.428   8.817  14.952  0.00  0.00    +0.000 HD
BRANCH   6  10
ATOM     10  C   UNL     1      49.790   7.278  14.708  0.00  0.00    +0.000 C 
BRANCH  10  11
ATOM     11  C   UNL     1      49.957   7.453  16.229  0.00  0.00    +0.000 C 
BRANCH  11  12
ATOM     12  C   UNL     1      49.426   6.241  16.967  0.00  0.00    +0.000 A 
ATOM     13  C   UNL     1      48.264   6.337  17.731  0.00  0.00    +0.000 A 
ATOM     14  C   UNL     1      47.814   5.209  18.408  0.00  0.00    +0.000 A 
ATOM     15  C   UNL     1      48.531   4.023  18.306  0.00  0.00    +0.000 A 
ATOM     16  C   UNL     1      49.676   4.012  17.527  0.00  0.00    +0.000 A 
ATOM     17  N   UNL     1      50.142   5.089  16.857  0.00  0.00    +0.000 NA
ENDBRANCH  11  12
BRANCH  11  18
ATOM     18  O   UNL     1      49.246   8.638  16.638  0.00  0.00    +0.000 OA
ATOM     19  H   UNL     1      49.922   9.347  16.610  0.00  0.00    +0.000 HD
ENDBRANCH  11  18
ENDBRANCH  10  11
ENDBRANCH   6  10
ENDBRANCH   1   2
BRANCH   1  22
ATOM     20  O   UNL     1      45.653   5.581   9.569  0.00  0.00    +0.000 OA
ATOM     21  C   UNL     1      45.306   4.480  10.002  0.00  0.00    +0.000 C 
ATOM     22  N   UNL     1      44.789   4.271  11.259  0.00  0.00    +0.000 N 
ATOM     23  H   UNL     1      44.393   3.360  11.430  0.00  0.00    +0.000 HD
BRANCH  21  24
ATOM     24  C   UNL     1      45.162   3.286   9.181  0.00  0.00    +0.000 A 
ATOM     25  C   UNL     1      44.339   2.217   9.496  0.00  0.00    +0.000 A 
ATOM     26  N   UNL     1      44.922   1.100   8.952  0.00  0.00    +0.000 N 
ATOM     27  C   UNL     1      45.988   1.460   8.160  0.00  0.00    +0.000 A 
ATOM     28  C   UNL     1      46.960   0.699   7.528  0.00  0.00    +0.000 A 
ATOM     29  N   UNL     1      47.877   1.318   6.747  0.00  0.00    +0.000 NA
ATOM     30  C   UNL     1      47.813   2.658   6.588  0.00  0.00    +0.000 A 
ATOM     31  C   UNL     1      46.916   3.482   7.244  0.00  0.00    +0.000 A 
ATOM     32  C   UNL     1      46.003   2.850   8.105  0.00  0.00    +0.000 A 
ATOM     33  H   UNL     1      44.662   0.149   9.174  0.00  0.00    +0.000 HD
ENDBRANCH  21  24
ENDBRANCH   1  22
BRANCH   1  34
ATOM     34  C   UNL     1      43.273   6.173  11.213  0.00  0.00    +0.000 C 
BRANCH  34  35
ATOM     35  O   UNL     1      41.993   6.386  11.808  0.00  0.00    +0.000 OA
ATOM     36  H   UNL     1      41.910   5.773  12.558  0.00  0.00    +0.000 HD
ENDBRANCH  34  35
ENDBRANCH   1  34
TORSDOF 9
ENDMDL
MODEL 2
REMARK VINA RESULT:    -8.247      1.883      8.780
REMARK INTER + INTRA:         -12.842
REMARK INTER:                 -11.486
REMARK INTRA:                  -1.356
REMARK UNBOUND:                -0.737
REMARK  Name = 
REMARK  9 active torsions:
REMARK  status: ('A' for Active; 'I' for Inactive)
REMARK    1  A    between atoms: C_2  and  C_23
REMARK    2  A    between atoms: N_3  and  CA_4
REMARK    3  A    between atoms: CA_4  and  C_5
REMARK    4  A    between atoms: CA_4  and  C_7
REMARK    5  A    between atoms: C_5  and  O_6
REMARK    6  A    between atoms: N_11  and  C_12
REMARK    7  A    between atoms: C_12  and  C_13
REMARK    8  A    between atoms: C_13  and  O_14
REMARK    9  A    between atoms: C_13  and  C_15
REMARK                            x       y       z     vdW  Elec       q    Type
REMARK                         _______ _______ _______ _____ _____    ______ ____
ROOT
ATOM      1  CA  UNL     1      48.071   7.605  13.186  0.00  0.00    +0.000 C 
ENDROOT
BRANCH   1   2
ATOM      2  C   UNL     1      46.967   6.673  12.723  0.00  0.00    +0.000 A 
ATOM      3  C   UNL     1      46.196   5.893  13.592  0.00  0.00    +0.000 A 
ATOM      4  C   UNL     1      45.227   5.028  13.086  0.00  0.00    +0.000 A 
ATOM      5  C   UNL     1      45.067   4.901  11.714  0.00  0.00    +0.000 A 
ATOM      6  N   UNL     1      44.179   3.927  11.255  0.00  0.00    +0.000 N 
ATOM      7  N   UNL     1      45.811   5.622  10.854  0.00  0.00    +0.000 NA
ATOM      8  C   UNL     1      46.723   6.487  11.365  0.00  0.00    +0.000 A 
ATOM      9  H   UNL     1      43.229   4.111  11.577  0.00  0.00    +0.000 HD
BRANCH   6  10
ATOM     10  C   UNL     1      44.219   3.647   9.819  0.00  0.00    +0.000 C 
BRANCH  10  11
ATOM     11  C   UNL     1      44.896   2.281   9.603  0.00  0.00    +0.000 C 
BRANCH  11  12
ATOM     12  C   UNL     1      45.783   2.313   8.375  0.00  0.00    +0.000 A 
ATOM     13  C   UNL     1      45.835   3.454   7.575  0.00  0.00    +0.000 A 
ATOM     14  C   UNL     1      46.647   3.444   6.447  0.00  0.00    +0.000 A 
ATOM     15  C   UNL     1      47.381   2.302   6.148  0.00  0.00    +0.000 A 
ATOM     16  C   UNL     1      47.271   1.210   6.993  0.00  0.00    +0.000 A 
ATOM     17  N   UNL     1      46.491   1.186   8.097  0.00  0.00    +0.000 NA
ENDBRANCH  11  12
BRANCH  11  18
ATOM     18  O   UNL     1      43.873   1.277   9.456  0.00  0.00    +0.000 OA
ATOM     19  H   UNL     1      43.144   1.740   8.992  0.00  0.00    +0.000 HD
ENDBRANCH  11  18
ENDBRANCH  10  11
ENDBRANCH   6  10
ENDBRANCH   1   2
BRANCH   1  22
ATOM     20  O   UNL     1      50.262   6.940  15.003  0.00  0.00    +0.000 OA
ATOM     21  C   UNL     1      49.115   7.130  15.415  0.00  0.00    +0.000 C 
ATOM     22  N   UNL     1      48.086   7.619  14.643  0.00  0.00    +0.000 N 
ATOM     23  H   UNL     1      47.166   7.572  15.050  0.00  0.00    +0.000 HD
BRANCH  21  24
ATOM     24  C   UNL     1      48.614   6.645  16.693  0.00  0.00    +0.000 A 
ATOM     25  C   UNL     1      48.736   7.332  17.890  0.00  0.00    +0.000 A 
ATOM     26  N   UNL     1      48.796   6.384  18.881  0.00  0.00    +0.000 N 
ATOM     27  C   UNL     1      48.541   5.137  18.360  0.00  0.00    +0.000 A 
ATOM     28  C   UNL     1      48.628   3.872  18.922  0.00  0.00    +0.000 A 
ATOM     29  N   UNL     1      48.255   2.797  18.188  0.00  0.00    +0.000 NA
ATOM     30  C   UNL     1      47.788   2.984  16.934  0.00  0.00    +0.000 A 
ATOM     31  C   UNL     1      47.741   4.207  16.290  0.00  0.00    +0.000 A 
ATOM     32  C   UNL     1      48.189   5.317  17.026  0.00  0.00    +0.000 A 
ATOM     33  H   UNL     1      49.077   6.566  19.835  0.00  0.00    +0.000 HD
ENDBRANCH  21  24
ENDBRANCH   1  22
BRANCH   1  34
ATOM     34  C   UNL     1      47.890   9.058  12.692  0.00  0.00    +0.000 C 
BRANCH  34  35
ATOM     35  O   UNL     1      46.627   9.614  13.059  0.00  0.00    +0.000 OA
ATOM     36  H   UNL     1      46.583   9.632  14.030  0.00  0.00    +0.000 HD
ENDBRANCH  34  35
ENDBRANCH   1  34
TORSDOF 9
ENDMDL
MODEL 3
REMARK VINA RESULT:    -8.076      1.822      8.586
REMARK INTER + INTRA:         -12.591
REMARK INTER:                 -12.002
REMARK INTRA:                  -0.588
REMARK UNBOUND:                -0.737
REMARK  Name = 
REMARK  9 active torsions:
REMARK  status: ('A' for Active; 'I' for Inactive)
REMARK    1  A    between atoms: C_2  and  C_23
REMARK    2  A    between atoms: N_3  and  CA_4
REMARK    3  A    between atoms: CA_4  and  C_5
REMARK    4  A    between atoms: CA_4  and  C_7
REMARK    5  A    between atoms: C_5  and  O_6
REMARK    6  A    between atoms: N_11  and  C_12
REMARK    7  A    between atoms: C_12  and  C_13
REMARK    8  A    between atoms: C_13  and  O_14
REMARK    9  A    between atoms: C_13  and  C_15
REMARK                            x       y       z     vdW  Elec       q    Type
REMARK                         _______ _______ _______ _____ _____    ______ ____
ROOT
ATOM      1  CA  UNL     1      49.263   7.615  15.365  0.00  0.00    +0.000 C 
ENDROOT
BRANCH   1   2
ATOM      2  C   UNL     1      48.431   7.076  14.217  0.00  0.00    +0.000 A 
ATOM      3  C   UNL     1      48.339   7.699  12.968  0.00  0.00    +0.000 A 
ATOM      4  C   UNL     1      47.518   7.164  11.975  0.00  0.00    +0.000 A 
ATOM      5  C   UNL     1      46.749   6.042  12.250  0.00  0.00    +0.000 A 
ATOM      6  N   UNL     1      45.846   5.623  11.271  0.00  0.00    +0.000 N 
ATOM      7  N   UNL     1      46.801   5.436  13.451  0.00  0.00    +0.000 NA
ATOM      8  C   UNL     1      47.634   5.948  14.392  0.00  0.00    +0.000 A 
ATOM      9  H   UNL     1      46.327   5.363  10.411  0.00  0.00    +0.000 HD
BRANCH   6  10
ATOM     10  C   UNL     1      44.881   4.603  11.682  0.00  0.00    +0.000 C 
BRANCH  10  11
ATOM     11  C   UNL     1      44.031   4.210  10.460  0.00  0.00    +0.000 C 
BRANCH  11  12
ATOM     12  C   UNL     1      44.902   3.621   9.370  0.00  0.00    +0.000 A 
ATOM     13  C   UNL     1      45.106   2.243   9.301  0.00  0.00    +0.000 A 
ATOM     14  C   UNL     1      45.924   1.738   8.296  0.00  0.00    +0.000 A 
ATOM     15  C   UNL     1      46.514   2.614   7.394  0.00  0.00    +0.000 A 
ATOM     16  C   UNL     1      46.261   3.970   7.533  0.00  0.00    +0.000 A 
ATOM     17  N   UNL     1      45.472   4.495   8.497  0.00  0.00    +0.000 NA
ENDBRANCH  11  12
BRANCH  11  18
ATOM     18  O   UNL     1      43.348   5.384   9.976  0.00  0.00    +0.000 OA
ATOM     19  H   UNL     1      43.709   5.519   9.075  0.00  0.00    +0.000 HD
ENDBRANCH  11  18
ENDBRANCH  10  11
ENDBRANCH   6  10
ENDBRANCH   1   2
BRANCH   1  22
ATOM     20  O   UNL     1      50.810   7.612  17.845  0.00  0.00    +0.000 OA
ATOM     21  C   UNL     1      50.149   6.632  17.494  0.00  0.00    +0.000 C 
ATOM     22  N   UNL     1      49.263   6.632  16.441  0.00  0.00    +0.000 N 
ATOM     23  H   UNL     1      48.914   5.731  16.156  0.00  0.00    +0.000 HD
BRANCH  21  24
ATOM     24  C   UNL     1      50.378   5.276  17.973  0.00  0.00    +0.000 A 
ATOM     25  C   UNL     1      51.478   4.889  18.721  0.00  0.00    +0.000 A 
ATOM     26  N   UNL     1      51.713   3.571  18.420  0.00  0.00    +0.000 N 
ATOM     27  C   UNL     1      50.692   3.074  17.643  0.00  0.00    +0.000 A 
ATOM     28  C   UNL     1      50.549   1.865  16.979  0.00  0.00    +0.000 A 
ATOM     29  N   UNL     1      49.394   1.607  16.321  0.00  0.00    +0.000 NA
ATOM     30  C   UNL     1      48.402   2.523  16.343  0.00  0.00    +0.000 A 
ATOM     31  C   UNL     1      48.504   3.774  16.925  0.00  0.00    +0.000 A 
ATOM     32  C   UNL     1      49.725   4.071  17.553  0.00  0.00    +0.000 A 
ATOM     33  H   UNL     1      52.556   3.067  18.658  0.00  0.00    +0.000 HD
ENDBRANCH  21  24
ENDBRANCH   1  22
BRANCH   1  34
ATOM     34  C   UNL     1      48.727   8.950  15.932  0.00  0.00    +0.000 C 
BRANCH  34  35
ATOM     35  O   UNL     1      47.333   9.134  15.688  0.00  0.00    +0.000 OA
ATOM     36  H   UNL     1      46.992   9.745  16.363  0.00  0.00    +0.000 HD
ENDBRANCH  34  35
ENDBRANCH   1  34
TORSDOF 9
ENDMDL
MODEL 4
REMARK VINA RESULT:    -7.959      2.088      8.687
REMARK INTER + INTRA:         -12.418
REMARK INTER:                 -11.157
REMARK INTRA:                  -1.262
REMARK UNBOUND:                -0.737
REMARK  Name = 
REMARK  9 active torsions:
REMARK  status: ('A' for Active; 'I' for Inactive)
REMARK    1  A    between atoms: C_2  and  C_23
REMARK    2  A    between atoms: N_3  and  CA_4
REMARK    3  A    between atoms: CA_4  and  C_5
REMARK    4  A    between atoms: CA_4  and  C_7
REMARK    5  A    between atoms: C_5  and  O_6
REMARK    6  A    between atoms: N_11  and  C_12
REMARK    7  A    between atoms: C_12  and  C_13
REMARK    8  A    between atoms: C_13  and  O_14
REMARK    9  A    between atoms: C_13  and  C_15
REMARK                            x       y       z     vdW  Elec       q    Type
REMARK                         _______ _______ _______ _____ _____    ______ ____
ROOT
ATOM      1  CA  UNL     1      47.613   4.653  16.253  0.00  0.00    +0.000 C 
ENDROOT
BRANCH   1   2
ATOM      2  C   UNL     1      47.040   4.626  14.849  0.00  0.00    +0.000 A 
ATOM      3  C   UNL     1      46.655   5.773  14.147  0.00  0.00    +0.000 A 
ATOM      4  C   UNL     1      46.096   5.663  12.874  0.00  0.00    +0.000 A 
ATOM      5  C   UNL     1      45.870   4.407  12.328  0.00  0.00    +0.000 A 
ATOM      6  N   UNL     1      45.189   4.345  11.112  0.00  0.00    +0.000 N 
ATOM      7  N   UNL     1      46.210   3.286  12.991  0.00  0.00    +0.000 NA
ATOM      8  C   UNL     1      46.788   3.413  14.213  0.00  0.00    +0.000 A 
ATOM      9  H   UNL     1      45.704   4.823  10.374  0.00  0.00    +0.000 HD
BRANCH   6  10
ATOM     10  C   UNL     1      44.748   3.015  10.690  0.00  0.00    +0.000 C 
BRANCH  10  11
ATOM     11  C   UNL     1      44.381   3.069   9.196  0.00  0.00    +0.000 C 
BRANCH  11  12
ATOM     12  C   UNL     1      45.550   2.625   8.342  0.00  0.00    +0.000 A 
ATOM     13  C   UNL     1      46.195   3.535   7.505  0.00  0.00    +0.000 A 
ATOM     14  C   UNL     1      47.256   3.089   6.723  0.00  0.00    +0.000 A 
ATOM     15  C   UNL     1      47.641   1.756   6.796  0.00  0.00    +0.000 A 
ATOM     16  C   UNL     1      46.946   0.917   7.651  0.00  0.00    +0.000 A 
ATOM     17  N   UNL     1      45.912   1.316   8.424  0.00  0.00    +0.000 NA
ENDBRANCH  11  12
BRANCH  11  18
ATOM     18  O   UNL     1      44.003   4.420   8.862  0.00  0.00    +0.000 OA
ATOM     19  H   UNL     1      43.064   4.348   8.591  0.00  0.00    +0.000 HD
ENDBRANCH  11  18
ENDBRANCH  10  11
ENDBRANCH   6  10
ENDBRANCH   1   2
BRANCH   1  22
ATOM     20  O   UNL     1      48.500   7.297  17.130  0.00  0.00    +0.000 OA
ATOM     21  C   UNL     1      49.237   6.549  16.483  0.00  0.00    +0.000 C 
ATOM     22  N   UNL     1      48.949   5.234  16.199  0.00  0.00    +0.000 N 
ATOM     23  H   UNL     1      49.550   4.784  15.527  0.00  0.00    +0.000 HD
BRANCH  21  24
ATOM     24  C   UNL     1      50.394   6.999  15.723  0.00  0.00    +0.000 A 
ATOM     25  C   UNL     1      51.664   7.154  16.253  0.00  0.00    +0.000 A 
ATOM     26  N   UNL     1      52.269   8.156  15.536  0.00  0.00    +0.000 N 
ATOM     27  C   UNL     1      51.484   8.511  14.463  0.00  0.00    +0.000 A 
ATOM     28  C   UNL     1      51.593   9.548  13.550  0.00  0.00    +0.000 A 
ATOM     29  N   UNL     1      50.696   9.633  12.539  0.00  0.00    +0.000 NA
ATOM     30  C   UNL     1      49.730   8.695  12.432  0.00  0.00    +0.000 A 
ATOM     31  C   UNL     1      49.523   7.677  13.346  0.00  0.00    +0.000 A 
ATOM     32  C   UNL     1      50.412   7.625  14.433  0.00  0.00    +0.000 A 
ATOM     33  H   UNL     1      53.122   8.625  15.809  0.00  0.00    +0.000 HD
ENDBRANCH  21  24
ENDBRANCH   1  22
BRANCH   1  34
ATOM     34  C   UNL     1      47.724   3.251  16.894  0.00  0.00    +0.000 C 
BRANCH  34  35
ATOM     35  O   UNL     1      46.566   2.894  17.648  0.00  0.00    +0.000 OA
ATOM     36  H   UNL     1      46.291   3.677  18.155  0.00  0.00    +0.000 HD
ENDBRANCH  34  35
ENDBRANCH   1  34
TORSDOF 9
ENDMDL
MODEL 5
REMARK VINA RESULT:    -7.634      2.845      9.176
REMARK INTER + INTRA:         -11.942
REMARK INTER:                 -11.441
REMARK INTRA:                  -0.501
REMARK UNBOUND:                -0.737
REMARK  Name = 
REMARK  9 active torsions:
REMARK  status: ('A' for Active; 'I' for Inactive)
REMARK    1  A    between atoms: C_2  and  C_23
REMARK    2  A    between atoms: N_3  and  CA_4
REMARK    3  A    between atoms: CA_4  and  C_5
REMARK    4  A    between atoms: CA_4  and  C_7
REMARK    5  A    between atoms: C_5  and  O_6
REMARK    6  A    between atoms: N_11  and  C_12
REMARK    7  A    between atoms: C_12  and  C_13
REMARK    8  A    between atoms: C_13  and  O_14
REMARK    9  A    between atoms: C_13  and  C_15
REMARK                            x       y       z     vdW  Elec       q    Type
REMARK                         _______ _______ _______ _____ _____    ______ ____
ROOT
ATOM      1  CA  UNL     1      48.249   5.473  16.940  0.00  0.00    +0.000 C 
ENDROOT
BRANCH   1   2
ATOM      2  C   UNL     1      47.703   5.299  15.535  0.00  0.00    +0.000 A 
ATOM      3  C   UNL     1      47.959   6.192  14.489  0.00  0.00    +0.000 A 
ATOM      4  C   UNL     1      47.386   5.986  13.234  0.00  0.00    +0.000 A 
ATOM      5  C   UNL     1      46.515   4.923  13.042  0.00  0.00    +0.000 A 
ATOM      6  N   UNL     1      45.865   4.836  11.810  0.00  0.00    +0.000 N 
ATOM      7  N   UNL     1      46.232   4.062  14.038  0.00  0.00    +0.000 NA
ATOM      8  C   UNL     1      46.829   4.256  15.242  0.00  0.00    +0.000 A 
ATOM      9  H   UNL     1      46.531   4.723  11.047  0.00  0.00    +0.000 HD
BRANCH   6  10
ATOM     10  C   UNL     1      44.775   3.863  11.726  0.00  0.00    +0.000 C 
BRANCH  10  11
ATOM     11  C   UNL     1      44.109   3.989  10.344  0.00  0.00    +0.000 C 
BRANCH  11  12
ATOM     12  C   UNL     1      45.039   3.494   9.255  0.00  0.00    +0.000 A 
ATOM     13  C   UNL     1      45.297   2.130   9.118  0.00  0.00    +0.000 A 
ATOM     14  C   UNL     1      46.167   1.711   8.118  0.00  0.00    +0.000 A 
ATOM     15  C   UNL     1      46.755   2.657   7.287  0.00  0.00    +0.000 A 
ATOM     16  C   UNL     1      46.447   3.993   7.491  0.00  0.00    +0.000 A 
ATOM     17  N   UNL     1      45.606   4.434   8.453  0.00  0.00    +0.000 NA
ENDBRANCH  11  12
BRANCH  11  18
ATOM     18  O   UNL     1      43.768   5.372  10.120  0.00  0.00    +0.000 OA
ATOM     19  H   UNL     1      43.538   5.712  11.010  0.00  0.00    +0.000 HD
ENDBRANCH  11  18
ENDBRANCH  10  11
ENDBRANCH   6  10
ENDBRANCH   1   2
BRANCH   1  22
ATOM     20  O   UNL     1      49.336   2.761  16.879  0.00  0.00    +0.000 OA
ATOM     21  C   UNL     1      50.054   3.741  17.090  0.00  0.00    +0.000 C 
ATOM     22  N   UNL     1      49.642   5.046  16.954  0.00  0.00    +0.000 N 
ATOM     23  H   UNL     1      50.269   5.748  17.314  0.00  0.00    +0.000 HD
BRANCH  21  24
ATOM     24  C   UNL     1      51.354   3.676  17.742  0.00  0.00    +0.000 A 
ATOM     25  C   UNL     1      52.060   4.782  18.186  0.00  0.00    +0.000 A 
ATOM     26  N   UNL     1      53.391   4.458  18.101  0.00  0.00    +0.000 N 
ATOM     27  C   UNL     1      53.535   3.126  17.786  0.00  0.00    +0.000 A 
ATOM     28  C   UNL     1      54.654   2.377  17.455  0.00  0.00    +0.000 A 
ATOM     29  N   UNL     1      54.517   1.046  17.243  0.00  0.00    +0.000 NA
ATOM     30  C   UNL     1      53.299   0.478  17.377  0.00  0.00    +0.000 A 
ATOM     31  C   UNL     1      52.133   1.176  17.635  0.00  0.00    +0.000 A 
ATOM     32  C   UNL     1      52.261   2.567  17.792  0.00  0.00    +0.000 A 
ATOM     33  H   UNL     1      54.151   5.121  18.170  0.00  0.00    +0.000 HD
ENDBRANCH  21  24
ENDBRANCH   1  22
BRANCH   1  34
ATOM     34  C   UNL     1      47.481   4.648  17.998  0.00  0.00    +0.000 C 
BRANCH  34  35
ATOM     35  O   UNL     1      46.398   5.369  18.583  0.00  0.00    +0.000 OA
ATOM     36  H   UNL     1      45.657   5.352  17.955  0.00  0.00    +0.000 HD
ENDBRANCH  34  35
ENDBRANCH   1  34
TORSDOF 9
ENDMDL
MODEL 6
REMARK VINA RESULT:    -7.401      3.197     10.259
REMARK INTER + INTRA:         -11.599
REMARK INTER:                 -10.583
REMARK INTRA:                  -1.016
REMARK UNBOUND:                -0.737
REMARK  Name = 
REMARK  9 active torsions:
REMARK  status: ('A' for Active; 'I' for Inactive)
REMARK    1  A    between atoms: C_2  and  C_23
REMARK    2  A    between atoms: N_3  and  CA_4
REMARK    3  A    between atoms: CA_4  and  C_5
REMARK    4  A    between atoms: CA_4  and  C_7
REMARK    5  A    between atoms: C_5  and  O_6
REMARK    6  A    between atoms: N_11  and  C_12
REMARK    7  A    between atoms: C_12  and  C_13
REMARK    8  A    between atoms: C_13  and  O_14
REMARK    9  A    between atoms: C_13  and  C_15
REMARK                            x       y       z     vdW  Elec       q    Type
REMARK                         _______ _______ _______ _____ _____    ______ ____
ROOT
ATOM      1  CA  UNL     1      48.364   5.517  16.818  0.00  0.00    +0.000 C 
ENDROOT
BRANCH   1   2
ATOM      2  C   UNL     1      47.738   5.336  15.448  0.00  0.00    +0.000 A 
ATOM      3  C   UNL     1      47.923   6.231  14.388  0.00  0.00    +0.000 A 
ATOM      4  C   UNL     1      47.279   6.019  13.169  0.00  0.00    +0.000 A 
ATOM      5  C   UNL     1      46.408   4.948  13.029  0.00  0.00    +0.000 A 
ATOM      6  N   UNL     1      45.688   4.854  11.838  0.00  0.00    +0.000 N 
ATOM      7  N   UNL     1      46.194   4.085  14.040  0.00  0.00    +0.000 NA
ATOM      8  C   UNL     1      46.858   4.285  15.206  0.00  0.00    +0.000 A 
ATOM      9  H   UNL     1      46.309   4.747  11.037  0.00  0.00    +0.000 HD
BRANCH   6  10
ATOM     10  C   UNL     1      44.605   3.870  11.818  0.00  0.00    +0.000 C 
BRANCH  10  11
ATOM     11  C   UNL     1      43.923   3.916  10.438  0.00  0.00    +0.000 C 
BRANCH  11  12
ATOM     12  C   UNL     1      44.889   3.490   9.351  0.00  0.00    +0.000 A 
ATOM     13  C   UNL     1      45.205   2.143   9.180  0.00  0.00    +0.000 A 
ATOM     14  C   UNL     1      46.107   1.789   8.182  0.00  0.00    +0.000 A 
ATOM     15  C   UNL     1      46.667   2.782   7.388  0.00  0.00    +0.000 A 
ATOM     16  C   UNL     1      46.301   4.097   7.625  0.00  0.00    +0.000 A 
ATOM     17  N   UNL     1      45.429   4.476   8.585  0.00  0.00    +0.000 NA
ENDBRANCH  11  12
BRANCH  11  18
ATOM     18  O   UNL     1      43.459   5.259  10.197  0.00  0.00    +0.000 OA
ATOM     19  H   UNL     1      42.934   5.189   9.372  0.00  0.00    +0.000 HD
ENDBRANCH  11  18
ENDBRANCH  10  11
ENDBRANCH   6  10
ENDBRANCH   1   2
BRANCH   1  22
ATOM     20  O   UNL     1      48.229   6.912  19.383  0.00  0.00    +0.000 OA
ATOM     21  C   UNL     1      48.241   7.525  18.313  0.00  0.00    +0.000 C 
ATOM     22  N   UNL     1      48.484   6.944  17.090  0.00  0.00    +0.000 N 
ATOM     23  H   UNL     1      48.303   7.518  16.282  0.00  0.00    +0.000 HD
BRANCH  21  24
ATOM     24  C   UNL     1      47.767   8.892  18.148  0.00  0.00    +0.000 A 
ATOM     25  C   UNL     1      47.909   9.632  16.986  0.00  0.00    +0.000 A 
ATOM     26  N   UNL     1      47.993  10.948  17.367  0.00  0.00    +0.000 N 
ATOM     27  C   UNL     1      47.732  11.069  18.712  0.00  0.00    +0.000 A 
ATOM     28  C   UNL     1      47.836  12.151  19.574  0.00  0.00    +0.000 A 
ATOM     29  N   UNL     1      47.452  12.005  20.864  0.00  0.00    +0.000 NA
ATOM     30  C   UNL     1      46.961  10.816  21.277  0.00  0.00    +0.000 A 
ATOM     31  C   UNL     1      46.896   9.680  20.490  0.00  0.00    +0.000 A 
ATOM     32  C   UNL     1      47.354   9.810  19.169  0.00  0.00    +0.000 A 
ATOM     33  H   UNL     1      48.292  11.704  16.765  0.00  0.00    +0.000 HD
ENDBRANCH  21  24
ENDBRANCH   1  22
BRANCH   1  34
ATOM     34  C   UNL     1      49.769   4.884  16.934  0.00  0.00    +0.000 C 
BRANCH  34  35
ATOM     35  O   UNL     1      49.747   3.462  16.818  0.00  0.00    +0.000 OA
ATOM     36  H   UNL     1      49.138   3.119  17.494  0.00  0.00    +0.000 HD
ENDBRANCH  34  35
ENDBRANCH   1  34
TORSDOF 9
ENDMDL
MODEL 7
REMARK VINA RESULT:    -7.094      3.093      5.014
REMARK INTER + INTRA:         -11.149
REMARK INTER:                  -9.430
REMARK INTRA:                  -1.719
REMARK UNBOUND:                -0.737
REMARK  Name = 
REMARK  9 active torsions:
REMARK  status: ('A' for Active; 'I' for Inactive)
REMARK    1  A    between atoms: C_2  and  C_23
REMARK    2  A    between atoms: N_3  and  CA_4
REMARK    3  A    between atoms: CA_4  and  C_5
REMARK    4  A    between atoms: CA_4  and  C_7
REMARK    5  A    between atoms: C_5  and  O_6
REMARK    6  A    between atoms: N_11  and  C_12
REMARK    7  A    between atoms: C_12  and  C_13
REMARK    8  A    between atoms: C_13  and  O_14
REMARK    9  A    between atoms: C_13  and  C_15
REMARK                            x       y       z     vdW  Elec       q    Type
REMARK                         _______ _______ _______ _____ _____    ______ ____
ROOT
ATOM      1  CA  UNL     1      48.823   8.118  13.496  0.00  0.00    +0.000 C 
ENDROOT
BRANCH   1   2
ATOM      2  C   UNL     1      49.252   7.825  14.921  0.00  0.00    +0.000 A 
ATOM      3  C   UNL     1      50.452   7.188  15.254  0.00  0.00    +0.000 A 
ATOM      4  C   UNL     1      50.756   6.915  16.588  0.00  0.00    +0.000 A 
ATOM      5  C   UNL     1      49.838   7.228  17.580  0.00  0.00    +0.000 A 
ATOM      6  N   UNL     1      50.130   6.817  18.881  0.00  0.00    +0.000 N 
ATOM      7  N   UNL     1      48.665   7.820  17.286  0.00  0.00    +0.000 NA
ATOM      8  C   UNL     1      48.403   8.113  15.987  0.00  0.00    +0.000 A 
ATOM      9  H   UNL     1      50.988   7.248  19.223  0.00  0.00    +0.000 HD
BRANCH   6  10
ATOM     10  C   UNL     1      49.040   6.935  19.851  0.00  0.00    +0.000 C 
BRANCH  10  11
ATOM     11  C   UNL     1      48.556   5.521  20.222  0.00  0.00    +0.000 C 
BRANCH  11  12
ATOM     12  C   UNL     1      48.441   4.655  18.984  0.00  0.00    +0.000 A 
ATOM     13  C   UNL     1      47.269   4.662  18.228  0.00  0.00    +0.000 A 
ATOM     14  C   UNL     1      47.192   3.843  17.106  0.00  0.00    +0.000 A 
ATOM     15  C   UNL     1      48.277   3.043  16.773  0.00  0.00    +0.000 A 
ATOM     16  C   UNL     1      49.403   3.093  17.578  0.00  0.00    +0.000 A 
ATOM     17  N   UNL     1      49.512   3.876  18.675  0.00  0.00    +0.000 NA
ENDBRANCH  11  12
BRANCH  11  18
ATOM     18  O   UNL     1      47.276   5.629  20.878  0.00  0.00    +0.000 OA
ATOM     19  H   UNL     1      47.412   5.195  21.746  0.00  0.00    +0.000 HD
ENDBRANCH  11  18
ENDBRANCH  10  11
ENDBRANCH   6  10
ENDBRANCH   1   2
BRANCH   1  22
ATOM     20  O   UNL     1      45.921   8.099  13.152  0.00  0.00    +0.000 OA
ATOM     21  C   UNL     1      46.589   7.066  13.066  0.00  0.00    +0.000 C 
ATOM     22  N   UNL     1      47.964   7.033  13.037  0.00  0.00    +0.000 N 
ATOM     23  H   UNL     1      48.387   6.124  13.132  0.00  0.00    +0.000 HD
BRANCH  21  24
ATOM     24  C   UNL     1      46.045   5.725  13.226  0.00  0.00    +0.000 A 
ATOM     25  C   UNL     1      46.770   4.639  13.687  0.00  0.00    +0.000 A 
ATOM     26  N   UNL     1      46.225   3.525  13.099  0.00  0.00    +0.000 N 
ATOM     27  C   UNL     1      45.075   3.861  12.423  0.00  0.00    +0.000 A 
ATOM     28  C   UNL     1      44.264   3.128  11.569  0.00  0.00    +0.000 A 
ATOM     29  N   UNL     1      43.138   3.698  11.078  0.00  0.00    +0.000 NA
ATOM     30  C   UNL     1      42.822   4.959  11.445  0.00  0.00    +0.000 A 
ATOM     31  C   UNL     1      43.619   5.768  12.235  0.00  0.00    +0.000 A 
ATOM     32  C   UNL     1      44.820   5.202  12.694  0.00  0.00    +0.000 A 
ATOM     33  H   UNL     1      46.656   2.610  13.088  0.00  0.00    +0.000 HD
ENDBRANCH  21  24
ENDBRANCH   1  22
BRANCH   1  34
ATOM     34  C   UNL     1      50.012   8.238  12.515  0.00  0.00    +0.000 C 
BRANCH  34  35
ATOM     35  O   UNL     1      50.285   7.019  11.824  0.00  0.00    +0.000 OA
ATOM     36  H   UNL     1      49.611   6.371  12.090  0.00  0.00    +0.000 HD
ENDBRANCH  34  35
ENDBRANCH   1  34
TORSDOF 9
ENDMDL
MODEL 8
REMARK VINA RESULT:    -7.074      2.659      4.326
REMARK INTER + INTRA:         -11.119
REMARK INTER:                  -9.820
REMARK INTRA:                  -1.299
REMARK UNBOUND:                -0.737
REMARK  Name = 
REMARK  9 active torsions:
REMARK  status: ('A' for Active; 'I' for Inactive)
REMARK    1  A    between atoms: C_2  and  C_23
REMARK    2  A    between atoms: N_3  and  CA_4
REMARK    3  A    between atoms: CA_4  and  C_5
REMARK    4  A    between atoms: CA_4  and  C_7
REMARK    5  A    between atoms: C_5  and  O_6
REMARK    6  A    between atoms: N_11  and  C_12
REMARK    7  A    between atoms: C_12  and  C_13
REMARK    8  A    between atoms: C_13  and  O_14
REMARK    9  A    between atoms: C_13  and  C_15
REMARK                            x       y       z     vdW  Elec       q    Type
REMARK                         _______ _______ _______ _____ _____    ______ ____
ROOT
ATOM      1  CA  UNL     1      47.650   6.600  13.589  0.00  0.00    +0.000 C 
ENDROOT
BRANCH   1   2
ATOM      2  C   UNL     1      47.813   5.784  14.858  0.00  0.00    +0.000 A 
ATOM      3  C   UNL     1      47.087   4.619  15.129  0.00  0.00    +0.000 A 
ATOM      4  C   UNL     1      47.263   3.947  16.339  0.00  0.00    +0.000 A 
ATOM      5  C   UNL     1      48.120   4.469  17.296  0.00  0.00    +0.000 A 
ATOM      6  N   UNL     1      48.162   3.835  18.539  0.00  0.00    +0.000 N 
ATOM      7  N   UNL     1      48.814   5.601  17.071  0.00  0.00    +0.000 NA
ATOM      8  C   UNL     1      48.659   6.221  15.874  0.00  0.00    +0.000 A 
ATOM      9  H   UNL     1      48.480   2.870  18.451  0.00  0.00    +0.000 HD
BRANCH   6  10
ATOM     10  C   UNL     1      48.876   4.547  19.599  0.00  0.00    +0.000 C 
BRANCH  10  11
ATOM     11  C   UNL     1      47.844   5.262  20.491  0.00  0.00    +0.000 C 
BRANCH  11  12
ATOM     12  C   UNL     1      48.246   6.705  20.721  0.00  0.00    +0.000 A 
ATOM     13  C   UNL     1      47.420   7.557  21.453  0.00  0.00    +0.000 A 
ATOM     14  C   UNL     1      47.812   8.879  21.632  0.00  0.00    +0.000 A 
ATOM     15  C   UNL     1      49.010   9.314  21.078  0.00  0.00    +0.000 A 
ATOM     16  C   UNL     1      49.772   8.404  20.363  0.00  0.00    +0.000 A 
ATOM     17  N   UNL     1      49.421   7.113  20.170  0.00  0.00    +0.000 NA
ENDBRANCH  11  12
BRANCH  11  18
ATOM     18  O   UNL     1      47.755   4.561  21.748  0.00  0.00    +0.000 OA
ATOM     19  H   UNL     1      48.016   5.229  22.416  0.00  0.00    +0.000 HD
ENDBRANCH  11  18
ENDBRANCH  10  11
ENDBRANCH   6  10
ENDBRANCH   1   2
BRANCH   1  22
ATOM     20  O   UNL     1      45.716   7.338  11.526  0.00  0.00    +0.000 OA
ATOM     21  C   UNL     1      46.006   6.160  11.748  0.00  0.00    +0.000 C 
ATOM     22  N   UNL     1      47.032   5.758  12.572  0.00  0.00    +0.000 N 
ATOM     23  H   UNL     1      47.059   4.777  12.798  0.00  0.00    +0.000 HD
BRANCH  21  24
ATOM     24  C   UNL     1      45.171   5.027  11.375  0.00  0.00    +0.000 A 
ATOM     25  C   UNL     1      44.520   4.206  12.281  0.00  0.00    +0.000 A 
ATOM     26  N   UNL     1      44.429   2.969  11.694  0.00  0.00    +0.000 N 
ATOM     27  C   UNL     1      44.845   3.034  10.384  0.00  0.00    +0.000 A 
ATOM     28  C   UNL     1      45.070   2.042   9.442  0.00  0.00    +0.000 A 
ATOM     29  N   UNL     1      45.427   2.396   8.185  0.00  0.00    +0.000 NA
ATOM     30  C   UNL     1      45.537   3.706   7.873  0.00  0.00    +0.000 A 
ATOM     31  C   UNL     1      45.396   4.741   8.780  0.00  0.00    +0.000 A 
ATOM     32  C   UNL     1      45.089   4.375  10.101  0.00  0.00    +0.000 A 
ATOM     33  H   UNL     1      44.180   2.118  12.181  0.00  0.00    +0.000 HD
ENDBRANCH  21  24
ENDBRANCH   1  22
BRANCH   1  34
ATOM     34  C   UNL     1      48.989   7.129  13.028  0.00  0.00    +0.000 C 
BRANCH  34  35
ATOM     35  O   UNL     1      48.832   7.842  11.802  0.00  0.00    +0.000 OA
ATOM     36  H   UNL     1      48.799   8.791  12.013  0.00  0.00    +0.000 HD
ENDBRANCH  34  35
ENDBRANCH   1  34
TORSDOF 9
ENDMDL
MODEL 9
REMARK VINA RESULT:    -6.976      3.010      8.815
REMARK INTER + INTRA:         -10.976
REMARK INTER:                  -9.559
REMARK INTRA:                  -1.417
REMARK UNBOUND:                -0.737
REMARK  Name = 
REMARK  9 active torsions:
REMARK  status: ('A' for Active; 'I' for Inactive)
REMARK    1  A    between atoms: C_2  and  C_23
REMARK    2  A    between atoms: N_3  and  CA_4
REMARK    3  A    between atoms: CA_4  and  C_5
REMARK    4  A    between atoms: CA_4  and  C_7
REMARK    5  A    between atoms: C_5  and  O_6
REMARK    6  A    between atoms: N_11  and  C_12
REMARK    7  A    between atoms: C_12  and  C_13
REMARK    8  A    between atoms: C_13  and  O_14
REMARK    9  A    between atoms: C_13  and  C_15
REMARK                            x       y       z     vdW  Elec       q    Type
REMARK                         _______ _______ _______ _____ _____    ______ ____
ROOT
ATOM      1  CA  UNL     1      49.094   7.469  14.955  0.00  0.00    +0.000 C 
ENDROOT
BRANCH   1   2
ATOM      2  C   UNL     1      48.239   6.957  13.811  0.00  0.00    +0.000 A 
ATOM      3  C   UNL     1      47.978   7.693  12.650  0.00  0.00    +0.000 A 
ATOM      4  C   UNL     1      47.145   7.171  11.660  0.00  0.00    +0.000 A 
ATOM      5  C   UNL     1      46.531   5.942  11.856  0.00  0.00    +0.000 A 
ATOM      6  N   UNL     1      45.606   5.524  10.898  0.00  0.00    +0.000 N 
ATOM      7  N   UNL     1      46.746   5.224  12.974  0.00  0.00    +0.000 NA
ATOM      8  C   UNL     1      47.589   5.730  13.910  0.00  0.00    +0.000 A 
ATOM      9  H   UNL     1      46.043   5.416   9.984  0.00  0.00    +0.000 HD
BRANCH   6  10
ATOM     10  C   UNL     1      44.797   4.358  11.254  0.00  0.00    +0.000 C 
BRANCH  10  11
ATOM     11  C   UNL     1      44.080   3.852   9.989  0.00  0.00    +0.000 C 
BRANCH  11  12
ATOM     12  C   UNL     1      45.083   3.332   8.979  0.00  0.00    +0.000 A 
ATOM     13  C   UNL     1      45.392   1.973   8.930  0.00  0.00    +0.000 A 
ATOM     14  C   UNL     1      46.328   1.532   8.001  0.00  0.00    +0.000 A 
ATOM     15  C   UNL     1      46.929   2.454   7.152  0.00  0.00    +0.000 A 
ATOM     16  C   UNL     1      46.568   3.786   7.266  0.00  0.00    +0.000 A 
ATOM     17  N   UNL     1      45.663   4.249   8.158  0.00  0.00    +0.000 NA
ENDBRANCH  11  12
BRANCH  11  18
ATOM     18  O   UNL     1      43.318   4.938   9.424  0.00  0.00    +0.000 OA
ATOM     19  H   UNL     1      42.400   4.597   9.391  0.00  0.00    +0.000 HD
ENDBRANCH  11  18
ENDBRANCH  10  11
ENDBRANCH   6  10
ENDBRANCH   1   2
BRANCH   1  22
ATOM     20  O   UNL     1      51.309   9.256  15.620  0.00  0.00    +0.000 OA
ATOM     21  C   UNL     1      51.434   8.352  14.791  0.00  0.00    +0.000 C 
ATOM     22  N   UNL     1      50.496   7.372  14.567  0.00  0.00    +0.000 N 
ATOM     23  H   UNL     1      50.643   6.795  13.754  0.00  0.00    +0.000 HD
BRANCH  21  24
ATOM     24  C   UNL     1      52.467   8.321  13.765  0.00  0.00    +0.000 A 
ATOM     25  C   UNL     1      53.795   8.007  14.003  0.00  0.00    +0.000 A 
ATOM     26  N   UNL     1      54.533   8.694  13.072  0.00  0.00    +0.000 N 
ATOM     27  C   UNL     1      53.701   9.289  12.152  0.00  0.00    +0.000 A 
ATOM     28  C   UNL     1      53.958  10.189  11.129  0.00  0.00    +0.000 A 
ATOM     29  N   UNL     1      52.942  10.575  10.320  0.00  0.00    +0.000 NA
ATOM     30  C   UNL     1      51.709  10.061  10.517  0.00  0.00    +0.000 A 
ATOM     31  C   UNL     1      51.370   9.216  11.559  0.00  0.00    +0.000 A 
ATOM     32  C   UNL     1      52.407   8.864  12.439  0.00  0.00    +0.000 A 
ATOM     33  H   UNL     1      55.536   8.820  13.112  0.00  0.00    +0.000 HD
ENDBRANCH  21  24
ENDBRANCH   1  22
BRANCH   1  34
ATOM     34  C   UNL     1      48.901   6.670  16.265  0.00  0.00    +0.000 C 
BRANCH  34  35
ATOM     35  O   UNL     1      48.597   7.505  17.381  0.00  0.00    +0.000 OA
ATOM     36  H   UNL     1      47.649   7.410  17.574  0.00  0.00    +0.000 HD
ENDBRANCH  34  35
ENDBRANCH   1  34
TORSDOF 9
ENDMDL
