MODEL 1
REMARK VINA RESULT:    -9.836      0.000      0.000
REMARK INTER + INTRA:         -13.401
REMARK INTER:                 -12.998
REMARK INTRA:                  -0.403
REMARK UNBOUND:                -0.403
REMARK  Name = 
REMARK  6 active torsions:
REMARK  status: ('A' for Active; 'I' for Inactive)
REMARK    1  A    between atoms: C_2  and  C_19
REMARK    2  A    between atoms: N_3  and  C_4
REMARK    3  A    between atoms: C_4  and  C_5
REMARK    4  A    between atoms: N_8  and  C_9
REMARK    5  A    between atoms: C_9  and  C_10
REMARK    6  A    between atoms: C_13  and  O_14
REMARK                            x       y       z     vdW  Elec       q    Type
REMARK                         _______ _______ _______ _____ _____    ______ ____
ROOT
ATOM      1  C   UNL     1      44.868   5.037  13.144  0.00  0.00    +0.000 C 
ENDROOT
BRANCH   1   2
ATOM      2  C   UNL     1      44.586   6.012  11.985  0.00  0.00    +0.000 C 
ATOM      3  C   UNL     1      43.236   5.697  11.337  0.00  0.00    +0.000 C 
ATOM      4  C   UNL     1      43.254   4.315  10.685  0.00  0.00    +0.000 C 
ATOM      5  N   UNL     1      44.295   4.200   9.652  0.00  0.00    +0.000 NA
ATOM      6  C   UNL     1      45.629   4.645  10.101  0.00  0.00    +0.000 C 
ATOM      7  C   UNL     1      45.635   5.974  10.866  0.00  0.00    +0.000 C 
BRANCH   5   8
ATOM      8  C   UNL     1      44.402   2.801   9.169  0.00  0.00    +0.000 C 
BRANCH   8   9
ATOM      9  C   UNL     1      45.551   2.582   8.206  0.00  0.00    +0.000 A 
ATOM     10  C   UNL     1      45.847   3.545   7.231  0.00  0.00    +0.000 A 
ATOM     11  C   UNL     1      46.837   3.304   6.276  0.00  0.00    +0.000 A 
ATOM     12  C   UNL     1      47.540   2.104   6.307  0.00  0.00    +0.000 A 
ATOM     13  C   UNL     1      47.284   1.151   7.286  0.00  0.00    +0.000 A 
ATOM     14  C   UNL     1      46.290   1.389   8.235  0.00  0.00    +0.000 A 
BRANCH  12  15
ATOM     15  O   UNL     1      48.490   1.816   5.373  0.00  0.00    +0.000 OA
ATOM     16  H   UNL     1      49.315   2.261   5.629  0.00  0.00    +0.000 HD
ENDBRANCH  12  15
ENDBRANCH   8   9
ENDBRANCH   5   8
ENDBRANCH   1   2
BRANCH   1  19
ATOM     17  O   UNL     1      47.104   3.534  14.025  0.00  0.00    +0.000 OA
ATOM     18  C   UNL     1      46.970   4.688  14.408  0.00  0.00    +0.000 C 
ATOM     19  N   UNL     1      45.915   5.497  14.026  0.00  0.00    +0.000 N 
ATOM     20  H   UNL     1      45.874   6.451  14.353  0.00  0.00    +0.000 HD
BRANCH  18  21
ATOM     21  C   UNL     1      47.896   5.321  15.343  0.00  0.00    +0.000 A 
ATOM     22  C   UNL     1      48.773   6.329  14.974  0.00  0.00    +0.000 A 
ATOM     23  S   UNL     1      49.691   6.935  16.278  0.00  0.00    +0.000 S 
ATOM     24  C   UNL     1      48.931   5.881  17.379  0.00  0.00    +0.000 A 
ATOM     25  N   UNL     1      49.249   5.898  18.696  0.00  0.00    +0.000 NA
ATOM     26  C   UNL     1      48.586   5.053  19.415  0.00  0.00    +0.000 A 
ATOM     27  N   UNL     1      47.640   4.188  18.929  0.00  0.00    +0.000 N 
ATOM     28  C   UNL     1      47.336   4.078  17.588  0.00  0.00    +0.000 A 
ATOM     29  O   UNL     1      46.615   3.175  17.179  0.00  0.00    +0.000 OA
ATOM     30  C   UNL     1      48.007   5.060  16.753  0.00  0.00    +0.000 A 
ATOM     31  H   UNL     1      47.196   3.514  19.533  0.00  0.00    +0.000 HD
ENDBRANCH  18  21
ENDBRANCH   1  19
TORSDOF 6
ENDMDL
MODEL 2
REMARK VINA RESULT:    -9.159      1.479      2.368
REMARK INTER + INTRA:         -12.507
REMARK INTER:                 -11.700
REMARK INTRA:                  -0.807
REMARK UNBOUND:                -0.403
REMARK  Name = 
REMARK  6 active torsions:
REMARK  status: ('A' for Active; 'I' for Inactive)
REMARK    1  A    between atoms: C_2  and  C_19
REMARK    2  A    between atoms: N_3  and  C_4
REMARK    3  A    between atoms: C_4  and  C_5
REMARK    4  A    between atoms: N_8  and  C_9
REMARK    5  A    between atoms: C_9  and  C_10
REMARK    6  A    between atoms: C_13  and  O_14
REMARK                            x       y       z     vdW  Elec       q    Type
REMARK                         _______ _______ _______ _____ _____    ______ ____
ROOT
ATOM      1  C   UNL     1      44.798   4.923  13.161  0.00  0.00    +0.000 C 
ENDROOT
BRANCH   1   2
ATOM      2  C   UNL     1      44.580   5.931  12.016  0.00  0.00    +0.000 C 
ATOM      3  C   UNL     1      43.247   5.664  11.313  0.00  0.00    +0.000 C 
ATOM      4  C   UNL     1      43.256   4.298  10.631  0.00  0.00    +0.000 C 
ATOM      5  N   UNL     1      44.330   4.180   9.632  0.00  0.00    +0.000 NA
ATOM      6  C   UNL     1      45.658   4.582  10.138  0.00  0.00    +0.000 C 
ATOM      7  C   UNL     1      45.667   5.893  10.934  0.00  0.00    +0.000 C 
BRANCH   5   8
ATOM      8  C   UNL     1      44.421   2.790   9.121  0.00  0.00    +0.000 C 
BRANCH   8   9
ATOM      9  C   UNL     1      45.565   2.579   8.149  0.00  0.00    +0.000 A 
ATOM     10  C   UNL     1      45.841   3.541   7.166  0.00  0.00    +0.000 A 
ATOM     11  C   UNL     1      46.825   3.307   6.204  0.00  0.00    +0.000 A 
ATOM     12  C   UNL     1      47.543   2.115   6.236  0.00  0.00    +0.000 A 
ATOM     13  C   UNL     1      47.306   1.164   7.221  0.00  0.00    +0.000 A 
ATOM     14  C   UNL     1      46.317   1.395   8.177  0.00  0.00    +0.000 A 
BRANCH  12  15
ATOM     15  O   UNL     1      48.488   1.832   5.295  0.00  0.00    +0.000 OA
ATOM     16  H   UNL     1      49.116   1.197   5.675  0.00  0.00    +0.000 HD
ENDBRANCH  12  15
ENDBRANCH   8   9
ENDBRANCH   5   8
ENDBRANCH   1   2
BRANCH   1  19
ATOM     17  O   UNL     1      47.085   3.428  13.913  0.00  0.00    +0.000 OA
ATOM     18  C   UNL     1      46.907   4.536  14.401  0.00  0.00    +0.000 C 
ATOM     19  N   UNL     1      45.824   5.337  14.089  0.00  0.00    +0.000 N 
ATOM     20  H   UNL     1      45.747   6.254  14.503  0.00  0.00    +0.000 HD
BRANCH  18  21
ATOM     21  C   UNL     1      47.806   5.111  15.397  0.00  0.00    +0.000 A 
ATOM     22  C   UNL     1      47.916   4.622  16.690  0.00  0.00    +0.000 A 
ATOM     23  S   UNL     1      49.090   5.437  17.622  0.00  0.00    +0.000 S 
ATOM     24  C   UNL     1      49.501   6.455  16.320  0.00  0.00    +0.000 A 
ATOM     25  N   UNL     1      50.472   7.392  16.445  0.00  0.00    +0.000 NA
ATOM     26  C   UNL     1      50.684   8.084  15.375  0.00  0.00    +0.000 A 
ATOM     27  N   UNL     1      50.006   7.926  14.195  0.00  0.00    +0.000 N 
ATOM     28  C   UNL     1      48.958   7.041  14.040  0.00  0.00    +0.000 A 
ATOM     29  O   UNL     1      48.268   7.057  13.027  0.00  0.00    +0.000 OA
ATOM     30  C   UNL     1      48.732   6.193  15.198  0.00  0.00    +0.000 A 
ATOM     31  H   UNL     1      50.180   8.535  13.411  0.00  0.00    +0.000 HD
ENDBRANCH  18  21
ENDBRANCH   1  19
TORSDOF 6
ENDMDL
MODEL 3
REMARK VINA RESULT:    -9.089      1.087      1.513
REMARK INTER + INTRA:         -12.415
REMARK INTER:                 -11.738
REMARK INTRA:                  -0.676
REMARK UNBOUND:                -0.403
REMARK  Name = 
REMARK  6 active torsions:
REMARK  status: ('A' for Active; 'I' for Inactive)
REMARK    1  A    between atoms: C_2  and  C_19
REMARK    2  A    between atoms: N_3  and  C_4
REMARK    3  A    between atoms: C_4  and  C_5
REMARK    4  A    between atoms: N_8  and  C_9
REMARK    5  A    between atoms: C_9  and  C_10
REMARK    6  A    between atoms: C_13  and  O_14
REMARK                            x       y       z     vdW  Elec       q    Type
REMARK                         _______ _______ _______ _____ _____    ______ ____
ROOT
ATOM      1  C   UNL     1      45.463   5.700  13.032  0.00  0.00    +0.000 C 
ENDROOT
BRANCH   1   2
ATOM      2  C   UNL     1      44.668   4.393  13.215  0.00  0.00    +0.000 C 
ATOM      3  C   UNL     1      45.394   3.226  12.542  0.00  0.00    +0.000 C 
ATOM      4  C   UNL     1      45.465   3.429  11.030  0.00  0.00    +0.000 C 
ATOM      5  N   UNL     1      44.132   3.550  10.420  0.00  0.00    +0.000 NA
ATOM      6  C   UNL     1      43.257   4.530  11.094  0.00  0.00    +0.000 C 
ATOM      7  C   UNL     1      43.253   4.435  12.625  0.00  0.00    +0.000 C 
BRANCH   5   8
ATOM      8  C   UNL     1      44.241   3.922   8.988  0.00  0.00    +0.000 C 
BRANCH   8   9
ATOM      9  C   UNL     1      45.431   3.294   8.291  0.00  0.00    +0.000 A 
ATOM     10  C   UNL     1      46.278   4.079   7.495  0.00  0.00    +0.000 A 
ATOM     11  C   UNL     1      47.314   3.489   6.768  0.00  0.00    +0.000 A 
ATOM     12  C   UNL     1      47.511   2.114   6.851  0.00  0.00    +0.000 A 
ATOM     13  C   UNL     1      46.703   1.324   7.660  0.00  0.00    +0.000 A 
ATOM     14  C   UNL     1      45.663   1.912   8.380  0.00  0.00    +0.000 A 
BRANCH  12  15
ATOM     15  O   UNL     1      48.489   1.494   6.132  0.00  0.00    +0.000 OA
ATOM     16  H   UNL     1      48.998   2.174   5.660  0.00  0.00    +0.000 HD
ENDBRANCH  12  15
ENDBRANCH   8   9
ENDBRANCH   5   8
ENDBRANCH   1   2
BRANCH   1  19
ATOM     17  O   UNL     1      48.296   5.707  12.927  0.00  0.00    +0.000 OA
ATOM     18  C   UNL     1      47.735   5.949  13.988  0.00  0.00    +0.000 C 
ATOM     19  N   UNL     1      46.360   5.973  14.131  0.00  0.00    +0.000 N 
ATOM     20  H   UNL     1      45.956   6.208  15.026  0.00  0.00    +0.000 HD
BRANCH  18  21
ATOM     21  C   UNL     1      48.467   6.202  15.225  0.00  0.00    +0.000 A 
ATOM     22  C   UNL     1      49.380   7.236  15.367  0.00  0.00    +0.000 A 
ATOM     23  S   UNL     1      50.038   7.345  16.937  0.00  0.00    +0.000 S 
ATOM     24  C   UNL     1      49.109   6.025  17.481  0.00  0.00    +0.000 A 
ATOM     25  N   UNL     1      49.185   5.599  18.765  0.00  0.00    +0.000 NA
ATOM     26  C   UNL     1      48.416   4.597  19.039  0.00  0.00    +0.000 A 
ATOM     27  N   UNL     1      47.587   3.979  18.139  0.00  0.00    +0.000 N 
ATOM     28  C   UNL     1      47.532   4.324  16.805  0.00  0.00    +0.000 A 
ATOM     29  O   UNL     1      46.912   3.635  16.003  0.00  0.00    +0.000 OA
ATOM     30  C   UNL     1      48.327   5.493  16.468  0.00  0.00    +0.000 A 
ATOM     31  H   UNL     1      47.053   3.165  18.401  0.00  0.00    +0.000 HD
ENDBRANCH  18  21
ENDBRANCH   1  19
TORSDOF 6
ENDMDL
MODEL 4
REMARK VINA RESULT:    -8.681      1.833      2.208
REMARK INTER + INTRA:         -11.875
REMARK INTER:                 -11.871
REMARK INTRA:                  -0.004
REMARK UNBOUND:                -0.403
REMARK  Name = 
REMARK  6 active torsions:
REMARK  status: ('A' for Active; 'I' for Inactive)
REMARK    1  A    between atoms: C_2  and  C_19
REMARK    2  A    between atoms: N_3  and  C_4
REMARK    3  A    between atoms: C_4  and  C_5
REMARK    4  A    between atoms: N_8  and  C_9
REMARK    5  A    between atoms: C_9  and  C_10
REMARK    6  A    between atoms: C_13  and  O_14
REMARK                            x       y       z     vdW  Elec       q    Type
REMARK                         _______ _______ _______ _____ _____    ______ ____
ROOT
ATOM      1  C   UNL     1      45.978   4.423  13.974  0.00  0.00    +0.000 C 
ENDROOT
BRANCH   1   2
ATOM      2  C   UNL     1      45.430   5.624  13.179  0.00  0.00    +0.000 C 
ATOM      3  C   UNL     1      43.929   5.460  12.929  0.00  0.00    +0.000 C 
ATOM      4  C   UNL     1      43.655   4.249  12.040  0.00  0.00    +0.000 C 
ATOM      5  N   UNL     1      44.326   4.350  10.735  0.00  0.00    +0.000 NA
ATOM      6  C   UNL     1      45.762   4.683  10.832  0.00  0.00    +0.000 C 
ATOM      7  C   UNL     1      46.089   5.819  11.809  0.00  0.00    +0.000 C 
BRANCH   5   8
ATOM      8  C   UNL     1      44.186   3.085   9.973  0.00  0.00    +0.000 C 
BRANCH   8   9
ATOM      9  C   UNL     1      45.199   2.940   8.855  0.00  0.00    +0.000 A 
ATOM     10  C   UNL     1      45.812   1.701   8.616  0.00  0.00    +0.000 A 
ATOM     11  C   UNL     1      46.820   1.584   7.657  0.00  0.00    +0.000 A 
ATOM     12  C   UNL     1      47.204   2.705   6.928  0.00  0.00    +0.000 A 
ATOM     13  C   UNL     1      46.586   3.934   7.128  0.00  0.00    +0.000 A 
ATOM     14  C   UNL     1      45.585   4.052   8.091  0.00  0.00    +0.000 A 
BRANCH  12  15
ATOM     15  O   UNL     1      48.207   2.641   6.007  0.00  0.00    +0.000 OA
ATOM     16  H   UNL     1      49.053   2.585   6.480  0.00  0.00    +0.000 HD
ENDBRANCH  12  15
ENDBRANCH   8   9
ENDBRANCH   5   8
ENDBRANCH   1   2
BRANCH   1  19
ATOM     17  O   UNL     1      46.515   3.511  16.604  0.00  0.00    +0.000 OA
ATOM     18  C   UNL     1      47.308   4.267  16.058  0.00  0.00    +0.000 C 
ATOM     19  N   UNL     1      47.131   4.757  14.777  0.00  0.00    +0.000 N 
ATOM     20  H   UNL     1      47.835   5.355  14.371  0.00  0.00    +0.000 HD
BRANCH  18  21
ATOM     21  C   UNL     1      48.510   4.760  16.724  0.00  0.00    +0.000 A 
ATOM     22  C   UNL     1      48.681   6.085  17.094  0.00  0.00    +0.000 A 
ATOM     23  S   UNL     1      50.148   6.373  17.916  0.00  0.00    +0.000 S 
ATOM     24  C   UNL     1      50.592   4.731  17.819  0.00  0.00    +0.000 A 
ATOM     25  N   UNL     1      51.754   4.288  18.356  0.00  0.00    +0.000 NA
ATOM     26  C   UNL     1      51.955   3.019  18.217  0.00  0.00    +0.000 A 
ATOM     27  N   UNL     1      51.099   2.158  17.581  0.00  0.00    +0.000 N 
ATOM     28  C   UNL     1      49.943   2.572  16.951  0.00  0.00    +0.000 A 
ATOM     29  O   UNL     1      49.301   1.800  16.248  0.00  0.00    +0.000 OA
ATOM     30  C   UNL     1      49.643   3.980  17.144  0.00  0.00    +0.000 A 
ATOM     31  H   UNL     1      51.338   1.186  17.457  0.00  0.00    +0.000 HD
ENDBRANCH  18  21
ENDBRANCH   1  19
TORSDOF 6
ENDMDL
MODEL 5
REMARK VINA RESULT:    -8.075      3.085      4.213
REMARK INTER + INTRA:         -11.074
REMARK INTER:                 -10.284
REMARK INTRA:                  -0.790
REMARK UNBOUND:                -0.403
REMARK  Name = 
REMARK  6 active torsions:
REMARK  status: ('A' for Active; 'I' for Inactive)
REMARK    1  A    between atoms: C_2  and  C_19
REMARK    2  A    between atoms: N_3  and  C_4
REMARK    3  A    between atoms: C_4  and  C_5
REMARK    4  A    between atoms: N_8  and  C_9
REMARK    5  A    between atoms: C_9  and  C_10
REMARK    6  A    between atoms: C_13  and  O_14
REMARK                            x       y       z     vdW  Elec       q    Type
REMARK                         _______ _______ _______ _____ _____    ______ ____
ROOT
ATOM      1  C   UNL     1      45.014   6.817  12.704  0.00  0.00    +0.000 C 
ENDROOT
BRANCH   1   2
ATOM      2  C   UNL     1      44.560   5.435  13.211  0.00  0.00    +0.000 C 
ATOM      3  C   UNL     1      45.512   4.344  12.714  0.00  0.00    +0.000 C 
ATOM      4  C   UNL     1      45.465   4.233  11.191  0.00  0.00    +0.000 C 
ATOM      5  N   UNL     1      44.116   3.922  10.695  0.00  0.00    +0.000 NA
ATOM      6  C   UNL     1      43.064   4.803  11.243  0.00  0.00    +0.000 C 
ATOM      7  C   UNL     1      43.151   5.034  12.757  0.00  0.00    +0.000 C 
BRANCH   5   8
ATOM      8  C   UNL     1      44.070   3.998   9.214  0.00  0.00    +0.000 C 
BRANCH   8   9
ATOM      9  C   UNL     1      45.238   3.308   8.539  0.00  0.00    +0.000 A 
ATOM     10  C   UNL     1      46.086   4.030   7.686  0.00  0.00    +0.000 A 
ATOM     11  C   UNL     1      47.100   3.379   6.981  0.00  0.00    +0.000 A 
ATOM     12  C   UNL     1      47.274   2.008   7.142  0.00  0.00    +0.000 A 
ATOM     13  C   UNL     1      46.465   1.281   8.007  0.00  0.00    +0.000 A 
ATOM     14  C   UNL     1      45.447   1.930   8.705  0.00  0.00    +0.000 A 
BRANCH  12  15
ATOM     15  O   UNL     1      48.231   1.329   6.447  0.00  0.00    +0.000 OA
ATOM     16  H   UNL     1      47.876   0.456   6.213  0.00  0.00    +0.000 HD
ENDBRANCH  12  15
ENDBRANCH   8   9
ENDBRANCH   5   8
ENDBRANCH   1   2
BRANCH   1  19
ATOM     17  O   UNL     1      47.586   7.047  11.534  0.00  0.00    +0.000 OA
ATOM     18  C   UNL     1      47.429   7.366  12.705  0.00  0.00    +0.000 C 
ATOM     19  N   UNL     1      46.211   7.292  13.356  0.00  0.00    +0.000 N 
ATOM     20  H   UNL     1      46.140   7.598  14.316  0.00  0.00    +0.000 HD
BRANCH  18  21
ATOM     21  C   UNL     1      48.529   7.824  13.550  0.00  0.00    +0.000 A 
ATOM     22  C   UNL     1      49.125   7.027  14.514  0.00  0.00    +0.000 A 
ATOM     23  S   UNL     1      50.430   7.788  15.307  0.00  0.00    +0.000 S 
ATOM     24  C   UNL     1      50.250   9.200  14.372  0.00  0.00    +0.000 A 
ATOM     25  N   UNL     1      51.080  10.259  14.538  0.00  0.00    +0.000 NA
ATOM     26  C   UNL     1      50.832  11.256  13.753  0.00  0.00    +0.000 A 
ATOM     27  N   UNL     1      49.825  11.289  12.825  0.00  0.00    +0.000 N 
ATOM     28  C   UNL     1      48.907  10.270  12.673  0.00  0.00    +0.000 A 
ATOM     29  O   UNL     1      47.922  10.415  11.957  0.00  0.00    +0.000 OA
ATOM     30  C   UNL     1      49.190   9.099  13.485  0.00  0.00    +0.000 A 
ATOM     31  H   UNL     1      49.648  12.119  12.280  0.00  0.00    +0.000 HD
ENDBRANCH  18  21
ENDBRANCH   1  19
TORSDOF 6
ENDMDL
MODEL 6
REMARK VINA RESULT:    -7.983      3.683      4.515
REMARK INTER + INTRA:         -10.952
REMARK INTER:                 -10.712
REMARK INTRA:                  -0.240
REMARK UNBOUND:                -0.403
REMARK  Name = 
REMARK  6 active torsions:
REMARK  status: ('A' for Active; 'I' for Inactive)
REMARK    1  A    between atoms: C_2  and  C_19
REMARK    2  A    between atoms: N_3  and  C_4
REMARK    3  A    between atoms: C_4  and  C_5
REMARK    4  A    between atoms: N_8  and  C_9
REMARK    5  A    between atoms: C_9  and  C_10
REMARK    6  A    between atoms: C_13  and  O_14
REMARK                            x       y       z     vdW  Elec       q    Type
REMARK                         _______ _______ _______ _____ _____    ______ ____
ROOT
ATOM      1  C   UNL     1      43.556   5.642  12.716  0.00  0.00    +0.000 C 
ENDROOT
BRANCH   1   2
ATOM      2  C   UNL     1      44.358   4.397  13.144  0.00  0.00    +0.000 C 
ATOM      3  C   UNL     1      45.684   4.328  12.383  0.00  0.00    +0.000 C 
ATOM      4  C   UNL     1      45.444   4.139  10.886  0.00  0.00    +0.000 C 
ATOM      5  N   UNL     1      44.685   2.914  10.593  0.00  0.00    +0.000 NA
ATOM      6  C   UNL     1      43.455   2.770  11.399  0.00  0.00    +0.000 C 
ATOM      7  C   UNL     1      43.633   3.070  12.892  0.00  0.00    +0.000 C 
BRANCH   5   8
ATOM      8  C   UNL     1      44.317   2.855   9.157  0.00  0.00    +0.000 C 
BRANCH   8   9
ATOM      9  C   UNL     1      45.498   2.598   8.242  0.00  0.00    +0.000 A 
ATOM     10  C   UNL     1      45.898   3.573   7.317  0.00  0.00    +0.000 A 
ATOM     11  C   UNL     1      46.918   3.303   6.402  0.00  0.00    +0.000 A 
ATOM     12  C   UNL     1      47.546   2.062   6.424  0.00  0.00    +0.000 A 
ATOM     13  C   UNL     1      47.186   1.096   7.355  0.00  0.00    +0.000 A 
ATOM     14  C   UNL     1      46.162   1.362   8.264  0.00  0.00    +0.000 A 
BRANCH  12  15
ATOM     15  O   UNL     1      48.523   1.747   5.527  0.00  0.00    +0.000 OA
ATOM     16  H   UNL     1      49.246   1.308   6.004  0.00  0.00    +0.000 HD
ENDBRANCH  12  15
ENDBRANCH   8   9
ENDBRANCH   5   8
ENDBRANCH   1   2
BRANCH   1  19
ATOM     17  O   UNL     1      43.602   7.608  10.675  0.00  0.00    +0.000 OA
ATOM     18  C   UNL     1      44.312   7.752  11.661  0.00  0.00    +0.000 C 
ATOM     19  N   UNL     1      44.350   6.848  12.708  0.00  0.00    +0.000 N 
ATOM     20  H   UNL     1      44.934   7.038  13.509  0.00  0.00    +0.000 HD
BRANCH  18  21
ATOM     21  C   UNL     1      45.223   8.882  11.817  0.00  0.00    +0.000 A 
ATOM     22  C   UNL     1      44.828  10.201  11.653  0.00  0.00    +0.000 A 
ATOM     23  S   UNL     1      46.076  11.322  11.962  0.00  0.00    +0.000 S 
ATOM     24  C   UNL     1      47.177  10.080  12.343  0.00  0.00    +0.000 A 
ATOM     25  N   UNL     1      48.448  10.364  12.719  0.00  0.00    +0.000 NA
ATOM     26  C   UNL     1      49.167   9.324  12.989  0.00  0.00    +0.000 A 
ATOM     27  N   UNL     1      48.729   8.028  12.908  0.00  0.00    +0.000 N 
ATOM     28  C   UNL     1      47.471   7.685  12.457  0.00  0.00    +0.000 A 
ATOM     29  O   UNL     1      47.182   6.515  12.235  0.00  0.00    +0.000 OA
ATOM     30  C   UNL     1      46.605   8.825  12.211  0.00  0.00    +0.000 A 
ATOM     31  H   UNL     1      49.356   7.257  13.079  0.00  0.00    +0.000 HD
ENDBRANCH  18  21
ENDBRANCH   1  19
TORSDOF 6
ENDMDL
MODEL 7
REMARK VINA RESULT:    -7.597      3.738      8.401
REMARK INTER + INTRA:         -10.443
REMARK INTER:                  -9.583
REMARK INTRA:                  -0.860
REMARK UNBOUND:                -0.403
REMARK  Name = 
REMARK  6 active torsions:
REMARK  status: ('A' for Active; 'I' for Inactive)
REMARK    1  A    between atoms: C_2  and  C_19
REMARK    2  A    between atoms: N_3  and  C_4
REMARK    3  A    between atoms: C_4  and  C_5
REMARK    4  A    between atoms: N_8  and  C_9
REMARK    5  A    between atoms: C_9  and  C_10
REMARK    6  A    between atoms: C_13  and  O_14
REMARK                            x       y       z     vdW  Elec       q    Type
REMARK                         _______ _______ _______ _____ _____    ______ ____
ROOT
ATOM      1  C   UNL     1      49.326   7.401  15.932  0.00  0.00    +0.000 C 
ENDROOT
BRANCH   1   2
ATOM      2  C   UNL     1      49.079   8.437  17.045  0.00  0.00    +0.000 C 
ATOM      3  C   UNL     1      50.276   8.496  17.997  0.00  0.00    +0.000 C 
ATOM      4  C   UNL     1      50.451   7.169  18.733  0.00  0.00    +0.000 C 
ATOM      5  N   UNL     1      49.262   6.805  19.518  0.00  0.00    +0.000 NA
ATOM      6  C   UNL     1      48.001   6.879  18.753  0.00  0.00    +0.000 C 
ATOM      7  C   UNL     1      47.843   8.147  17.905  0.00  0.00    +0.000 C 
BRANCH   5   8
ATOM      8  C   UNL     1      49.397   5.436  20.072  0.00  0.00    +0.000 C 
BRANCH   8   9
ATOM      9  C   UNL     1      49.401   4.354  19.011  0.00  0.00    +0.000 A 
ATOM     10  C   UNL     1      50.609   3.940  18.430  0.00  0.00    +0.000 A 
ATOM     11  C   UNL     1      50.610   3.020  17.380  0.00  0.00    +0.000 A 
ATOM     12  C   UNL     1      49.402   2.503  16.922  0.00  0.00    +0.000 A 
ATOM     13  C   UNL     1      48.198   2.876  17.506  0.00  0.00    +0.000 A 
ATOM     14  C   UNL     1      48.196   3.801  18.550  0.00  0.00    +0.000 A 
BRANCH  12  15
ATOM     15  O   UNL     1      49.358   1.628  15.877  0.00  0.00    +0.000 OA
ATOM     16  H   UNL     1      49.488   2.128  15.055  0.00  0.00    +0.000 HD
ENDBRANCH  12  15
ENDBRANCH   8   9
ENDBRANCH   5   8
ENDBRANCH   1   2
BRANCH   1  19
ATOM     17  O   UNL     1      49.253   6.481  13.252  0.00  0.00    +0.000 OA
ATOM     18  C   UNL     1      48.202   6.668  13.849  0.00  0.00    +0.000 C 
ATOM     19  N   UNL     1      48.142   7.110  15.159  0.00  0.00    +0.000 N 
ATOM     20  H   UNL     1      47.244   7.218  15.607  0.00  0.00    +0.000 HD
BRANCH  18  21
ATOM     21  C   UNL     1      46.896   6.478  13.224  0.00  0.00    +0.000 A 
ATOM     22  C   UNL     1      46.135   7.525  12.728  0.00  0.00    +0.000 A 
ATOM     23  S   UNL     1      44.685   7.014  11.989  0.00  0.00    +0.000 S 
ATOM     24  C   UNL     1      45.039   5.376  12.293  0.00  0.00    +0.000 A 
ATOM     25  N   UNL     1      44.197   4.393  11.892  0.00  0.00    +0.000 NA
ATOM     26  C   UNL     1      44.598   3.199  12.180  0.00  0.00    +0.000 A 
ATOM     27  N   UNL     1      45.763   2.904  12.841  0.00  0.00    +0.000 N 
ATOM     28  C   UNL     1      46.613   3.870  13.337  0.00  0.00    +0.000 A 
ATOM     29  O   UNL     1      47.548   3.567  14.070  0.00  0.00    +0.000 OA
ATOM     30  C   UNL     1      46.237   5.225  12.973  0.00  0.00    +0.000 A 
ATOM     31  H   UNL     1      45.994   1.953  13.085  0.00  0.00    +0.000 HD
ENDBRANCH  18  21
ENDBRANCH   1  19
TORSDOF 6
ENDMDL
MODEL 8
REMARK VINA RESULT:    -7.314      3.447      9.398
REMARK INTER + INTRA:         -10.069
REMARK INTER:                  -9.280
REMARK INTRA:                  -0.789
REMARK UNBOUND:                -0.403
REMARK  Name = 
REMARK  6 active torsions:
REMARK  status: ('A' for Active; 'I' for Inactive)
REMARK    1  A    between atoms: C_2  and  C_19
REMARK    2  A    between atoms: N_3  and  C_4
REMARK    3  A    between atoms: C_4  and  C_5
REMARK    4  A    between atoms: N_8  and  C_9
REMARK    5  A    between atoms: C_9  and  C_10
REMARK    6  A    between atoms: C_13  and  O_14
REMARK                            x       y       z     vdW  Elec       q    Type
REMARK                         _______ _______ _______ _____ _____    ______ ____
ROOT
ATOM      1  C   UNL     1      48.392   5.389  15.825  0.00  0.00    +0.000 C 
ENDROOT
BRANCH   1   2
ATOM      2  C   UNL     1      48.251   4.167  16.753  0.00  0.00    +0.000 C 
ATOM      3  C   UNL     1      47.072   4.356  17.710  0.00  0.00    +0.000 C 
ATOM      4  C   UNL     1      47.318   5.532  18.653  0.00  0.00    +0.000 C 
ATOM      5  N   UNL     1      48.536   5.355  19.459  0.00  0.00    +0.000 NA
ATOM      6  C   UNL     1      49.727   4.993  18.663  0.00  0.00    +0.000 C 
ATOM      7  C   UNL     1      49.486   3.895  17.620  0.00  0.00    +0.000 C 
BRANCH   5   8
ATOM      8  C   UNL     1      48.840   6.588  20.227  0.00  0.00    +0.000 C 
BRANCH   8   9
ATOM      9  C   UNL     1      48.391   7.857  19.532  0.00  0.00    +0.000 A 
ATOM     10  C   UNL     1      49.005   8.263  18.338  0.00  0.00    +0.000 A 
ATOM     11  C   UNL     1      48.668   9.483  17.749  0.00  0.00    +0.000 A 
ATOM     12  C   UNL     1      47.705  10.289  18.347  0.00  0.00    +0.000 A 
ATOM     13  C   UNL     1      47.062   9.889  19.512  0.00  0.00    +0.000 A 
ATOM     14  C   UNL     1      47.404   8.674  20.106  0.00  0.00    +0.000 A 
BRANCH  12  15
ATOM     15  O   UNL     1      47.371  11.502  17.822  0.00  0.00    +0.000 OA
ATOM     16  H   UNL     1      46.783  11.955  18.448  0.00  0.00    +0.000 HD
ENDBRANCH  12  15
ENDBRANCH   8   9
ENDBRANCH   5   8
ENDBRANCH   1   2
BRANCH   1  19
ATOM     17  O   UNL     1      48.605   6.115  13.093  0.00  0.00    +0.000 OA
ATOM     18  C   UNL     1      47.501   5.878  13.566  0.00  0.00    +0.000 C 
ATOM     19  N   UNL     1      47.303   5.513  14.885  0.00  0.00    +0.000 N 
ATOM     20  H   UNL     1      46.371   5.302  15.209  0.00  0.00    +0.000 HD
BRANCH  18  21
ATOM     21  C   UNL     1      46.270   5.996  12.790  0.00  0.00    +0.000 A 
ATOM     22  C   UNL     1      45.767   7.210  12.348  0.00  0.00    +0.000 A 
ATOM     23  S   UNL     1      44.355   7.052  11.405  0.00  0.00    +0.000 S 
ATOM     24  C   UNL     1      44.383   5.355  11.541  0.00  0.00    +0.000 A 
ATOM     25  N   UNL     1      43.443   4.589  10.937  0.00  0.00    +0.000 NA
ATOM     26  C   UNL     1      43.595   3.318  11.117  0.00  0.00    +0.000 A 
ATOM     27  N   UNL     1      44.601   2.749  11.855  0.00  0.00    +0.000 N 
ATOM     28  C   UNL     1      45.535   3.486  12.552  0.00  0.00    +0.000 A 
ATOM     29  O   UNL     1      46.305   2.944  13.336  0.00  0.00    +0.000 OA
ATOM     30  C   UNL     1      45.443   4.918  12.320  0.00  0.00    +0.000 A 
ATOM     31  H   UNL     1      44.634   1.752  12.003  0.00  0.00    +0.000 HD
ENDBRANCH  18  21
ENDBRANCH   1  19
TORSDOF 6
ENDMDL
MODEL 9
REMARK VINA RESULT:    -7.269      3.072      8.503
REMARK INTER + INTRA:         -10.010
REMARK INTER:                  -9.549
REMARK INTRA:                  -0.461
REMARK UNBOUND:                -0.403
REMARK  Name = 
REMARK  6 active torsions:
REMARK  status: ('A' for Active; 'I' for Inactive)
REMARK    1  A    between atoms: C_2  and  C_19
REMARK    2  A    between atoms: N_3  and  C_4
REMARK    3  A    between atoms: C_4  and  C_5
REMARK    4  A    between atoms: N_8  and  C_9
REMARK    5  A    between atoms: C_9  and  C_10
REMARK    6  A    between atoms: C_13  and  O_14
REMARK                            x       y       z     vdW  Elec       q    Type
REMARK                         _______ _______ _______ _____ _____    ______ ____
ROOT
ATOM      1  C   UNL     1      46.480   8.256  13.280  0.00  0.00    +0.000 C 
ENDROOT
BRANCH   1   2
ATOM      2  C   UNL     1      48.008   8.354  13.106  0.00  0.00    +0.000 C 
ATOM      3  C   UNL     1      48.642   6.962  13.152  0.00  0.00    +0.000 C 
ATOM      4  C   UNL     1      48.448   6.320  14.525  0.00  0.00    +0.000 C 
ATOM      5  N   UNL     1      49.036   7.126  15.606  0.00  0.00    +0.000 NA
ATOM      6  C   UNL     1      48.637   8.548  15.571  0.00  0.00    +0.000 C 
ATOM      7  C   UNL     1      48.705   9.195  14.183  0.00  0.00    +0.000 C 
BRANCH   5   8
ATOM      8  C   UNL     1      48.675   6.568  16.932  0.00  0.00    +0.000 C 
BRANCH   8   9
ATOM      9  C   UNL     1      49.235   5.180  17.175  0.00  0.00    +0.000 A 
ATOM     10  C   UNL     1      50.608   5.004  17.401  0.00  0.00    +0.000 A 
ATOM     11  C   UNL     1      51.146   3.721  17.522  0.00  0.00    +0.000 A 
ATOM     12  C   UNL     1      50.306   2.616  17.431  0.00  0.00    +0.000 A 
ATOM     13  C   UNL     1      48.938   2.771  17.240  0.00  0.00    +0.000 A 
ATOM     14  C   UNL     1      48.402   4.052  17.111  0.00  0.00    +0.000 A 
BRANCH  12  15
ATOM     15  O   UNL     1      50.796   1.346  17.511  0.00  0.00    +0.000 OA
ATOM     16  H   UNL     1      50.342   0.802  16.846  0.00  0.00    +0.000 HD
ENDBRANCH  12  15
ENDBRANCH   8   9
ENDBRANCH   5   8
ENDBRANCH   1   2
BRANCH   1  19
ATOM     17  O   UNL     1      44.646   7.694  11.193  0.00  0.00    +0.000 OA
ATOM     18  C   UNL     1      45.056   6.777  11.892  0.00  0.00    +0.000 C 
ATOM     19  N   UNL     1      45.955   6.957  12.928  0.00  0.00    +0.000 N 
ATOM     20  H   UNL     1      46.279   6.157  13.451  0.00  0.00    +0.000 HD
BRANCH  18  21
ATOM     21  C   UNL     1      44.606   5.398  11.727  0.00  0.00    +0.000 A 
ATOM     22  C   UNL     1      43.891   4.714  12.698  0.00  0.00    +0.000 A 
ATOM     23  S   UNL     1      43.434   3.142  12.216  0.00  0.00    +0.000 S 
ATOM     24  C   UNL     1      44.161   3.335  10.688  0.00  0.00    +0.000 A 
ATOM     25  N   UNL     1      44.115   2.347   9.762  0.00  0.00    +0.000 NA
ATOM     26  C   UNL     1      44.699   2.637   8.646  0.00  0.00    +0.000 A 
ATOM     27  N   UNL     1      45.329   3.824   8.379  0.00  0.00    +0.000 N 
ATOM     28  C   UNL     1      45.470   4.829   9.313  0.00  0.00    +0.000 A 
ATOM     29  O   UNL     1      46.189   5.797   9.091  0.00  0.00    +0.000 OA
ATOM     30  C   UNL     1      44.767   4.575  10.559  0.00  0.00    +0.000 A 
ATOM     31  H   UNL     1      45.814   3.969   7.507  0.00  0.00    +0.000 HD
ENDBRANCH  18  21
ENDBRANCH   1  19
TORSDOF 6
ENDMDL
