MODEL 1
REMARK VINA RESULT:    -8.734      0.000      0.000
REMARK INTER + INTRA:         -13.500
REMARK INTER:                 -12.308
REMARK INTRA:                  -1.192
REMARK UNBOUND:                -1.192
REMARK  Name = 
REMARK  9 active torsions:
REMARK  status: ('A' for Active; 'I' for Inactive)
REMARK    1  A    between atoms: C_1  and  C_2
REMARK    2  A    between atoms: C_4  and  O_5
REMARK    3  A    between atoms: O_5  and  C_6
REMARK    4  A    between atoms: C_6  and  C_7
REMARK    5  A    between atoms: C_7  and  C_8
REMARK    6  A    between atoms: C_7  and  C_9
REMARK    7  A    between atoms: C_13  and  O_14
REMARK    8  A    between atoms: O_14  and  C_15
REMARK    9  A    between atoms: C_22  and  C_23
REMARK                            x       y       z     vdW  Elec       q    Type
REMARK                         _______ _______ _______ _____ _____    ______ ____
ROOT
ATOM      1  C   UNL     1      44.095   3.110  11.675  0.00  0.00    +0.000 C 
ENDROOT
BRANCH   1   2
ATOM      2  C   UNL     1      43.910   4.471  12.373  0.00  0.00    +0.000 C 
ATOM      3  C   UNL     1      42.950   5.381  11.599  0.00  0.00    +0.000 C 
BRANCH   2   4
ATOM      4  C   UNL     1      45.259   5.147  12.589  0.00  0.00    +0.000 A 
ATOM      5  C   UNL     1      45.765   6.084  11.675  0.00  0.00    +0.000 A 
ATOM      6  C   UNL     1      47.007   6.689  11.885  0.00  0.00    +0.000 A 
ATOM      7  C   UNL     1      47.770   6.363  13.007  0.00  0.00    +0.000 A 
ATOM      8  C   UNL     1      47.292   5.422  13.915  0.00  0.00    +0.000 A 
ATOM      9  C   UNL     1      46.037   4.830  13.714  0.00  0.00    +0.000 A 
BRANCH   8  10
ATOM     10  O   UNL     1      47.953   5.027  15.052  0.00  0.00    +0.000 OA
BRANCH  10  11
ATOM     11  C   UNL     1      47.250   4.199  16.007  0.00  0.00    +0.000 C 
ATOM     12  C   UNL     1      47.285   4.610  17.486  0.00  0.00    +0.000 C 
ATOM     13  O   UNL     1      47.764   3.302  17.887  0.00  0.00    +0.000 OA
ATOM     14  C   UNL     1      48.022   2.965  16.502  0.00  0.00    +0.000 C 
ENDBRANCH  10  11
ENDBRANCH   8  10
ENDBRANCH   2   4
ENDBRANCH   1   2
BRANCH   1  15
ATOM     15  O   UNL     1      43.604   3.142  10.328  0.00  0.00    +0.000 OA
BRANCH  15  19
ATOM     16  C   UNL     1      46.648   0.227   7.713  0.00  0.00    +0.000 C 
ATOM     17  C   UNL     1      46.085   1.595   7.998  0.00  0.00    +0.000 A 
ATOM     18  C   UNL     1      45.125   1.713   9.023  0.00  0.00    +0.000 A 
ATOM     19  C   UNL     1      44.545   2.940   9.348  0.00  0.00    +0.000 A 
ATOM     20  C   UNL     1      44.935   4.075   8.638  0.00  0.00    +0.000 A 
ATOM     21  C   UNL     1      45.889   3.982   7.616  0.00  0.00    +0.000 A 
ATOM     22  C   UNL     1      46.466   2.744   7.280  0.00  0.00    +0.000 A 
BRANCH  22  23
ATOM     23  C   UNL     1      47.490   2.675   6.189  0.00  0.00    +0.000 C 
ATOM     24  N   UNL     1      48.807   2.687   6.560  0.00  0.00    +0.000 N 
ATOM     25  O   UNL     1      47.195   2.631   5.002  0.00  0.00    +0.000 OA
ATOM     26  H   UNL     1      49.121   2.919   7.491  0.00  0.00    +0.000 HD
ATOM     27  H   UNL     1      49.482   2.733   5.807  0.00  0.00    +0.000 HD
ENDBRANCH  22  23
ENDBRANCH  15  19
ENDBRANCH   1  15
TORSDOF 7
ENDMDL
MODEL 2
REMARK VINA RESULT:    -7.514      2.269      3.740
REMARK INTER + INTRA:         -11.780
REMARK INTER:                 -11.164
REMARK INTRA:                  -0.616
REMARK UNBOUND:                -1.192
REMARK  Name = 
REMARK  9 active torsions:
REMARK  status: ('A' for Active; 'I' for Inactive)
REMARK    1  A    between atoms: C_1  and  C_2
REMARK    2  A    between atoms: C_4  and  O_5
REMARK    3  A    between atoms: O_5  and  C_6
REMARK    4  A    between atoms: C_6  and  C_7
REMARK    5  A    between atoms: C_7  and  C_8
REMARK    6  A    between atoms: C_7  and  C_9
REMARK    7  A    between atoms: C_13  and  O_14
REMARK    8  A    between atoms: O_14  and  C_15
REMARK    9  A    between atoms: C_22  and  C_23
REMARK                            x       y       z     vdW  Elec       q    Type
REMARK                         _______ _______ _______ _____ _____    ______ ____
ROOT
ATOM      1  C   UNL     1      43.747   4.553  10.699  0.00  0.00    +0.000 C 
ENDROOT
BRANCH   1   2
ATOM      2  C   UNL     1      43.972   4.451  12.220  0.00  0.00    +0.000 C 
ATOM      3  C   UNL     1      42.809   5.062  13.009  0.00  0.00    +0.000 C 
BRANCH   2   4
ATOM      4  C   UNL     1      45.299   5.093  12.607  0.00  0.00    +0.000 A 
ATOM      5  C   UNL     1      46.196   4.459  13.480  0.00  0.00    +0.000 A 
ATOM      6  C   UNL     1      47.405   5.066  13.829  0.00  0.00    +0.000 A 
ATOM      7  C   UNL     1      47.737   6.322  13.319  0.00  0.00    +0.000 A 
ATOM      8  C   UNL     1      46.851   6.975  12.466  0.00  0.00    +0.000 A 
ATOM      9  C   UNL     1      45.647   6.356  12.101  0.00  0.00    +0.000 A 
BRANCH   8  10
ATOM     10  O   UNL     1      47.074   8.207  11.903  0.00  0.00    +0.000 OA
BRANCH  10  11
ATOM     11  C   UNL     1      46.408   9.358  12.473  0.00  0.00    +0.000 C 
ATOM     12  C   UNL     1      45.166   9.905  11.755  0.00  0.00    +0.000 C 
ATOM     13  O   UNL     1      45.728  11.239  11.700  0.00  0.00    +0.000 OA
ATOM     14  C   UNL     1      47.017  10.720  12.107  0.00  0.00    +0.000 C 
ENDBRANCH  10  11
ENDBRANCH   8  10
ENDBRANCH   2   4
ENDBRANCH   1   2
BRANCH   1  15
ATOM     15  O   UNL     1      43.675   3.256  10.092  0.00  0.00    +0.000 OA
BRANCH  15  19
ATOM     16  C   UNL     1      46.645   0.069   7.722  0.00  0.00    +0.000 C 
ATOM     17  C   UNL     1      46.187   1.482   7.966  0.00  0.00    +0.000 A 
ATOM     18  C   UNL     1      45.162   1.690   8.909  0.00  0.00    +0.000 A 
ATOM     19  C   UNL     1      44.670   2.966   9.191  0.00  0.00    +0.000 A 
ATOM     20  C   UNL     1      45.218   4.059   8.519  0.00  0.00    +0.000 A 
ATOM     21  C   UNL     1      46.239   3.876   7.578  0.00  0.00    +0.000 A 
ATOM     22  C   UNL     1      46.727   2.590   7.285  0.00  0.00    +0.000 A 
BRANCH  22  23
ATOM     23  C   UNL     1      47.826   2.424   6.280  0.00  0.00    +0.000 C 
ATOM     24  N   UNL     1      47.677   3.054   5.075  0.00  0.00    +0.000 N 
ATOM     25  O   UNL     1      48.820   1.741   6.488  0.00  0.00    +0.000 OA
ATOM     26  H   UNL     1      46.808   3.464   4.764  0.00  0.00    +0.000 HD
ATOM     27  H   UNL     1      48.383   2.855   4.377  0.00  0.00    +0.000 HD
ENDBRANCH  22  23
ENDBRANCH  15  19
ENDBRANCH   1  15
TORSDOF 7
ENDMDL
MODEL 3
REMARK VINA RESULT:    -7.401      1.591      1.738
REMARK INTER + INTRA:         -11.622
REMARK INTER:                 -10.831
REMARK INTRA:                  -0.791
REMARK UNBOUND:                -1.192
REMARK  Name = 
REMARK  9 active torsions:
REMARK  status: ('A' for Active; 'I' for Inactive)
REMARK    1  A    between atoms: C_1  and  C_2
REMARK    2  A    between atoms: C_4  and  O_5
REMARK    3  A    between atoms: O_5  and  C_6
REMARK    4  A    between atoms: C_6  and  C_7
REMARK    5  A    between atoms: C_7  and  C_8
REMARK    6  A    between atoms: C_7  and  C_9
REMARK    7  A    between atoms: C_13  and  O_14
REMARK    8  A    between atoms: O_14  and  C_15
REMARK    9  A    between atoms: C_22  and  C_23
REMARK                            x       y       z     vdW  Elec       q    Type
REMARK                         _______ _______ _______ _____ _____    ______ ____
ROOT
ATOM      1  C   UNL     1      44.938   4.090  11.815  0.00  0.00    +0.000 C 
ENDROOT
BRANCH   1   2
ATOM      2  C   UNL     1      44.253   5.359  12.358  0.00  0.00    +0.000 C 
ATOM      3  C   UNL     1      43.247   5.935  11.356  0.00  0.00    +0.000 C 
BRANCH   2   4
ATOM      4  C   UNL     1      45.296   6.399  12.753  0.00  0.00    +0.000 A 
ATOM      5  C   UNL     1      45.087   7.769  12.531  0.00  0.00    +0.000 A 
ATOM      6  C   UNL     1      46.057   8.708  12.892  0.00  0.00    +0.000 A 
ATOM      7  C   UNL     1      47.256   8.295  13.474  0.00  0.00    +0.000 A 
ATOM      8  C   UNL     1      47.488   6.939  13.686  0.00  0.00    +0.000 A 
ATOM      9  C   UNL     1      46.507   5.999  13.340  0.00  0.00    +0.000 A 
BRANCH   8  10
ATOM     10  O   UNL     1      48.626   6.420  14.252  0.00  0.00    +0.000 OA
BRANCH  10  11
ATOM     11  C   UNL     1      48.987   6.842  15.588  0.00  0.00    +0.000 C 
ATOM     12  C   UNL     1      50.439   6.635  16.045  0.00  0.00    +0.000 C 
ATOM     13  O   UNL     1      50.013   5.921  17.232  0.00  0.00    +0.000 OA
ATOM     14  C   UNL     1      48.666   5.838  16.706  0.00  0.00    +0.000 C 
ENDBRANCH  10  11
ENDBRANCH   8  10
ENDBRANCH   2   4
ENDBRANCH   1   2
BRANCH   1  15
ATOM     15  O   UNL     1      44.225   3.548  10.695  0.00  0.00    +0.000 OA
BRANCH  15  19
ATOM     16  C   UNL     1      46.592   0.399   7.682  0.00  0.00    +0.000 C 
ATOM     17  C   UNL     1      46.187   1.807   8.032  0.00  0.00    +0.000 A 
ATOM     18  C   UNL     1      45.410   2.002   9.190  0.00  0.00    +0.000 A 
ATOM     19  C   UNL     1      44.984   3.271   9.584  0.00  0.00    +0.000 A 
ATOM     20  C   UNL     1      45.346   4.371   8.807  0.00  0.00    +0.000 A 
ATOM     21  C   UNL     1      46.120   4.201   7.652  0.00  0.00    +0.000 A 
ATOM     22  C   UNL     1      46.540   2.922   7.248  0.00  0.00    +0.000 A 
BRANCH  22  23
ATOM     23  C   UNL     1      47.374   2.770   6.013  0.00  0.00    +0.000 C 
ATOM     24  N   UNL     1      48.718   2.572   6.181  0.00  0.00    +0.000 N 
ATOM     25  O   UNL     1      46.909   2.838   4.883  0.00  0.00    +0.000 OA
ATOM     26  H   UNL     1      49.194   2.702   7.061  0.00  0.00    +0.000 HD
ATOM     27  H   UNL     1      49.277   2.565   5.336  0.00  0.00    +0.000 HD
ENDBRANCH  22  23
ENDBRANCH  15  19
ENDBRANCH   1  15
TORSDOF 7
ENDMDL
MODEL 4
REMARK VINA RESULT:    -7.140      2.729      8.024
REMARK INTER + INTRA:         -11.254
REMARK INTER:                 -10.342
REMARK INTRA:                  -0.912
REMARK UNBOUND:                -1.192
REMARK  Name = 
REMARK  9 active torsions:
REMARK  status: ('A' for Active; 'I' for Inactive)
REMARK    1  A    between atoms: C_1  and  C_2
REMARK    2  A    between atoms: C_4  and  O_5
REMARK    3  A    between atoms: O_5  and  C_6
REMARK    4  A    between atoms: C_6  and  C_7
REMARK    5  A    between atoms: C_7  and  C_8
REMARK    6  A    between atoms: C_7  and  C_9
REMARK    7  A    between atoms: C_13  and  O_14
REMARK    8  A    between atoms: O_14  and  C_15
REMARK    9  A    between atoms: C_22  and  C_23
REMARK                            x       y       z     vdW  Elec       q    Type
REMARK                         _______ _______ _______ _____ _____    ______ ____
ROOT
ATOM      1  C   UNL     1      46.912   6.320  11.509  0.00  0.00    +0.000 C 
ENDROOT
BRANCH   1   2
ATOM      2  C   UNL     1      45.545   6.394  10.802  0.00  0.00    +0.000 C 
ATOM      3  C   UNL     1      44.453   6.937  11.731  0.00  0.00    +0.000 C 
BRANCH   2   4
ATOM      4  C   UNL     1      45.162   5.030  10.239  0.00  0.00    +0.000 A 
ATOM      5  C   UNL     1      44.445   4.096  11.002  0.00  0.00    +0.000 A 
ATOM      6  C   UNL     1      44.109   2.847  10.472  0.00  0.00    +0.000 A 
ATOM      7  C   UNL     1      44.491   2.505   9.174  0.00  0.00    +0.000 A 
ATOM      8  C   UNL     1      45.219   3.413   8.409  0.00  0.00    +0.000 A 
ATOM      9  C   UNL     1      45.538   4.673   8.934  0.00  0.00    +0.000 A 
BRANCH   8  10
ATOM     10  O   UNL     1      45.643   3.187   7.123  0.00  0.00    +0.000 OA
BRANCH  10  11
ATOM     11  C   UNL     1      47.058   3.005   6.884  0.00  0.00    +0.000 C 
ATOM     12  C   UNL     1      47.521   2.739   5.445  0.00  0.00    +0.000 C 
ATOM     13  O   UNL     1      48.233   1.542   5.845  0.00  0.00    +0.000 OA
ATOM     14  C   UNL     1      47.592   1.587   7.143  0.00  0.00    +0.000 C 
ENDBRANCH  10  11
ENDBRANCH   8  10
ENDBRANCH   2   4
ENDBRANCH   1   2
BRANCH   1  15
ATOM     15  O   UNL     1      46.853   6.892  12.823  0.00  0.00    +0.000 OA
BRANCH  15  19
ATOM     16  C   UNL     1      49.141   5.891  17.109  0.00  0.00    +0.000 C 
ATOM     17  C   UNL     1      48.271   5.442  15.964  0.00  0.00    +0.000 A 
ATOM     18  C   UNL     1      47.985   6.374  14.947  0.00  0.00    +0.000 A 
ATOM     19  C   UNL     1      47.181   6.045  13.854  0.00  0.00    +0.000 A 
ATOM     20  C   UNL     1      46.655   4.756  13.773  0.00  0.00    +0.000 A 
ATOM     21  C   UNL     1      46.926   3.813  14.772  0.00  0.00    +0.000 A 
ATOM     22  C   UNL     1      47.727   4.146  15.878  0.00  0.00    +0.000 A 
BRANCH  22  23
ATOM     23  C   UNL     1      48.009   3.115  16.928  0.00  0.00    +0.000 C 
ATOM     24  N   UNL     1      46.962   2.709  17.709  0.00  0.00    +0.000 N 
ATOM     25  O   UNL     1      49.124   2.649  17.121  0.00  0.00    +0.000 OA
ATOM     26  H   UNL     1      46.073   3.185  17.740  0.00  0.00    +0.000 HD
ATOM     27  H   UNL     1      47.190   2.082  18.471  0.00  0.00    +0.000 HD
ENDBRANCH  22  23
ENDBRANCH  15  19
ENDBRANCH   1  15
TORSDOF 7
ENDMDL
MODEL 5
REMARK VINA RESULT:    -6.347      3.075      8.108
REMARK INTER + INTRA:         -10.136
REMARK INTER:                  -9.158
REMARK INTRA:                  -0.978
REMARK UNBOUND:                -1.192
REMARK  Name = 
REMARK  9 active torsions:
REMARK  status: ('A' for Active; 'I' for Inactive)
REMARK    1  A    between atoms: C_1  and  C_2
REMARK    2  A    between atoms: C_4  and  O_5
REMARK    3  A    between atoms: O_5  and  C_6
REMARK    4  A    between atoms: C_6  and  C_7
REMARK    5  A    between atoms: C_7  and  C_8
REMARK    6  A    between atoms: C_7  and  C_9
REMARK    7  A    between atoms: C_13  and  O_14
REMARK    8  A    between atoms: O_14  and  C_15
REMARK    9  A    between atoms: C_22  and  C_23
REMARK                            x       y       z     vdW  Elec       q    Type
REMARK                         _______ _______ _______ _____ _____    ______ ____
ROOT
ATOM      1  C   UNL     1      47.444   6.658  12.484  0.00  0.00    +0.000 C 
ENDROOT
BRANCH   1   2
ATOM      2  C   UNL     1      46.130   7.283  11.977  0.00  0.00    +0.000 C 
ATOM      3  C   UNL     1      45.624   8.382  12.917  0.00  0.00    +0.000 C 
BRANCH   2   4
ATOM      4  C   UNL     1      45.073   6.204  11.770  0.00  0.00    +0.000 A 
ATOM      5  C   UNL     1      44.080   5.955  12.730  0.00  0.00    +0.000 A 
ATOM      6  C   UNL     1      43.123   4.957  12.527  0.00  0.00    +0.000 A 
ATOM      7  C   UNL     1      43.145   4.184  11.365  0.00  0.00    +0.000 A 
ATOM      8  C   UNL     1      44.134   4.405  10.409  0.00  0.00    +0.000 A 
ATOM      9  C   UNL     1      45.082   5.419  10.605  0.00  0.00    +0.000 A 
BRANCH   8  10
ATOM     10  O   UNL     1      44.250   3.711   9.231  0.00  0.00    +0.000 OA
BRANCH  10  11
ATOM     11  C   UNL     1      45.573   3.345   8.773  0.00  0.00    +0.000 C 
ATOM     12  C   UNL     1      45.861   3.411   7.266  0.00  0.00    +0.000 C 
ATOM     13  O   UNL     1      46.329   2.040   7.247  0.00  0.00    +0.000 OA
ATOM     14  C   UNL     1      45.811   1.838   8.584  0.00  0.00    +0.000 C 
ENDBRANCH  10  11
ENDBRANCH   8  10
ENDBRANCH   2   4
ENDBRANCH   1   2
BRANCH   1  15
ATOM     15  O   UNL     1      47.214   5.385  13.104  0.00  0.00    +0.000 OA
BRANCH  15  19
ATOM     16  C   UNL     1      47.246   3.059  17.484  0.00  0.00    +0.000 C 
ATOM     17  C   UNL     1      47.649   4.236  16.634  0.00  0.00    +0.000 A 
ATOM     18  C   UNL     1      47.237   4.249  15.287  0.00  0.00    +0.000 A 
ATOM     19  C   UNL     1      47.573   5.295  14.426  0.00  0.00    +0.000 A 
ATOM     20  C   UNL     1      48.333   6.354  14.923  0.00  0.00    +0.000 A 
ATOM     21  C   UNL     1      48.754   6.362  16.259  0.00  0.00    +0.000 A 
ATOM     22  C   UNL     1      48.425   5.303  17.124  0.00  0.00    +0.000 A 
BRANCH  22  23
ATOM     23  C   UNL     1      48.880   5.342  18.551  0.00  0.00    +0.000 C 
ATOM     24  N   UNL     1      48.124   6.064  19.433  0.00  0.00    +0.000 N 
ATOM     25  O   UNL     1      49.896   4.782  18.941  0.00  0.00    +0.000 OA
ATOM     26  H   UNL     1      47.397   6.704  19.150  0.00  0.00    +0.000 HD
ATOM     27  H   UNL     1      48.497   6.155  20.371  0.00  0.00    +0.000 HD
ENDBRANCH  22  23
ENDBRANCH  15  19
ENDBRANCH   1  15
TORSDOF 7
ENDMDL
MODEL 6
REMARK VINA RESULT:    -6.198      3.833      7.666
REMARK INTER + INTRA:          -9.926
REMARK INTER:                  -8.808
REMARK INTRA:                  -1.118
REMARK UNBOUND:                -1.192
REMARK  Name = 
REMARK  9 active torsions:
REMARK  status: ('A' for Active; 'I' for Inactive)
REMARK    1  A    between atoms: C_1  and  C_2
REMARK    2  A    between atoms: C_4  and  O_5
REMARK    3  A    between atoms: O_5  and  C_6
REMARK    4  A    between atoms: C_6  and  C_7
REMARK    5  A    between atoms: C_7  and  C_8
REMARK    6  A    between atoms: C_7  and  C_9
REMARK    7  A    between atoms: C_13  and  O_14
REMARK    8  A    between atoms: O_14  and  C_15
REMARK    9  A    between atoms: C_22  and  C_23
REMARK                            x       y       z     vdW  Elec       q    Type
REMARK                         _______ _______ _______ _____ _____    ______ ____
ROOT
ATOM      1  C   UNL     1      47.371   6.037  12.932  0.00  0.00    +0.000 C 
ENDROOT
BRANCH   1   2
ATOM      2  C   UNL     1      46.372   5.027  13.529  0.00  0.00    +0.000 C 
ATOM      3  C   UNL     1      47.004   3.643  13.713  0.00  0.00    +0.000 C 
BRANCH   2   4
ATOM      4  C   UNL     1      45.115   4.950  12.670  0.00  0.00    +0.000 A 
ATOM      5  C   UNL     1      43.870   5.387  13.148  0.00  0.00    +0.000 A 
ATOM      6  C   UNL     1      42.727   5.301  12.349  0.00  0.00    +0.000 A 
ATOM      7  C   UNL     1      42.804   4.770  11.061  0.00  0.00    +0.000 A 
ATOM      8  C   UNL     1      44.027   4.314  10.576  0.00  0.00    +0.000 A 
ATOM      9  C   UNL     1      45.177   4.418  11.371  0.00  0.00    +0.000 A 
BRANCH   8  10
ATOM     10  O   UNL     1      44.222   3.777   9.328  0.00  0.00    +0.000 OA
BRANCH  10  11
ATOM     11  C   UNL     1      45.549   3.330   8.967  0.00  0.00    +0.000 C 
ATOM     12  C   UNL     1      46.002   3.504   7.510  0.00  0.00    +0.000 C 
ATOM     13  O   UNL     1      46.350   2.102   7.401  0.00  0.00    +0.000 OA
ATOM     14  C   UNL     1      45.676   1.831   8.654  0.00  0.00    +0.000 C 
ENDBRANCH  10  11
ENDBRANCH   8  10
ENDBRANCH   2   4
ENDBRANCH   1   2
BRANCH   1  15
ATOM     15  O   UNL     1      47.387   7.261  13.679  0.00  0.00    +0.000 OA
BRANCH  15  19
ATOM     16  C   UNL     1      48.062  11.420  11.063  0.00  0.00    +0.000 C 
ATOM     17  C   UNL     1      47.132  10.438  11.725  0.00  0.00    +0.000 A 
ATOM     18  C   UNL     1      47.702   9.331  12.384  0.00  0.00    +0.000 A 
ATOM     19  C   UNL     1      46.914   8.367  13.017  0.00  0.00    +0.000 A 
ATOM     20  C   UNL     1      45.527   8.515  12.994  0.00  0.00    +0.000 A 
ATOM     21  C   UNL     1      44.939   9.608  12.345  0.00  0.00    +0.000 A 
ATOM     22  C   UNL     1      45.731  10.573  11.698  0.00  0.00    +0.000 A 
BRANCH  22  23
ATOM     23  C   UNL     1      45.076  11.737  11.020  0.00  0.00    +0.000 C 
ATOM     24  N   UNL     1      44.674  12.781  11.808  0.00  0.00    +0.000 N 
ATOM     25  O   UNL     1      44.872  11.775   9.814  0.00  0.00    +0.000 OA
ATOM     26  H   UNL     1      44.630  12.733  12.815  0.00  0.00    +0.000 HD
ATOM     27  H   UNL     1      44.151  13.515  11.345  0.00  0.00    +0.000 HD
ENDBRANCH  22  23
ENDBRANCH  15  19
ENDBRANCH   1  15
TORSDOF 7
ENDMDL
MODEL 7
REMARK VINA RESULT:    -6.191      3.241      8.127
REMARK INTER + INTRA:          -9.917
REMARK INTER:                  -9.175
REMARK INTRA:                  -0.741
REMARK UNBOUND:                -1.192
REMARK  Name = 
REMARK  9 active torsions:
REMARK  status: ('A' for Active; 'I' for Inactive)
REMARK    1  A    between atoms: C_1  and  C_2
REMARK    2  A    between atoms: C_4  and  O_5
REMARK    3  A    between atoms: O_5  and  C_6
REMARK    4  A    between atoms: C_6  and  C_7
REMARK    5  A    between atoms: C_7  and  C_8
REMARK    6  A    between atoms: C_7  and  C_9
REMARK    7  A    between atoms: C_13  and  O_14
REMARK    8  A    between atoms: O_14  and  C_15
REMARK    9  A    between atoms: C_22  and  C_23
REMARK                            x       y       z     vdW  Elec       q    Type
REMARK                         _______ _______ _______ _____ _____    ______ ____
ROOT
ATOM      1  C   UNL     1      45.762   5.611  12.767  0.00  0.00    +0.000 C 
ENDROOT
BRANCH   1   2
ATOM      2  C   UNL     1      45.359   6.075  11.354  0.00  0.00    +0.000 C 
ATOM      3  C   UNL     1      44.130   6.991  11.386  0.00  0.00    +0.000 C 
BRANCH   2   4
ATOM      4  C   UNL     1      45.128   4.874  10.444  0.00  0.00    +0.000 A 
ATOM      5  C   UNL     1      44.344   3.784  10.852  0.00  0.00    +0.000 A 
ATOM      6  C   UNL     1      44.150   2.687  10.008  0.00  0.00    +0.000 A 
ATOM      7  C   UNL     1      44.742   2.656   8.745  0.00  0.00    +0.000 A 
ATOM      8  C   UNL     1      45.538   3.720   8.330  0.00  0.00    +0.000 A 
ATOM      9  C   UNL     1      45.717   4.828   9.170  0.00  0.00    +0.000 A 
BRANCH   8  10
ATOM     10  O   UNL     1      46.165   3.799   7.111  0.00  0.00    +0.000 OA
BRANCH  10  11
ATOM     11  C   UNL     1      46.496   2.570   6.424  0.00  0.00    +0.000 C 
ATOM     12  C   UNL     1      47.581   1.670   7.031  0.00  0.00    +0.000 C 
ATOM     13  O   UNL     1      48.324   1.647   5.788  0.00  0.00    +0.000 OA
ATOM     14  C   UNL     1      47.494   2.712   5.265  0.00  0.00    +0.000 C 
ENDBRANCH  10  11
ENDBRANCH   8  10
ENDBRANCH   2   4
ENDBRANCH   1   2
BRANCH   1  15
ATOM     15  O   UNL     1      47.165   5.320  12.842  0.00  0.00    +0.000 OA
BRANCH  15  19
ATOM     16  C   UNL     1      49.991   9.180  11.535  0.00  0.00    +0.000 C 
ATOM     17  C   UNL     1      49.397   8.310  12.611  0.00  0.00    +0.000 A 
ATOM     18  C   UNL     1      48.576   7.237  12.213  0.00  0.00    +0.000 A 
ATOM     19  C   UNL     1      47.977   6.385  13.144  0.00  0.00    +0.000 A 
ATOM     20  C   UNL     1      48.208   6.608  14.501  0.00  0.00    +0.000 A 
ATOM     21  C   UNL     1      49.022   7.668  14.919  0.00  0.00    +0.000 A 
ATOM     22  C   UNL     1      49.616   8.533  13.983  0.00  0.00    +0.000 A 
BRANCH  22  23
ATOM     23  C   UNL     1      50.489   9.654  14.458  0.00  0.00    +0.000 C 
ATOM     24  N   UNL     1      49.883  10.849  14.735  0.00  0.00    +0.000 N 
ATOM     25  O   UNL     1      51.702   9.546  14.582  0.00  0.00    +0.000 OA
ATOM     26  H   UNL     1      48.934  11.067  14.471  0.00  0.00    +0.000 HD
ATOM     27  H   UNL     1      50.500  11.619  14.965  0.00  0.00    +0.000 HD
ENDBRANCH  22  23
ENDBRANCH  15  19
ENDBRANCH   1  15
TORSDOF 7
ENDMDL
MODEL 8
REMARK VINA RESULT:    -6.066      3.606      5.596
REMARK INTER + INTRA:          -9.740
REMARK INTER:                  -8.465
REMARK INTRA:                  -1.275
REMARK UNBOUND:                -1.192
REMARK  Name = 
REMARK  9 active torsions:
REMARK  status: ('A' for Active; 'I' for Inactive)
REMARK    1  A    between atoms: C_1  and  C_2
REMARK    2  A    between atoms: C_4  and  O_5
REMARK    3  A    between atoms: O_5  and  C_6
REMARK    4  A    between atoms: C_6  and  C_7
REMARK    5  A    between atoms: C_7  and  C_8
REMARK    6  A    between atoms: C_7  and  C_9
REMARK    7  A    between atoms: C_13  and  O_14
REMARK    8  A    between atoms: O_14  and  C_15
REMARK    9  A    between atoms: C_22  and  C_23
REMARK                            x       y       z     vdW  Elec       q    Type
REMARK                         _______ _______ _______ _____ _____    ______ ____
ROOT
ATOM      1  C   UNL     1      47.478   8.485  14.004  0.00  0.00    +0.000 C 
ENDROOT
BRANCH   1   2
ATOM      2  C   UNL     1      48.959   8.854  13.789  0.00  0.00    +0.000 C 
ATOM      3  C   UNL     1      49.379   8.691  12.324  0.00  0.00    +0.000 C 
BRANCH   2   4
ATOM      4  C   UNL     1      49.852   8.035  14.714  0.00  0.00    +0.000 A 
ATOM      5  C   UNL     1      51.216   8.326  14.864  0.00  0.00    +0.000 A 
ATOM      6  C   UNL     1      52.022   7.560  15.711  0.00  0.00    +0.000 A 
ATOM      7  C   UNL     1      51.481   6.484  16.417  0.00  0.00    +0.000 A 
ATOM      8  C   UNL     1      50.133   6.170  16.266  0.00  0.00    +0.000 A 
ATOM      9  C   UNL     1      49.321   6.951  15.432  0.00  0.00    +0.000 A 
BRANCH   8  10
ATOM     10  O   UNL     1      49.494   5.140  16.911  0.00  0.00    +0.000 OA
BRANCH  10  11
ATOM     11  C   UNL     1      48.095   4.908  16.626  0.00  0.00    +0.000 C 
ATOM     12  C   UNL     1      47.154   4.615  17.804  0.00  0.00    +0.000 C 
ATOM     13  O   UNL     1      46.676   3.398  17.181  0.00  0.00    +0.000 OA
ATOM     14  C   UNL     1      47.738   3.476  16.199  0.00  0.00    +0.000 C 
ENDBRANCH  10  11
ENDBRANCH   8  10
ENDBRANCH   2   4
ENDBRANCH   1   2
BRANCH   1  15
ATOM     15  O   UNL     1      46.781   8.369  12.756  0.00  0.00    +0.000 OA
BRANCH  15  19
ATOM     16  C   UNL     1      42.765   5.804  11.381  0.00  0.00    +0.000 C 
ATOM     17  C   UNL     1      44.174   5.826  11.913  0.00  0.00    +0.000 A 
ATOM     18  C   UNL     1      44.796   7.078  12.083  0.00  0.00    +0.000 A 
ATOM     19  C   UNL     1      46.102   7.191  12.562  0.00  0.00    +0.000 A 
ATOM     20  C   UNL     1      46.801   6.027  12.883  0.00  0.00    +0.000 A 
ATOM     21  C   UNL     1      46.203   4.771  12.723  0.00  0.00    +0.000 A 
ATOM     22  C   UNL     1      44.891   4.656  12.230  0.00  0.00    +0.000 A 
BRANCH  22  23
ATOM     23  C   UNL     1      44.272   3.300  12.077  0.00  0.00    +0.000 C 
ATOM     24  N   UNL     1      44.498   2.634  10.903  0.00  0.00    +0.000 N 
ATOM     25  O   UNL     1      43.568   2.789  12.937  0.00  0.00    +0.000 OA
ATOM     26  H   UNL     1      44.896   3.069  10.084  0.00  0.00    +0.000 HD
ATOM     27  H   UNL     1      43.997   1.762  10.781  0.00  0.00    +0.000 HD
ENDBRANCH  22  23
ENDBRANCH  15  19
ENDBRANCH   1  15
TORSDOF 7
ENDMDL
MODEL 9
REMARK VINA RESULT:    -5.924      3.865      6.247
REMARK INTER + INTRA:          -9.541
REMARK INTER:                  -8.165
REMARK INTRA:                  -1.376
REMARK UNBOUND:                -1.192
REMARK  Name = 
REMARK  9 active torsions:
REMARK  status: ('A' for Active; 'I' for Inactive)
REMARK    1  A    between atoms: C_1  and  C_2
REMARK    2  A    between atoms: C_4  and  O_5
REMARK    3  A    between atoms: O_5  and  C_6
REMARK    4  A    between atoms: C_6  and  C_7
REMARK    5  A    between atoms: C_7  and  C_8
REMARK    6  A    between atoms: C_7  and  C_9
REMARK    7  A    between atoms: C_13  and  O_14
REMARK    8  A    between atoms: O_14  and  C_15
REMARK    9  A    between atoms: C_22  and  C_23
REMARK                            x       y       z     vdW  Elec       q    Type
REMARK                         _______ _______ _______ _____ _____    ______ ____
ROOT
ATOM      1  C   UNL     1      48.081   8.604  14.895  0.00  0.00    +0.000 C 
ENDROOT
BRANCH   1   2
ATOM      2  C   UNL     1      49.211   8.415  15.925  0.00  0.00    +0.000 C 
ATOM      3  C   UNL     1      50.445   7.755  15.301  0.00  0.00    +0.000 C 
BRANCH   2   4
ATOM      4  C   UNL     1      48.709   7.621  17.126  0.00  0.00    +0.000 A 
ATOM      5  C   UNL     1      48.005   8.238  18.172  0.00  0.00    +0.000 A 
ATOM      6  C   UNL     1      47.559   7.496  19.269  0.00  0.00    +0.000 A 
ATOM      7  C   UNL     1      47.815   6.127  19.346  0.00  0.00    +0.000 A 
ATOM      8  C   UNL     1      48.528   5.501  18.327  0.00  0.00    +0.000 A 
ATOM      9  C   UNL     1      48.958   6.242  17.217  0.00  0.00    +0.000 A 
BRANCH   8  10
ATOM     10  O   UNL     1      48.834   4.163  18.295  0.00  0.00    +0.000 OA
BRANCH  10  11
ATOM     11  C   UNL     1      49.271   3.584  17.043  0.00  0.00    +0.000 C 
ATOM     12  C   UNL     1      48.295   2.668  16.290  0.00  0.00    +0.000 C 
ATOM     13  O   UNL     1      49.275   1.602  16.223  0.00  0.00    +0.000 OA
ATOM     14  C   UNL     1      50.116   2.306  17.168  0.00  0.00    +0.000 C 
ENDBRANCH  10  11
ENDBRANCH   8  10
ENDBRANCH   2   4
ENDBRANCH   1   2
BRANCH   1  15
ATOM     15  O   UNL     1      48.333   7.854  13.699  0.00  0.00    +0.000 OA
BRANCH  15  19
ATOM     16  C   UNL     1      44.103   6.462  11.514  0.00  0.00    +0.000 C 
ATOM     17  C   UNL     1      45.313   6.117  12.342  0.00  0.00    +0.000 A 
ATOM     18  C   UNL     1      46.233   7.144  12.626  0.00  0.00    +0.000 A 
ATOM     19  C   UNL     1      47.386   6.911  13.378  0.00  0.00    +0.000 A 
ATOM     20  C   UNL     1      47.622   5.625  13.862  0.00  0.00    +0.000 A 
ATOM     21  C   UNL     1      46.720   4.587  13.593  0.00  0.00    +0.000 A 
ATOM     22  C   UNL     1      45.564   4.819  12.826  0.00  0.00    +0.000 A 
BRANCH  22  23
ATOM     23  C   UNL     1      44.612   3.693  12.561  0.00  0.00    +0.000 C 
ATOM     24  N   UNL     1      44.859   2.902  11.472  0.00  0.00    +0.000 N 
ATOM     25  O   UNL     1      43.629   3.476  13.257  0.00  0.00    +0.000 OA
ATOM     26  H   UNL     1      45.525   3.139  10.752  0.00  0.00    +0.000 HD
ATOM     27  H   UNL     1      44.155   2.207  11.257  0.00  0.00    +0.000 HD
ENDBRANCH  22  23
ENDBRANCH  15  19
ENDBRANCH   1  15
TORSDOF 7
ENDMDL
