MODEL 1
REMARK VINA RESULT:    -6.119      0.000      0.000
REMARK INTER + INTRA:          -9.389
REMARK INTER:                  -8.624
REMARK INTRA:                  -0.765
REMARK UNBOUND:                -0.765
REMARK  Name = 
REMARK  8 active torsions:
REMARK  status: ('A' for Active; 'I' for Inactive)
REMARK    1  A    between atoms: C_1  and  O_2
REMARK    2  A    between atoms: O_2  and  C_3
REMARK    3  A    between atoms: C_6  and  C_7
REMARK    4  A    between atoms: C_7  and  C_8
REMARK    5  A    between atoms: C_13  and  C_14
REMARK    6  A    between atoms: C_14  and  C_15
REMARK    7  A    between atoms: C_19  and  O_20
REMARK    8  A    between atoms: O_20  and  C_21
REMARK                            x       y       z     vdW  Elec       q    Type
REMARK                         _______ _______ _______ _____ _____    ______ ____
ROOT
ATOM      1  C   UNL     1      48.181   8.114  12.286  0.00  0.00    +0.000 C 
ATOM      2  C   UNL     1      48.480   9.617  11.911  0.00  0.00    +0.000 C 
ATOM      3  C   UNL     1      49.951  10.025  12.034  0.00  0.00    +0.000 C 
ATOM      4  C   UNL     1      50.842   9.169  11.150  0.00  0.00    +0.000 C 
ATOM      5  C   UNL     1      50.654   7.699  11.464  0.00  0.00    +0.000 C 
ATOM      6  C   UNL     1      49.181   7.274  11.406  0.00  0.00    +0.000 C 
ENDROOT
BRANCH   1  12
ATOM      7  C   UNL     1      45.642   8.736  12.035  0.00  0.00    +0.000 A 
ATOM      8  C   UNL     1      44.350   8.333  11.691  0.00  0.00    +0.000 A 
ATOM      9  C   UNL     1      44.121   7.054  11.203  0.00  0.00    +0.000 A 
ATOM     10  C   UNL     1      45.190   6.183  11.029  0.00  0.00    +0.000 A 
ATOM     11  N   UNL     1      46.447   6.553  11.393  0.00  0.00    +0.000 NA
ATOM     12  C   UNL     1      46.688   7.806  11.906  0.00  0.00    +0.000 A 
BRANCH  10  13
ATOM     13  C   UNL     1      44.967   4.813  10.382  0.00  0.00    +0.000 C 
ATOM     14  C   UNL     1      44.992   3.600  11.323  0.00  0.00    +0.000 C 
ATOM     15  C   UNL     1      43.687   4.067  10.760  0.00  0.00    +0.000 C 
BRANCH  13  16
ATOM     16  C   UNL     1      45.476   4.576   9.045  0.00  0.00    +0.000 C 
ATOM     17  N   UNL     1      45.909   4.422   7.975  0.00  0.00    +0.000 NA
ENDBRANCH  13  16
ENDBRANCH  10  13
BRANCH   7  19
ATOM     18  C   UNL     1      45.209  11.048  11.734  0.00  0.00    +0.000 C 
ATOM     19  O   UNL     1      45.916  10.017  12.418  0.00  0.00    +0.000 OA
ENDBRANCH   7  19
ENDBRANCH   1  12
BRANCH   1  20
ATOM     20  C   UNL     1      48.363   7.916  13.819  0.00  0.00    +0.000 A 
ATOM     21  C   UNL     1      48.447   9.028  14.679  0.00  0.00    +0.000 A 
ATOM     22  C   UNL     1      48.640   8.874  16.057  0.00  0.00    +0.000 A 
ATOM     23  C   UNL     1      48.770   7.601  16.612  0.00  0.00    +0.000 A 
ATOM     24  C   UNL     1      48.693   6.486  15.787  0.00  0.00    +0.000 A 
ATOM     25  C   UNL     1      48.448   6.648  14.417  0.00  0.00    +0.000 A 
BRANCH  24  26
ATOM     26  O   UNL     1      48.809   5.185  16.192  0.00  0.00    +0.000 OA
BRANCH  26  27
ATOM     27  C   UNL     1      47.625   4.414  16.111  0.00  0.00    +0.000 C 
ATOM     28  F   UNL     1      47.965   3.102  16.047  0.00  0.00    +0.000 F 
ATOM     29  F   UNL     1      46.953   4.583  17.280  0.00  0.00    +0.000 F 
ENDBRANCH  26  27
ENDBRANCH  24  26
ENDBRANCH   1  20
TORSDOF 7
ENDMDL
MODEL 2
REMARK VINA RESULT:    -5.955      3.317      5.557
REMARK INTER + INTRA:          -9.157
REMARK INTER:                  -8.434
REMARK INTRA:                  -0.723
REMARK UNBOUND:                -0.765
REMARK  Name = 
REMARK  8 active torsions:
REMARK  status: ('A' for Active; 'I' for Inactive)
REMARK    1  A    between atoms: C_1  and  O_2
REMARK    2  A    between atoms: O_2  and  C_3
REMARK    3  A    between atoms: C_6  and  C_7
REMARK    4  A    between atoms: C_7  and  C_8
REMARK    5  A    between atoms: C_13  and  C_14
REMARK    6  A    between atoms: C_14  and  C_15
REMARK    7  A    between atoms: C_19  and  O_20
REMARK    8  A    between atoms: O_20  and  C_21
REMARK                            x       y       z     vdW  Elec       q    Type
REMARK                         _______ _______ _______ _____ _____    ______ ____
ROOT
ATOM      1  C   UNL     1      47.127   8.506  12.391  0.00  0.00    +0.000 C 
ATOM      2  C   UNL     1      47.452   8.502  13.936  0.00  0.00    +0.000 C 
ATOM      3  C   UNL     1      48.328   7.335  14.401  0.00  0.00    +0.000 C 
ATOM      4  C   UNL     1      49.662   7.316  13.674  0.00  0.00    +0.000 C 
ATOM      5  C   UNL     1      49.455   7.281  12.174  0.00  0.00    +0.000 C 
ATOM      6  C   UNL     1      48.532   8.406  11.687  0.00  0.00    +0.000 C 
ENDROOT
BRANCH   1  12
ATOM      7  C   UNL     1      47.082  11.094  11.948  0.00  0.00    +0.000 A 
ATOM      8  C   UNL     1      46.330  12.237  11.667  0.00  0.00    +0.000 A 
ATOM      9  C   UNL     1      44.960  12.142  11.462  0.00  0.00    +0.000 A 
ATOM     10  C   UNL     1      44.343  10.898  11.507  0.00  0.00    +0.000 A 
ATOM     11  N   UNL     1      45.060   9.784  11.814  0.00  0.00    +0.000 NA
ATOM     12  C   UNL     1      46.413   9.862  12.050  0.00  0.00    +0.000 A 
BRANCH  10  13
ATOM     13  C   UNL     1      42.856  10.766  11.167  0.00  0.00    +0.000 C 
ATOM     14  C   UNL     1      42.498  10.720   9.674  0.00  0.00    +0.000 C 
ATOM     15  C   UNL     1      42.412   9.469  10.489  0.00  0.00    +0.000 C 
BRANCH  13  16
ATOM     16  C   UNL     1      41.878  11.409  12.023  0.00  0.00    +0.000 C 
ATOM     17  N   UNL     1      41.125  11.930  12.741  0.00  0.00    +0.000 NA
ENDBRANCH  13  16
ENDBRANCH  10  13
BRANCH   7  19
ATOM     18  C   UNL     1      48.986  12.213  12.812  0.00  0.00    +0.000 C 
ATOM     19  O   UNL     1      48.442  11.138  12.051  0.00  0.00    +0.000 OA
ENDBRANCH   7  19
ENDBRANCH   1  12
BRANCH   1  20
ATOM     20  C   UNL     1      46.164   7.330  12.060  0.00  0.00    +0.000 A 
ATOM     21  C   UNL     1      45.185   6.924  12.989  0.00  0.00    +0.000 A 
ATOM     22  C   UNL     1      44.328   5.849  12.724  0.00  0.00    +0.000 A 
ATOM     23  C   UNL     1      44.436   5.140  11.528  0.00  0.00    +0.000 A 
ATOM     24  C   UNL     1      45.394   5.518  10.595  0.00  0.00    +0.000 A 
ATOM     25  C   UNL     1      46.213   6.626  10.846  0.00  0.00    +0.000 A 
BRANCH  24  26
ATOM     26  O   UNL     1      45.614   4.912   9.389  0.00  0.00    +0.000 OA
BRANCH  26  27
ATOM     27  C   UNL     1      44.761   3.823   9.089  0.00  0.00    +0.000 C 
ATOM     28  F   UNL     1      44.464   3.857   7.765  0.00  0.00    +0.000 F 
ATOM     29  F   UNL     1      45.473   2.685   9.297  0.00  0.00    +0.000 F 
ENDBRANCH  26  27
ENDBRANCH  24  26
ENDBRANCH   1  20
TORSDOF 7
ENDMDL
MODEL 3
REMARK VINA RESULT:    -5.922      2.591      4.812
REMARK INTER + INTRA:          -9.110
REMARK INTER:                  -7.984
REMARK INTRA:                  -1.127
REMARK UNBOUND:                -0.765
REMARK  Name = 
REMARK  8 active torsions:
REMARK  status: ('A' for Active; 'I' for Inactive)
REMARK    1  A    between atoms: C_1  and  O_2
REMARK    2  A    between atoms: O_2  and  C_3
REMARK    3  A    between atoms: C_6  and  C_7
REMARK    4  A    between atoms: C_7  and  C_8
REMARK    5  A    between atoms: C_13  and  C_14
REMARK    6  A    between atoms: C_14  and  C_15
REMARK    7  A    between atoms: C_19  and  O_20
REMARK    8  A    between atoms: O_20  and  C_21
REMARK                            x       y       z     vdW  Elec       q    Type
REMARK                         _______ _______ _______ _____ _____    ______ ____
ROOT
ATOM      1  C   UNL     1      49.747   7.687  16.324  0.00  0.00    +0.000 C 
ATOM      2  C   UNL     1      48.384   8.003  17.054  0.00  0.00    +0.000 C 
ATOM      3  C   UNL     1      48.520   8.347  18.540  0.00  0.00    +0.000 C 
ATOM      4  C   UNL     1      49.419   9.554  18.751  0.00  0.00    +0.000 C 
ATOM      5  C   UNL     1      50.775   9.330  18.115  0.00  0.00    +0.000 C 
ATOM      6  C   UNL     1      50.666   8.926  16.639  0.00  0.00    +0.000 C 
ENDROOT
BRANCH   1  12
ATOM      7  C   UNL     1      50.341   8.010  13.787  0.00  0.00    +0.000 A 
ATOM      8  C   UNL     1      49.957   7.874  12.452  0.00  0.00    +0.000 A 
ATOM      9  C   UNL     1      48.743   7.284  12.128  0.00  0.00    +0.000 A 
ATOM     10  C   UNL     1      47.923   6.799  13.140  0.00  0.00    +0.000 A 
ATOM     11  N   UNL     1      48.272   6.956  14.445  0.00  0.00    +0.000 NA
ATOM     12  C   UNL     1      49.457   7.567  14.785  0.00  0.00    +0.000 A 
BRANCH  10  13
ATOM     13  C   UNL     1      46.640   6.040  12.791  0.00  0.00    +0.000 C 
ATOM     14  C   UNL     1      45.356   6.878  12.693  0.00  0.00    +0.000 C 
ATOM     15  C   UNL     1      45.991   6.357  11.443  0.00  0.00    +0.000 C 
BRANCH  13  16
ATOM     16  C   UNL     1      46.466   4.688  13.284  0.00  0.00    +0.000 C 
ATOM     17  N   UNL     1      46.357   3.589  13.652  0.00  0.00    +0.000 NA
ENDBRANCH  13  16
ENDBRANCH  10  13
BRANCH   7  19
ATOM     18  C   UNL     1      52.571   8.465  13.119  0.00  0.00    +0.000 C 
ATOM     19  O   UNL     1      51.571   8.491  14.134  0.00  0.00    +0.000 OA
ENDBRANCH   7  19
ENDBRANCH   1  12
BRANCH   1  20
ATOM     20  C   UNL     1      50.309   6.331  16.840  0.00  0.00    +0.000 A 
ATOM     21  C   UNL     1      51.699   6.124  16.939  0.00  0.00    +0.000 A 
ATOM     22  C   UNL     1      52.228   4.902  17.373  0.00  0.00    +0.000 A 
ATOM     23  C   UNL     1      51.379   3.846  17.705  0.00  0.00    +0.000 A 
ATOM     24  C   UNL     1      50.004   4.022  17.615  0.00  0.00    +0.000 A 
ATOM     25  C   UNL     1      49.483   5.264  17.230  0.00  0.00    +0.000 A 
BRANCH  24  26
ATOM     26  O   UNL     1      49.059   3.076  17.902  0.00  0.00    +0.000 OA
BRANCH  26  27
ATOM     27  C   UNL     1      47.922   3.074  17.058  0.00  0.00    +0.000 C 
ATOM     28  F   UNL     1      48.217   2.376  15.933  0.00  0.00    +0.000 F 
ATOM     29  F   UNL     1      46.946   2.381  17.700  0.00  0.00    +0.000 F 
ENDBRANCH  26  27
ENDBRANCH  24  26
ENDBRANCH   1  20
TORSDOF 7
ENDMDL
MODEL 4
REMARK VINA RESULT:    -5.803      2.658      5.408
REMARK INTER + INTRA:          -8.943
REMARK INTER:                  -8.138
REMARK INTRA:                  -0.805
REMARK UNBOUND:                -0.765
REMARK  Name = 
REMARK  8 active torsions:
REMARK  status: ('A' for Active; 'I' for Inactive)
REMARK    1  A    between atoms: C_1  and  O_2
REMARK    2  A    between atoms: O_2  and  C_3
REMARK    3  A    between atoms: C_6  and  C_7
REMARK    4  A    between atoms: C_7  and  C_8
REMARK    5  A    between atoms: C_13  and  C_14
REMARK    6  A    between atoms: C_14  and  C_15
REMARK    7  A    between atoms: C_19  and  O_20
REMARK    8  A    between atoms: O_20  and  C_21
REMARK                            x       y       z     vdW  Elec       q    Type
REMARK                         _______ _______ _______ _____ _____    ______ ____
ROOT
ATOM      1  C   UNL     1      48.715   8.066  13.614  0.00  0.00    +0.000 C 
ATOM      2  C   UNL     1      49.839   7.222  12.898  0.00  0.00    +0.000 C 
ATOM      3  C   UNL     1      50.142   7.651  11.460  0.00  0.00    +0.000 C 
ATOM      4  C   UNL     1      50.580   9.105  11.393  0.00  0.00    +0.000 C 
ATOM      5  C   UNL     1      49.540  10.006  12.026  0.00  0.00    +0.000 C 
ATOM      6  C   UNL     1      49.173   9.564  13.449  0.00  0.00    +0.000 C 
ENDROOT
BRANCH   1  12
ATOM      7  C   UNL     1      48.607   8.557  16.191  0.00  0.00    +0.000 A 
ATOM      8  C   UNL     1      48.610   8.058  17.495  0.00  0.00    +0.000 A 
ATOM      9  C   UNL     1      48.650   6.689  17.722  0.00  0.00    +0.000 A 
ATOM     10  C   UNL     1      48.655   5.813  16.643  0.00  0.00    +0.000 A 
ATOM     11  N   UNL     1      48.687   6.289  15.369  0.00  0.00    +0.000 NA
ATOM     12  C   UNL     1      48.678   7.643  15.126  0.00  0.00    +0.000 A 
BRANCH  10  13
ATOM     13  C   UNL     1      48.580   4.302  16.879  0.00  0.00    +0.000 C 
ATOM     14  C   UNL     1      47.232   3.754  17.371  0.00  0.00    +0.000 C 
ATOM     15  C   UNL     1      47.657   3.501  15.960  0.00  0.00    +0.000 C 
BRANCH  13  16
ATOM     16  C   UNL     1      49.753   3.608  17.374  0.00  0.00    +0.000 C 
ATOM     17  N   UNL     1      50.719   3.088  17.764  0.00  0.00    +0.000 NA
ENDBRANCH  13  16
ENDBRANCH  10  13
BRANCH   7  19
ATOM     18  C   UNL     1      48.830  10.781  16.983  0.00  0.00    +0.000 C 
ATOM     19  O   UNL     1      48.463   9.890  15.934  0.00  0.00    +0.000 OA
ENDBRANCH   7  19
ENDBRANCH   1  12
BRANCH   1  20
ATOM     20  C   UNL     1      47.336   7.748  12.967  0.00  0.00    +0.000 A 
ATOM     21  C   UNL     1      46.346   8.746  12.865  0.00  0.00    +0.000 A 
ATOM     22  C   UNL     1      45.088   8.475  12.313  0.00  0.00    +0.000 A 
ATOM     23  C   UNL     1      44.779   7.192  11.861  0.00  0.00    +0.000 A 
ATOM     24  C   UNL     1      45.737   6.188  11.950  0.00  0.00    +0.000 A 
ATOM     25  C   UNL     1      47.009   6.482  12.456  0.00  0.00    +0.000 A 
BRANCH  24  26
ATOM     26  O   UNL     1      45.570   4.890  11.553  0.00  0.00    +0.000 OA
BRANCH  26  27
ATOM     27  C   UNL     1      45.161   3.990  12.567  0.00  0.00    +0.000 C 
ATOM     28  F   UNL     1      46.224   3.225  12.922  0.00  0.00    +0.000 F 
ATOM     29  F   UNL     1      44.835   4.732  13.657  0.00  0.00    +0.000 F 
ENDBRANCH  26  27
ENDBRANCH  24  26
ENDBRANCH   1  20
TORSDOF 7
ENDMDL
MODEL 5
REMARK VINA RESULT:    -5.765      3.354      6.237
REMARK INTER + INTRA:          -8.889
REMARK INTER:                  -9.414
REMARK INTRA:                   0.525
REMARK UNBOUND:                -0.765
REMARK  Name = 
REMARK  8 active torsions:
REMARK  status: ('A' for Active; 'I' for Inactive)
REMARK    1  A    between atoms: C_1  and  O_2
REMARK    2  A    between atoms: O_2  and  C_3
REMARK    3  A    between atoms: C_6  and  C_7
REMARK    4  A    between atoms: C_7  and  C_8
REMARK    5  A    between atoms: C_13  and  C_14
REMARK    6  A    between atoms: C_14  and  C_15
REMARK    7  A    between atoms: C_19  and  O_20
REMARK    8  A    between atoms: O_20  and  C_21
REMARK                            x       y       z     vdW  Elec       q    Type
REMARK                         _______ _______ _______ _____ _____    ______ ____
ROOT
ATOM      1  C   UNL     1      48.214   7.184  14.017  0.00  0.00    +0.000 C 
ATOM      2  C   UNL     1      49.368   7.241  12.943  0.00  0.00    +0.000 C 
ATOM      3  C   UNL     1      48.959   7.846  11.597  0.00  0.00    +0.000 C 
ATOM      4  C   UNL     1      48.444   9.267  11.759  0.00  0.00    +0.000 C 
ATOM      5  C   UNL     1      47.299   9.311  12.750  0.00  0.00    +0.000 C 
ATOM      6  C   UNL     1      47.662   8.657  14.090  0.00  0.00    +0.000 C 
ENDROOT
BRANCH   1  12
ATOM      7  C   UNL     1      49.562   7.607  16.230  0.00  0.00    +0.000 A 
ATOM      8  C   UNL     1      50.100   7.087  17.409  0.00  0.00    +0.000 A 
ATOM      9  C   UNL     1      49.899   5.755  17.744  0.00  0.00    +0.000 A 
ATOM     10  C   UNL     1      49.130   4.946  16.916  0.00  0.00    +0.000 A 
ATOM     11  N   UNL     1      48.630   5.433  15.749  0.00  0.00    +0.000 NA
ATOM     12  C   UNL     1      48.845   6.742  15.385  0.00  0.00    +0.000 A 
BRANCH  10  13
ATOM     13  C   UNL     1      48.803   3.510  17.334  0.00  0.00    +0.000 C 
ATOM     14  C   UNL     1      48.121   3.334  18.699  0.00  0.00    +0.000 C 
ATOM     15  C   UNL     1      47.323   3.141  17.448  0.00  0.00    +0.000 C 
BRANCH  13  16
ATOM     16  C   UNL     1      49.702   2.441  16.943  0.00  0.00    +0.000 C 
ATOM     17  N   UNL     1      50.457   1.611  16.635  0.00  0.00    +0.000 NA
ENDBRANCH  13  16
ENDBRANCH  10  13
BRANCH   7  19
ATOM     18  C   UNL     1      49.955   9.813  17.003  0.00  0.00    +0.000 C 
ATOM     19  O   UNL     1      49.653   8.933  15.924  0.00  0.00    +0.000 OA
ENDBRANCH   7  19
ENDBRANCH   1  12
BRANCH   1  20
ATOM     20  C   UNL     1      47.155   6.129  13.584  0.00  0.00    +0.000 A 
ATOM     21  C   UNL     1      47.443   4.753  13.661  0.00  0.00    +0.000 A 
ATOM     22  C   UNL     1      46.516   3.787  13.250  0.00  0.00    +0.000 A 
ATOM     23  C   UNL     1      45.279   4.173  12.736  0.00  0.00    +0.000 A 
ATOM     24  C   UNL     1      44.968   5.524  12.648  0.00  0.00    +0.000 A 
ATOM     25  C   UNL     1      45.881   6.481  13.109  0.00  0.00    +0.000 A 
BRANCH  24  26
ATOM     26  O   UNL     1      43.800   6.044  12.161  0.00  0.00    +0.000 OA
BRANCH  26  27
ATOM     27  C   UNL     1      42.882   5.099  11.643  0.00  0.00    +0.000 C 
ATOM     28  F   UNL     1      41.627   5.600  11.766  0.00  0.00    +0.000 F 
ATOM     29  F   UNL     1      43.127   4.988  10.312  0.00  0.00    +0.000 F 
ENDBRANCH  26  27
ENDBRANCH  24  26
ENDBRANCH   1  20
TORSDOF 7
ENDMDL
MODEL 6
REMARK VINA RESULT:    -5.720      3.775      6.236
REMARK INTER + INTRA:          -8.826
REMARK INTER:                  -7.700
REMARK INTRA:                  -1.126
REMARK UNBOUND:                -0.765
REMARK  Name = 
REMARK  8 active torsions:
REMARK  status: ('A' for Active; 'I' for Inactive)
REMARK    1  A    between atoms: C_1  and  O_2
REMARK    2  A    between atoms: O_2  and  C_3
REMARK    3  A    between atoms: C_6  and  C_7
REMARK    4  A    between atoms: C_7  and  C_8
REMARK    5  A    between atoms: C_13  and  C_14
REMARK    6  A    between atoms: C_14  and  C_15
REMARK    7  A    between atoms: C_19  and  O_20
REMARK    8  A    between atoms: O_20  and  C_21
REMARK                            x       y       z     vdW  Elec       q    Type
REMARK                         _______ _______ _______ _____ _____    ______ ____
ROOT
ATOM      1  C   UNL     1      49.387   6.014  17.341  0.00  0.00    +0.000 C 
ATOM      2  C   UNL     1      47.917   5.821  17.882  0.00  0.00    +0.000 C 
ATOM      3  C   UNL     1      47.820   5.568  19.389  0.00  0.00    +0.000 C 
ATOM      4  C   UNL     1      48.432   6.708  20.186  0.00  0.00    +0.000 C 
ATOM      5  C   UNL     1      49.867   6.947  19.762  0.00  0.00    +0.000 C 
ATOM      6  C   UNL     1      50.001   7.146  18.247  0.00  0.00    +0.000 C 
ENDROOT
BRANCH   1  12
ATOM      7  C   UNL     1      50.275   7.249  15.200  0.00  0.00    +0.000 A 
ATOM      8  C   UNL     1      50.065   7.615  13.869  0.00  0.00    +0.000 A 
ATOM      9  C   UNL     1      48.930   7.188  13.195  0.00  0.00    +0.000 A 
ATOM     10  C   UNL     1      48.014   6.366  13.841  0.00  0.00    +0.000 A 
ATOM     11  N   UNL     1      48.192   6.031  15.147  0.00  0.00    +0.000 NA
ATOM     12  C   UNL     1      49.295   6.470  15.841  0.00  0.00    +0.000 A 
BRANCH  10  13
ATOM     13  C   UNL     1      46.820   5.793  13.073  0.00  0.00    +0.000 C 
ATOM     14  C   UNL     1      45.634   6.740  12.847  0.00  0.00    +0.000 C 
ATOM     15  C   UNL     1      46.526   6.393  11.698  0.00  0.00    +0.000 C 
BRANCH  13  16
ATOM     16  C   UNL     1      46.477   4.395  13.249  0.00  0.00    +0.000 C 
ATOM     17  N   UNL     1      46.217   3.264  13.349  0.00  0.00    +0.000 NA
ENDBRANCH  13  16
ENDBRANCH  10  13
BRANCH   7  19
ATOM     18  C   UNL     1      52.276   8.520  15.227  0.00  0.00    +0.000 C 
ATOM     19  O   UNL     1      51.428   7.564  15.857  0.00  0.00    +0.000 OA
ENDBRANCH   7  19
ENDBRANCH   1  12
BRANCH   1  20
ATOM     20  C   UNL     1      50.148   4.659  17.412  0.00  0.00    +0.000 A 
ATOM     21  C   UNL     1      49.467   3.444  17.204  0.00  0.00    +0.000 A 
ATOM     22  C   UNL     1      50.125   2.212  17.292  0.00  0.00    +0.000 A 
ATOM     23  C   UNL     1      51.483   2.160  17.606  0.00  0.00    +0.000 A 
ATOM     24  C   UNL     1      52.180   3.344  17.817  0.00  0.00    +0.000 A 
ATOM     25  C   UNL     1      51.524   4.573  17.676  0.00  0.00    +0.000 A 
BRANCH  24  26
ATOM     26  O   UNL     1      53.507   3.442  18.135  0.00  0.00    +0.000 OA
BRANCH  26  27
ATOM     27  C   UNL     1      53.881   2.866  19.373  0.00  0.00    +0.000 C 
ATOM     28  F   UNL     1      55.149   3.249  19.664  0.00  0.00    +0.000 F 
ATOM     29  F   UNL     1      53.082   3.410  20.328  0.00  0.00    +0.000 F 
ENDBRANCH  26  27
ENDBRANCH  24  26
ENDBRANCH   1  20
TORSDOF 7
ENDMDL
MODEL 7
REMARK VINA RESULT:    -5.535      2.841      4.678
REMARK INTER + INTRA:          -8.566
REMARK INTER:                  -7.802
REMARK INTRA:                  -0.764
REMARK UNBOUND:                -0.765
REMARK  Name = 
REMARK  8 active torsions:
REMARK  status: ('A' for Active; 'I' for Inactive)
REMARK    1  A    between atoms: C_1  and  O_2
REMARK    2  A    between atoms: O_2  and  C_3
REMARK    3  A    between atoms: C_6  and  C_7
REMARK    4  A    between atoms: C_7  and  C_8
REMARK    5  A    between atoms: C_13  and  C_14
REMARK    6  A    between atoms: C_14  and  C_15
REMARK    7  A    between atoms: C_19  and  O_20
REMARK    8  A    between atoms: O_20  and  C_21
REMARK                            x       y       z     vdW  Elec       q    Type
REMARK                         _______ _______ _______ _____ _____    ______ ____
ROOT
ATOM      1  C   UNL     1      48.684   7.634  13.465  0.00  0.00    +0.000 C 
ATOM      2  C   UNL     1      47.667   8.815  13.217  0.00  0.00    +0.000 C 
ATOM      3  C   UNL     1      48.312  10.125  12.755  0.00  0.00    +0.000 C 
ATOM      4  C   UNL     1      49.087   9.939  11.462  0.00  0.00    +0.000 C 
ATOM      5  C   UNL     1      50.123   8.843  11.612  0.00  0.00    +0.000 C 
ATOM      6  C   UNL     1      49.514   7.533  12.131  0.00  0.00    +0.000 C 
ENDROOT
BRANCH   1  12
ATOM      7  C   UNL     1      46.875   5.836  12.840  0.00  0.00    +0.000 A 
ATOM      8  C   UNL     1      46.183   4.676  13.194  0.00  0.00    +0.000 A 
ATOM      9  C   UNL     1      46.487   4.011  14.374  0.00  0.00    +0.000 A 
ATOM     10  C   UNL     1      47.505   4.489  15.190  0.00  0.00    +0.000 A 
ATOM     11  N   UNL     1      48.162   5.636  14.872  0.00  0.00    +0.000 NA
ATOM     12  C   UNL     1      47.854   6.325  13.721  0.00  0.00    +0.000 A 
BRANCH  10  13
ATOM     13  C   UNL     1      47.928   3.700  16.432  0.00  0.00    +0.000 C 
ATOM     14  C   UNL     1      48.072   4.501  17.734  0.00  0.00    +0.000 C 
ATOM     15  C   UNL     1      46.904   3.582  17.561  0.00  0.00    +0.000 C 
BRANCH  13  16
ATOM     16  C   UNL     1      48.845   2.587  16.280  0.00  0.00    +0.000 C 
ATOM     17  N   UNL     1      49.559   1.672  16.189  0.00  0.00    +0.000 NA
ENDBRANCH  13  16
ENDBRANCH  10  13
BRANCH   7  19
ATOM     18  C   UNL     1      45.474   6.117  10.947  0.00  0.00    +0.000 C 
ATOM     19  O   UNL     1      46.673   6.453  11.639  0.00  0.00    +0.000 OA
ENDBRANCH   7  19
ENDBRANCH   1  12
BRANCH   1  20
ATOM     20  C   UNL     1      49.542   7.943  14.726  0.00  0.00    +0.000 A 
ATOM     21  C   UNL     1      50.923   7.667  14.737  0.00  0.00    +0.000 A 
ATOM     22  C   UNL     1      51.709   7.911  15.870  0.00  0.00    +0.000 A 
ATOM     23  C   UNL     1      51.130   8.423  17.031  0.00  0.00    +0.000 A 
ATOM     24  C   UNL     1      49.769   8.704  17.048  0.00  0.00    +0.000 A 
ATOM     25  C   UNL     1      49.001   8.505  15.894  0.00  0.00    +0.000 A 
BRANCH  24  26
ATOM     26  O   UNL     1      49.072   9.201  18.114  0.00  0.00    +0.000 OA
BRANCH  26  27
ATOM     27  C   UNL     1      47.680   9.366  17.909  0.00  0.00    +0.000 C 
ATOM     28  F   UNL     1      47.018   8.783  18.940  0.00  0.00    +0.000 F 
ATOM     29  F   UNL     1      47.417  10.696  17.982  0.00  0.00    +0.000 F 
ENDBRANCH  26  27
ENDBRANCH  24  26
ENDBRANCH   1  20
TORSDOF 7
ENDMDL
MODEL 8
REMARK VINA RESULT:    -5.457      2.890      5.308
REMARK INTER + INTRA:          -8.454
REMARK INTER:                  -7.436
REMARK INTRA:                  -1.018
REMARK UNBOUND:                -0.765
REMARK  Name = 
REMARK  8 active torsions:
REMARK  status: ('A' for Active; 'I' for Inactive)
REMARK    1  A    between atoms: C_1  and  O_2
REMARK    2  A    between atoms: O_2  and  C_3
REMARK    3  A    between atoms: C_6  and  C_7
REMARK    4  A    between atoms: C_7  and  C_8
REMARK    5  A    between atoms: C_13  and  C_14
REMARK    6  A    between atoms: C_14  and  C_15
REMARK    7  A    between atoms: C_19  and  O_20
REMARK    8  A    between atoms: O_20  and  C_21
REMARK                            x       y       z     vdW  Elec       q    Type
REMARK                         _______ _______ _______ _____ _____    ______ ____
ROOT
ATOM      1  C   UNL     1      49.716   6.413  16.512  0.00  0.00    +0.000 C 
ATOM      2  C   UNL     1      50.658   7.281  15.590  0.00  0.00    +0.000 C 
ATOM      3  C   UNL     1      51.942   7.769  16.267  0.00  0.00    +0.000 C 
ATOM      4  C   UNL     1      52.779   6.607  16.774  0.00  0.00    +0.000 C 
ATOM      5  C   UNL     1      51.969   5.729  17.705  0.00  0.00    +0.000 C 
ATOM      6  C   UNL     1      50.647   5.273  17.074  0.00  0.00    +0.000 C 
ENDROOT
BRANCH   1  12
ATOM      7  C   UNL     1      47.727   4.772  16.018  0.00  0.00    +0.000 A 
ATOM      8  C   UNL     1      46.760   4.316  15.119  0.00  0.00    +0.000 A 
ATOM      9  C   UNL     1      46.620   4.916  13.876  0.00  0.00    +0.000 A 
ATOM     10  C   UNL     1      47.427   5.996  13.539  0.00  0.00    +0.000 A 
ATOM     11  N   UNL     1      48.395   6.426  14.393  0.00  0.00    +0.000 NA
ATOM     12  C   UNL     1      48.568   5.824  15.617  0.00  0.00    +0.000 A 
BRANCH  10  13
ATOM     13  C   UNL     1      47.203   6.741  12.220  0.00  0.00    +0.000 C 
ATOM     14  C   UNL     1      47.182   8.274  12.296  0.00  0.00    +0.000 C 
ATOM     15  C   UNL     1      48.365   7.584  11.693  0.00  0.00    +0.000 C 
BRANCH  13  16
ATOM     16  C   UNL     1      46.331   6.154  11.220  0.00  0.00    +0.000 C 
ATOM     17  N   UNL     1      45.660   5.650  10.414  0.00  0.00    +0.000 NA
ENDBRANCH  13  16
ENDBRANCH  10  13
BRANCH   7  19
ATOM     18  C   UNL     1      47.567   2.879  17.438  0.00  0.00    +0.000 C 
ATOM     19  O   UNL     1      47.821   4.273  17.285  0.00  0.00    +0.000 OA
ENDBRANCH   7  19
ENDBRANCH   1  12
BRANCH   1  20
ATOM     20  C   UNL     1      49.087   7.318  17.610  0.00  0.00    +0.000 A 
ATOM     21  C   UNL     1      48.453   8.528  17.263  0.00  0.00    +0.000 A 
ATOM     22  C   UNL     1      47.906   9.372  18.237  0.00  0.00    +0.000 A 
ATOM     23  C   UNL     1      47.991   9.037  19.588  0.00  0.00    +0.000 A 
ATOM     24  C   UNL     1      48.613   7.851  19.959  0.00  0.00    +0.000 A 
ATOM     25  C   UNL     1      49.111   6.988  18.974  0.00  0.00    +0.000 A 
BRANCH  24  26
ATOM     26  O   UNL     1      48.772   7.401  21.240  0.00  0.00    +0.000 OA
BRANCH  26  27
ATOM     27  C   UNL     1      47.594   6.942  21.877  0.00  0.00    +0.000 C 
ATOM     28  F   UNL     1      46.850   8.018  22.240  0.00  0.00    +0.000 F 
ATOM     29  F   UNL     1      46.871   6.267  20.947  0.00  0.00    +0.000 F 
ENDBRANCH  26  27
ENDBRANCH  24  26
ENDBRANCH   1  20
TORSDOF 7
ENDMDL
MODEL 9
REMARK VINA RESULT:    -5.314      3.500      6.335
REMARK INTER + INTRA:          -8.253
REMARK INTER:                  -7.468
REMARK INTRA:                  -0.786
REMARK UNBOUND:                -0.765
REMARK  Name = 
REMARK  8 active torsions:
REMARK  status: ('A' for Active; 'I' for Inactive)
REMARK    1  A    between atoms: C_1  and  O_2
REMARK    2  A    between atoms: O_2  and  C_3
REMARK    3  A    between atoms: C_6  and  C_7
REMARK    4  A    between atoms: C_7  and  C_8
REMARK    5  A    between atoms: C_13  and  C_14
REMARK    6  A    between atoms: C_14  and  C_15
REMARK    7  A    between atoms: C_19  and  O_20
REMARK    8  A    between atoms: O_20  and  C_21
REMARK                            x       y       z     vdW  Elec       q    Type
REMARK                         _______ _______ _______ _____ _____    ______ ____
ROOT
ATOM      1  C   UNL     1      47.934   7.599  13.509  0.00  0.00    +0.000 C 
ATOM      2  C   UNL     1      46.609   8.450  13.612  0.00  0.00    +0.000 C 
ATOM      3  C   UNL     1      45.794   8.522  12.318  0.00  0.00    +0.000 C 
ATOM      4  C   UNL     1      45.388   7.138  11.839  0.00  0.00    +0.000 C 
ATOM      5  C   UNL     1      46.604   6.251  11.672  0.00  0.00    +0.000 C 
ATOM      6  C   UNL     1      47.473   6.208  12.936  0.00  0.00    +0.000 C 
ENDROOT
BRANCH   1  12
ATOM      7  C   UNL     1      49.022   8.531  15.710  0.00  0.00    +0.000 A 
ATOM      8  C   UNL     1      49.554   8.268  16.974  0.00  0.00    +0.000 A 
ATOM      9  C   UNL     1      49.563   6.974  17.476  0.00  0.00    +0.000 A 
ATOM     10  C   UNL     1      49.009   5.942  16.727  0.00  0.00    +0.000 A 
ATOM     11  N   UNL     1      48.519   6.182  15.481  0.00  0.00    +0.000 NA
ATOM     12  C   UNL     1      48.530   7.453  14.955  0.00  0.00    +0.000 A 
BRANCH  10  13
ATOM     13  C   UNL     1      48.906   4.534  17.319  0.00  0.00    +0.000 C 
ATOM     14  C   UNL     1      50.175   3.672  17.258  0.00  0.00    +0.000 C 
ATOM     15  C   UNL     1      49.737   4.243  18.569  0.00  0.00    +0.000 C 
BRANCH  13  16
ATOM     16  C   UNL     1      47.654   3.811  17.198  0.00  0.00    +0.000 C 
ATOM     17  N   UNL     1      46.646   3.231  17.145  0.00  0.00    +0.000 NA
ENDBRANCH  13  16
ENDBRANCH  10  13
BRANCH   7  19
ATOM     18  C   UNL     1      50.030  10.657  15.417  0.00  0.00    +0.000 C 
ATOM     19  O   UNL     1      48.904   9.804  15.232  0.00  0.00    +0.000 OA
ENDBRANCH   7  19
ENDBRANCH   1  12
BRANCH   1  20
ATOM     20  C   UNL     1      48.963   8.347  12.612  0.00  0.00    +0.000 A 
ATOM     21  C   UNL     1      48.666   9.623  12.095  0.00  0.00    +0.000 A 
ATOM     22  C   UNL     1      49.564  10.302  11.262  0.00  0.00    +0.000 A 
ATOM     23  C   UNL     1      50.780   9.714  10.910  0.00  0.00    +0.000 A 
ATOM     24  C   UNL     1      51.098   8.455  11.406  0.00  0.00    +0.000 A 
ATOM     25  C   UNL     1      50.215   7.807  12.280  0.00  0.00    +0.000 A 
BRANCH  24  26
ATOM     26  O   UNL     1      52.246   7.761  11.141  0.00  0.00    +0.000 OA
BRANCH  26  27
ATOM     27  C   UNL     1      52.239   7.007   9.943  0.00  0.00    +0.000 C 
ATOM     28  F   UNL     1      52.743   7.775   8.944  0.00  0.00    +0.000 F 
ATOM     29  F   UNL     1      53.105   5.975  10.112  0.00  0.00    +0.000 F 
ENDBRANCH  26  27
ENDBRANCH  24  26
ENDBRANCH   1  20
TORSDOF 7
ENDMDL
