MODEL 1
REMARK VINA RESULT:    -8.169      0.000      0.000
REMARK INTER + INTRA:         -10.199
REMARK INTER:                  -9.601
REMARK INTRA:                  -0.598
REMARK UNBOUND:                -0.598
REMARK  Name = 
REMARK  3 active torsions:
REMARK  status: ('A' for Active; 'I' for Inactive)
REMARK    1  A    between atoms: C_4  and  C_5
REMARK    2  A    between atoms: C_9  and  C_10
REMARK    3  A    between atoms: C_10  and  N_11
REMARK                            x       y       z     vdW  Elec       q    Type
REMARK                         _______ _______ _______ _____ _____    ______ ____
ROOT
ATOM      1  C   UNL     1      44.871   3.256   9.486  0.00  0.00    +0.000 A 
ATOM      2  C   UNL     1      44.016   2.400  10.184  0.00  0.00    +0.000 A 
ATOM      3  N   UNL     1      43.221   2.757  11.224  0.00  0.00    +0.000 NA
ATOM      4  C   UNL     1      43.278   4.047  11.612  0.00  0.00    +0.000 A 
ATOM      5  C   UNL     1      44.075   5.004  10.999  0.00  0.00    +0.000 A 
ATOM      6  C   UNL     1      44.881   4.589   9.929  0.00  0.00    +0.000 A 
ENDROOT
BRANCH   1  10
ATOM      7  C   UNL     1      47.325   1.921   6.197  0.00  0.00    +0.000 A 
ATOM      8  C   UNL     1      46.832   3.221   6.218  0.00  0.00    +0.000 A 
ATOM      9  C   UNL     1      46.038   3.655   7.285  0.00  0.00    +0.000 A 
ATOM     10  C   UNL     1      45.705   2.797   8.351  0.00  0.00    +0.000 A 
ATOM     11  C   UNL     1      46.209   1.484   8.294  0.00  0.00    +0.000 A 
ATOM     12  C   UNL     1      47.014   1.052   7.237  0.00  0.00    +0.000 A 
ENDBRANCH   1  10
BRANCH   5  13
ATOM     13  C   UNL     1      44.048   6.432  11.460  0.00  0.00    +0.000 C 
BRANCH  13  14
ATOM     14  N   UNL     1      44.605   6.552  12.788  0.00  0.00    +0.000 N 
ATOM     15  C   UNL     1      45.992   6.684  12.768  0.00  0.00    +0.000 A 
ATOM     16  N   UNL     1      46.582   7.309  11.740  0.00  0.00    +0.000 NA
ATOM     17  C   UNL     1      47.923   7.393  11.752  0.00  0.00    +0.000 A 
ATOM     18  C   UNL     1      48.698   6.874  12.753  0.00  0.00    +0.000 A 
ATOM     19  C   UNL     1      48.004   6.258  13.766  0.00  0.00    +0.000 A 
ATOM     20  N   UNL     1      46.661   6.141  13.791  0.00  0.00    +0.000 NA
ATOM     21  H   UNL     1      44.395   5.795  13.431  0.00  0.00    +0.000 HD
ENDBRANCH  13  14
ENDBRANCH   5  13
TORSDOF 3
ENDMDL
MODEL 2
REMARK VINA RESULT:    -7.958      2.045      6.167
REMARK INTER + INTRA:          -9.951
REMARK INTER:                  -9.445
REMARK INTRA:                  -0.506
REMARK UNBOUND:                -0.598
REMARK  Name = 
REMARK  3 active torsions:
REMARK  status: ('A' for Active; 'I' for Inactive)
REMARK    1  A    between atoms: C_4  and  C_5
REMARK    2  A    between atoms: C_9  and  C_10
REMARK    3  A    between atoms: C_10  and  N_11
REMARK                            x       y       z     vdW  Elec       q    Type
REMARK                         _______ _______ _______ _____ _____    ______ ____
ROOT
ATOM      1  C   UNL     1      46.365   6.123  12.191  0.00  0.00    +0.000 A 
ATOM      2  C   UNL     1      46.670   5.245  13.235  0.00  0.00    +0.000 A 
ATOM      3  N   UNL     1      46.122   4.017  13.417  0.00  0.00    +0.000 NA
ATOM      4  C   UNL     1      45.200   3.628  12.514  0.00  0.00    +0.000 A 
ATOM      5  C   UNL     1      44.812   4.397  11.425  0.00  0.00    +0.000 A 
ATOM      6  C   UNL     1      45.404   5.659  11.277  0.00  0.00    +0.000 A 
ENDROOT
BRANCH   1  10
ATOM      7  C   UNL     1      48.265   9.977  11.803  0.00  0.00    +0.000 A 
ATOM      8  C   UNL     1      46.914   9.893  12.125  0.00  0.00    +0.000 A 
ATOM      9  C   UNL     1      46.298   8.644  12.252  0.00  0.00    +0.000 A 
ATOM     10  C   UNL     1      47.012   7.447  12.049  0.00  0.00    +0.000 A 
ATOM     11  C   UNL     1      48.374   7.566  11.712  0.00  0.00    +0.000 A 
ATOM     12  C   UNL     1      48.995   8.812  11.598  0.00  0.00    +0.000 A 
ENDBRANCH   1  10
BRANCH   5  13
ATOM     13  C   UNL     1      43.811   3.872  10.437  0.00  0.00    +0.000 C 
BRANCH  13  14
ATOM     14  N   UNL     1      44.119   4.332   9.102  0.00  0.00    +0.000 N 
ATOM     15  C   UNL     1      45.090   3.546   8.485  0.00  0.00    +0.000 A 
ATOM     16  N   UNL     1      45.163   2.240   8.771  0.00  0.00    +0.000 NA
ATOM     17  C   UNL     1      46.129   1.525   8.168  0.00  0.00    +0.000 A 
ATOM     18  C   UNL     1      47.027   2.069   7.291  0.00  0.00    +0.000 A 
ATOM     19  C   UNL     1      46.869   3.413   7.055  0.00  0.00    +0.000 A 
ATOM     20  N   UNL     1      45.922   4.171   7.643  0.00  0.00    +0.000 NA
ATOM     21  H   UNL     1      44.432   5.295   9.023  0.00  0.00    +0.000 HD
ENDBRANCH  13  14
ENDBRANCH   5  13
TORSDOF 3
ENDMDL
MODEL 3
REMARK VINA RESULT:    -7.852      1.336      1.873
REMARK INTER + INTRA:          -9.827
REMARK INTER:                  -9.350
REMARK INTRA:                  -0.476
REMARK UNBOUND:                -0.598
REMARK  Name = 
REMARK  3 active torsions:
REMARK  status: ('A' for Active; 'I' for Inactive)
REMARK    1  A    between atoms: C_4  and  C_5
REMARK    2  A    between atoms: C_9  and  C_10
REMARK    3  A    between atoms: C_10  and  N_11
REMARK                            x       y       z     vdW  Elec       q    Type
REMARK                         _______ _______ _______ _____ _____    ______ ____
ROOT
ATOM      1  C   UNL     1      44.811   3.289   9.545  0.00  0.00    +0.000 A 
ATOM      2  C   UNL     1      44.001   2.408  10.265  0.00  0.00    +0.000 A 
ATOM      3  N   UNL     1      43.183   2.750  11.292  0.00  0.00    +0.000 NA
ATOM      4  C   UNL     1      43.167   4.052  11.643  0.00  0.00    +0.000 A 
ATOM      5  C   UNL     1      43.914   5.033  11.005  0.00  0.00    +0.000 A 
ATOM      6  C   UNL     1      44.746   4.633   9.950  0.00  0.00    +0.000 A 
ENDROOT
BRANCH   1  10
ATOM      7  C   UNL     1      47.300   1.994   6.267  0.00  0.00    +0.000 A 
ATOM      8  C   UNL     1      46.982   1.111   7.294  0.00  0.00    +0.000 A 
ATOM      9  C   UNL     1      46.174   1.530   8.356  0.00  0.00    +0.000 A 
ATOM     10  C   UNL     1      45.673   2.845   8.426  0.00  0.00    +0.000 A 
ATOM     11  C   UNL     1      46.023   3.717   7.378  0.00  0.00    +0.000 A 
ATOM     12  C   UNL     1      46.819   3.297   6.308  0.00  0.00    +0.000 A 
ENDBRANCH   1  10
BRANCH   5  13
ATOM     13  C   UNL     1      43.806   6.470  11.425  0.00  0.00    +0.000 C 
BRANCH  13  14
ATOM     14  N   UNL     1      44.618   6.725  12.593  0.00  0.00    +0.000 N 
ATOM     15  C   UNL     1      45.358   7.899  12.474  0.00  0.00    +0.000 A 
ATOM     16  N   UNL     1      44.860   8.927  11.774  0.00  0.00    +0.000 NA
ATOM     17  C   UNL     1      45.619  10.031  11.667  0.00  0.00    +0.000 A 
ATOM     18  C   UNL     1      46.859  10.147  12.234  0.00  0.00    +0.000 A 
ATOM     19  C   UNL     1      47.282   9.045  12.938  0.00  0.00    +0.000 A 
ATOM     20  N   UNL     1      46.560   7.913  13.063  0.00  0.00    +0.000 NA
ATOM     21  H   UNL     1      45.273   5.993  12.849  0.00  0.00    +0.000 HD
ENDBRANCH  13  14
ENDBRANCH   5  13
TORSDOF 3
ENDMDL
MODEL 4
REMARK VINA RESULT:    -7.624      1.789      6.173
REMARK INTER + INTRA:          -9.560
REMARK INTER:                  -9.016
REMARK INTRA:                  -0.544
REMARK UNBOUND:                -0.598
REMARK  Name = 
REMARK  3 active torsions:
REMARK  status: ('A' for Active; 'I' for Inactive)
REMARK    1  A    between atoms: C_4  and  C_5
REMARK    2  A    between atoms: C_9  and  C_10
REMARK    3  A    between atoms: C_10  and  N_11
REMARK                            x       y       z     vdW  Elec       q    Type
REMARK                         _______ _______ _______ _____ _____    ______ ____
ROOT
ATOM      1  C   UNL     1      45.585   5.719  12.175  0.00  0.00    +0.000 A 
ATOM      2  C   UNL     1      44.422   5.901  12.929  0.00  0.00    +0.000 A 
ATOM      3  N   UNL     1      43.223   5.316  12.681  0.00  0.00    +0.000 NA
ATOM      4  C   UNL     1      43.159   4.502  11.609  0.00  0.00    +0.000 A 
ATOM      5  C   UNL     1      44.240   4.226  10.782  0.00  0.00    +0.000 A 
ATOM      6  C   UNL     1      45.459   4.853  11.076  0.00  0.00    +0.000 A 
ENDROOT
BRANCH   1  10
ATOM      7  C   UNL     1      49.328   7.637  13.138  0.00  0.00    +0.000 A 
ATOM      8  C   UNL     1      48.697   6.825  14.076  0.00  0.00    +0.000 A 
ATOM      9  C   UNL     1      47.484   6.202  13.763  0.00  0.00    +0.000 A 
ATOM     10  C   UNL     1      46.864   6.384  12.512  0.00  0.00    +0.000 A 
ATOM     11  C   UNL     1      47.521   7.221  11.590  0.00  0.00    +0.000 A 
ATOM     12  C   UNL     1      48.740   7.834  11.894  0.00  0.00    +0.000 A 
ENDBRANCH   1  10
BRANCH   5  13
ATOM     13  C   UNL     1      44.100   3.270   9.633  0.00  0.00    +0.000 C 
BRANCH  13  14
ATOM     14  N   UNL     1      45.098   2.228   9.708  0.00  0.00    +0.000 N 
ATOM     15  C   UNL     1      45.881   2.164   8.557  0.00  0.00    +0.000 A 
ATOM     16  N   UNL     1      46.139   3.284   7.870  0.00  0.00    +0.000 NA
ATOM     17  C   UNL     1      46.879   3.171   6.754  0.00  0.00    +0.000 A 
ATOM     18  C   UNL     1      47.370   1.978   6.297  0.00  0.00    +0.000 A 
ATOM     19  C   UNL     1      47.059   0.887   7.072  0.00  0.00    +0.000 A 
ATOM     20  N   UNL     1      46.312   0.951   8.192  0.00  0.00    +0.000 NA
ATOM     21  H   UNL     1      44.752   1.289   9.877  0.00  0.00    +0.000 HD
ENDBRANCH  13  14
ENDBRANCH   5  13
TORSDOF 3
ENDMDL
MODEL 5
REMARK VINA RESULT:    -7.603      1.553      2.465
REMARK INTER + INTRA:          -9.534
REMARK INTER:                  -9.041
REMARK INTRA:                  -0.494
REMARK UNBOUND:                -0.598
REMARK  Name = 
REMARK  3 active torsions:
REMARK  status: ('A' for Active; 'I' for Inactive)
REMARK    1  A    between atoms: C_4  and  C_5
REMARK    2  A    between atoms: C_9  and  C_10
REMARK    3  A    between atoms: C_10  and  N_11
REMARK                            x       y       z     vdW  Elec       q    Type
REMARK                         _______ _______ _______ _____ _____    ______ ____
ROOT
ATOM      1  C   UNL     1      44.981   2.868   9.920  0.00  0.00    +0.000 A 
ATOM      2  C   UNL     1      43.859   2.113  10.271  0.00  0.00    +0.000 A 
ATOM      3  N   UNL     1      43.138   2.256  11.412  0.00  0.00    +0.000 NA
ATOM      4  C   UNL     1      43.557   3.203  12.275  0.00  0.00    +0.000 A 
ATOM      5  C   UNL     1      44.649   4.029  12.046  0.00  0.00    +0.000 A 
ATOM      6  C   UNL     1      45.364   3.845  10.854  0.00  0.00    +0.000 A 
ENDROOT
BRANCH   1  10
ATOM      7  C   UNL     1      47.089   2.271   6.203  0.00  0.00    +0.000 A 
ATOM      8  C   UNL     1      46.908   1.208   7.082  0.00  0.00    +0.000 A 
ATOM      9  C   UNL     1      46.223   1.401   8.286  0.00  0.00    +0.000 A 
ATOM     10  C   UNL     1      45.713   2.662   8.650  0.00  0.00    +0.000 A 
ATOM     11  C   UNL     1      45.924   3.720   7.745  0.00  0.00    +0.000 A 
ATOM     12  C   UNL     1      46.596   3.527   6.534  0.00  0.00    +0.000 A 
ENDBRANCH   1  10
BRANCH   5  13
ATOM     13  C   UNL     1      45.025   5.093  13.037  0.00  0.00    +0.000 C 
BRANCH  13  14
ATOM     14  N   UNL     1      46.441   5.373  12.975  0.00  0.00    +0.000 N 
ATOM     15  C   UNL     1      47.063   5.218  14.212  0.00  0.00    +0.000 A 
ATOM     16  N   UNL     1      46.604   4.300  15.073  0.00  0.00    +0.000 NA
ATOM     17  C   UNL     1      47.222   4.201  16.262  0.00  0.00    +0.000 A 
ATOM     18  C   UNL     1      48.281   4.987  16.626  0.00  0.00    +0.000 A 
ATOM     19  C   UNL     1      48.684   5.894  15.675  0.00  0.00    +0.000 A 
ATOM     20  N   UNL     1      48.090   6.036  14.474  0.00  0.00    +0.000 NA
ATOM     21  H   UNL     1      46.699   6.294  12.633  0.00  0.00    +0.000 HD
ENDBRANCH  13  14
ENDBRANCH   5  13
TORSDOF 3
ENDMDL
MODEL 6
REMARK VINA RESULT:    -7.095      2.038      2.766
REMARK INTER + INTRA:          -8.938
REMARK INTER:                  -8.513
REMARK INTRA:                  -0.425
REMARK UNBOUND:                -0.598
REMARK  Name = 
REMARK  3 active torsions:
REMARK  status: ('A' for Active; 'I' for Inactive)
REMARK    1  A    between atoms: C_4  and  C_5
REMARK    2  A    between atoms: C_9  and  C_10
REMARK    3  A    between atoms: C_10  and  N_11
REMARK                            x       y       z     vdW  Elec       q    Type
REMARK                         _______ _______ _______ _____ _____    ______ ____
ROOT
ATOM      1  C   UNL     1      44.950   3.784   9.779  0.00  0.00    +0.000 A 
ATOM      2  C   UNL     1      43.797   4.562   9.639  0.00  0.00    +0.000 A 
ATOM      3  N   UNL     1      43.147   5.195  10.647  0.00  0.00    +0.000 NA
ATOM      4  C   UNL     1      43.661   5.045  11.885  0.00  0.00    +0.000 A 
ATOM      5  C   UNL     1      44.805   4.309  12.163  0.00  0.00    +0.000 A 
ATOM      6  C   UNL     1      45.444   3.672  11.090  0.00  0.00    +0.000 A 
ENDROOT
BRANCH   1  10
ATOM      7  C   UNL     1      46.908   1.873   6.443  0.00  0.00    +0.000 A 
ATOM      8  C   UNL     1      46.689   3.247   6.431  0.00  0.00    +0.000 A 
ATOM      9  C   UNL     1      46.056   3.867   7.513  0.00  0.00    +0.000 A 
ATOM     10  C   UNL     1      45.613   3.129   8.629  0.00  0.00    +0.000 A 
ATOM     11  C   UNL     1      45.839   1.740   8.605  0.00  0.00    +0.000 A 
ATOM     12  C   UNL     1      46.484   1.119   7.531  0.00  0.00    +0.000 A 
ENDBRANCH   1  10
BRANCH   5  13
ATOM     13  C   UNL     1      45.341   4.229  13.563  0.00  0.00    +0.000 C 
BRANCH  13  14
ATOM     14  N   UNL     1      46.519   5.052  13.709  0.00  0.00    +0.000 N 
ATOM     15  C   UNL     1      47.280   4.692  14.819  0.00  0.00    +0.000 A 
ATOM     16  N   UNL     1      47.311   3.412  15.212  0.00  0.00    +0.000 NA
ATOM     17  C   UNL     1      48.040   3.115  16.301  0.00  0.00    +0.000 A 
ATOM     18  C   UNL     1      48.740   4.050  17.014  0.00  0.00    +0.000 A 
ATOM     19  C   UNL     1      48.653   5.334  16.531  0.00  0.00    +0.000 A 
ATOM     20  N   UNL     1      47.926   5.680  15.450  0.00  0.00    +0.000 NA
ATOM     21  H   UNL     1      46.359   6.053  13.778  0.00  0.00    +0.000 HD
ENDBRANCH  13  14
ENDBRANCH   5  13
TORSDOF 3
ENDMDL
MODEL 7
REMARK VINA RESULT:    -6.948      2.624      7.115
REMARK INTER + INTRA:          -8.765
REMARK INTER:                  -8.271
REMARK INTRA:                  -0.494
REMARK UNBOUND:                -0.598
REMARK  Name = 
REMARK  3 active torsions:
REMARK  status: ('A' for Active; 'I' for Inactive)
REMARK    1  A    between atoms: C_4  and  C_5
REMARK    2  A    between atoms: C_9  and  C_10
REMARK    3  A    between atoms: C_10  and  N_11
REMARK                            x       y       z     vdW  Elec       q    Type
REMARK                         _______ _______ _______ _____ _____    ______ ____
ROOT
ATOM      1  C   UNL     1      47.355   5.422  14.287  0.00  0.00    +0.000 A 
ATOM      2  C   UNL     1      48.086   6.444  13.677  0.00  0.00    +0.000 A 
ATOM      3  N   UNL     1      47.799   7.011  12.478  0.00  0.00    +0.000 NA
ATOM      4  C   UNL     1      46.721   6.530  11.826  0.00  0.00    +0.000 A 
ATOM      5  C   UNL     1      45.902   5.525  12.323  0.00  0.00    +0.000 A 
ATOM      6  C   UNL     1      46.237   4.969  13.565  0.00  0.00    +0.000 A 
ENDROOT
BRANCH   1  10
ATOM      7  C   UNL     1      48.452   3.774  18.121  0.00  0.00    +0.000 A 
ATOM      8  C   UNL     1      47.697   3.021  17.227  0.00  0.00    +0.000 A 
ATOM      9  C   UNL     1      47.343   3.555  15.983  0.00  0.00    +0.000 A 
ATOM     10  C   UNL     1      47.721   4.858  15.606  0.00  0.00    +0.000 A 
ATOM     11  C   UNL     1      48.474   5.598  16.537  0.00  0.00    +0.000 A 
ATOM     12  C   UNL     1      48.841   5.063  17.775  0.00  0.00    +0.000 A 
ENDBRANCH   1  10
BRANCH   5  13
ATOM     13  C   UNL     1      44.691   5.077  11.557  0.00  0.00    +0.000 C 
BRANCH  13  14
ATOM     14  N   UNL     1      44.790   5.466  10.169  0.00  0.00    +0.000 N 
ATOM     15  C   UNL     1      45.216   4.418   9.356  0.00  0.00    +0.000 A 
ATOM     16  N   UNL     1      44.882   3.159   9.672  0.00  0.00    +0.000 NA
ATOM     17  C   UNL     1      45.334   2.178   8.872  0.00  0.00    +0.000 A 
ATOM     18  C   UNL     1      46.109   2.408   7.768  0.00  0.00    +0.000 A 
ATOM     19  C   UNL     1      46.393   3.729   7.522  0.00  0.00    +0.000 A 
ATOM     20  N   UNL     1      45.971   4.745   8.301  0.00  0.00    +0.000 NA
ATOM     21  H   UNL     1      45.398   6.255   9.968  0.00  0.00    +0.000 HD
ENDBRANCH  13  14
ENDBRANCH   5  13
TORSDOF 3
ENDMDL
MODEL 8
REMARK VINA RESULT:    -6.788      1.732      2.329
REMARK INTER + INTRA:          -8.576
REMARK INTER:                  -8.107
REMARK INTRA:                  -0.469
REMARK UNBOUND:                -0.598
REMARK  Name = 
REMARK  3 active torsions:
REMARK  status: ('A' for Active; 'I' for Inactive)
REMARK    1  A    between atoms: C_4  and  C_5
REMARK    2  A    between atoms: C_9  and  C_10
REMARK    3  A    between atoms: C_10  and  N_11
REMARK                            x       y       z     vdW  Elec       q    Type
REMARK                         _______ _______ _______ _____ _____    ______ ____
ROOT
ATOM      1  C   UNL     1      45.019   4.454   9.656  0.00  0.00    +0.000 A 
ATOM      2  C   UNL     1      43.653   4.401   9.944  0.00  0.00    +0.000 A 
ATOM      3  N   UNL     1      42.994   5.230  10.792  0.00  0.00    +0.000 NA
ATOM      4  C   UNL     1      43.733   6.174  11.410  0.00  0.00    +0.000 A 
ATOM      5  C   UNL     1      45.096   6.344  11.206  0.00  0.00    +0.000 A 
ATOM      6  C   UNL     1      45.735   5.464  10.322  0.00  0.00    +0.000 A 
ENDROOT
BRANCH   1  10
ATOM      7  C   UNL     1      46.938   1.729   6.917  0.00  0.00    +0.000 A 
ATOM      8  C   UNL     1      46.994   3.100   6.691  0.00  0.00    +0.000 A 
ATOM      9  C   UNL     1      46.373   3.984   7.580  0.00  0.00    +0.000 A 
ATOM     10  C   UNL     1      45.670   3.521   8.709  0.00  0.00    +0.000 A 
ATOM     11  C   UNL     1      45.622   2.127   8.903  0.00  0.00    +0.000 A 
ATOM     12  C   UNL     1      46.253   1.242   8.024  0.00  0.00    +0.000 A 
ENDBRANCH   1  10
BRANCH   5  13
ATOM     13  C   UNL     1      45.841   7.450  11.897  0.00  0.00    +0.000 C 
BRANCH  13  14
ATOM     14  N   UNL     1      47.231   7.099  12.073  0.00  0.00    +0.000 N 
ATOM     15  C   UNL     1      48.066   8.214  12.025  0.00  0.00    +0.000 A 
ATOM     16  N   UNL     1      47.617   9.395  12.469  0.00  0.00    +0.000 NA
ATOM     17  C   UNL     1      48.449  10.447  12.383  0.00  0.00    +0.000 A 
ATOM     18  C   UNL     1      49.714  10.363  11.868  0.00  0.00    +0.000 A 
ATOM     19  C   UNL     1      50.087   9.110  11.445  0.00  0.00    +0.000 A 
ATOM     20  N   UNL     1      49.284   8.030  11.502  0.00  0.00    +0.000 NA
ATOM     21  H   UNL     1      47.609   6.425  11.413  0.00  0.00    +0.000 HD
ENDBRANCH  13  14
ENDBRANCH   5  13
TORSDOF 3
ENDMDL
MODEL 9
REMARK VINA RESULT:    -6.493      2.571      4.397
REMARK INTER + INTRA:          -8.230
REMARK INTER:                  -7.793
REMARK INTRA:                  -0.436
REMARK UNBOUND:                -0.598
REMARK  Name = 
REMARK  3 active torsions:
REMARK  status: ('A' for Active; 'I' for Inactive)
REMARK    1  A    between atoms: C_4  and  C_5
REMARK    2  A    between atoms: C_9  and  C_10
REMARK    3  A    between atoms: C_10  and  N_11
REMARK                            x       y       z     vdW  Elec       q    Type
REMARK                         _______ _______ _______ _____ _____    ______ ____
ROOT
ATOM      1  C   UNL     1      45.633   5.703  11.273  0.00  0.00    +0.000 A 
ATOM      2  C   UNL     1      45.164   7.015  11.175  0.00  0.00    +0.000 A 
ATOM      3  N   UNL     1      45.449   8.020  12.041  0.00  0.00    +0.000 NA
ATOM      4  C   UNL     1      46.246   7.710  13.084  0.00  0.00    +0.000 A 
ATOM      5  C   UNL     1      46.788   6.450  13.294  0.00  0.00    +0.000 A 
ATOM      6  C   UNL     1      46.465   5.442  12.374  0.00  0.00    +0.000 A 
ENDROOT
BRANCH   1  10
ATOM      7  C   UNL     1      44.647   2.640   8.397  0.00  0.00    +0.000 A 
ATOM      8  C   UNL     1      45.311   3.793   7.990  0.00  0.00    +0.000 A 
ATOM      9  C   UNL     1      45.632   4.785   8.923  0.00  0.00    +0.000 A 
ATOM     10  C   UNL     1      45.287   4.658  10.282  0.00  0.00    +0.000 A 
ATOM     11  C   UNL     1      44.605   3.486  10.660  0.00  0.00    +0.000 A 
ATOM     12  C   UNL     1      44.295   2.486   9.733  0.00  0.00    +0.000 A 
ENDBRANCH   1  10
BRANCH   5  13
ATOM     13  C   UNL     1      47.705   6.196  14.456  0.00  0.00    +0.000 C 
BRANCH  13  14
ATOM     14  N   UNL     1      47.208   5.113  15.273  0.00  0.00    +0.000 N 
ATOM     15  C   UNL     1      48.192   4.588  16.108  0.00  0.00    +0.000 A 
ATOM     16  N   UNL     1      49.155   5.390  16.581  0.00  0.00    +0.000 NA
ATOM     17  C   UNL     1      50.096   4.836  17.364  0.00  0.00    +0.000 A 
ATOM     18  C   UNL     1      50.112   3.508  17.692  0.00  0.00    +0.000 A 
ATOM     19  C   UNL     1      49.081   2.767  17.166  0.00  0.00    +0.000 A 
ATOM     20  N   UNL     1      48.123   3.277  16.368  0.00  0.00    +0.000 NA
ATOM     21  H   UNL     1      46.801   4.327  14.775  0.00  0.00    +0.000 HD
ENDBRANCH  13  14
ENDBRANCH   5  13
TORSDOF 3
ENDMDL
