MODEL 1
REMARK VINA RESULT:    -7.877      0.000      0.000
REMARK INTER + INTRA:         -12.436
REMARK INTER:                 -11.331
REMARK INTRA:                  -1.105
REMARK UNBOUND:                -1.105
REMARK  Name = 
REMARK  8 active torsions:
REMARK  status: ('A' for Active; 'I' for Inactive)
REMARK    1  A    between atoms: N_1  and  C_2
REMARK    2  A    between atoms: C_2  and  C_3
REMARK    3  A    between atoms: C_2  and  C_10
REMARK    4  A    between atoms: C_3  and  C_4
REMARK    5  A    between atoms: C_13  and  C_14
REMARK    6  A    between atoms: C_14  and  N_15
REMARK    7  A    between atoms: N_15  and  C_16
REMARK    8  A    between atoms: C_16  and  C_17
REMARK                            x       y       z     vdW  Elec       q    Type
REMARK                         _______ _______ _______ _____ _____    ______ ____
ROOT
ATOM      1  C   UNL     1      45.183   4.152  11.505  0.00  0.00    +0.000 A 
ATOM      2  C   UNL     1      45.390   5.459  11.027  0.00  0.00    +0.000 A 
ATOM      3  C   UNL     1      46.198   6.365  11.721  0.00  0.00    +0.000 A 
ATOM      4  C   UNL     1      46.804   6.002  12.929  0.00  0.00    +0.000 A 
ATOM      5  C   UNL     1      46.564   4.727  13.440  0.00  0.00    +0.000 A 
ATOM      6  C   UNL     1      45.759   3.823  12.744  0.00  0.00    +0.000 A 
ENDROOT
BRANCH   1   7
ATOM      7  C   UNL     1      44.313   3.159  10.727  0.00  0.00    +0.000 C 
BRANCH   7   8
ATOM      8  N   UNL     1      42.927   3.159  11.234  0.00  0.00    +0.000 NA
ATOM      9  H   UNL     1      42.642   2.197  11.414  0.00  0.00    +0.000 HD
ATOM     10  H   UNL     1      42.311   3.496  10.494  0.00  0.00    +0.000 HD
ENDBRANCH   7   8
BRANCH   7  11
ATOM     11  C   UNL     1      44.320   3.430   9.196  0.00  0.00    +0.000 C 
BRANCH  11  12
ATOM     12  C   UNL     1      45.488   2.874   8.416  0.00  0.00    +0.000 A 
ATOM     13  C   UNL     1      45.783   1.505   8.473  0.00  0.00    +0.000 A 
ATOM     14  C   UNL     1      46.806   0.972   7.691  0.00  0.00    +0.000 A 
ATOM     15  C   UNL     1      47.541   1.800   6.845  0.00  0.00    +0.000 A 
ATOM     16  C   UNL     1      47.258   3.162   6.784  0.00  0.00    +0.000 A 
ATOM     17  C   UNL     1      46.235   3.699   7.565  0.00  0.00    +0.000 A 
ENDBRANCH  11  12
ENDBRANCH   7  11
ENDBRANCH   1   7
BRANCH   4  18
ATOM     18  C   UNL     1      47.714   6.955  13.663  0.00  0.00    +0.000 C 
BRANCH  18  19
ATOM     19  N   UNL     1      48.781   6.242  14.354  0.00  0.00    +0.000 NA
ATOM     20  H   UNL     1      49.673   6.465  13.912  0.00  0.00    +0.000 HD
BRANCH  19  21
ATOM     21  C   UNL     1      48.829   6.619  15.763  0.00  0.00    +0.000 C 
BRANCH  21  22
ATOM     22  C   UNL     1      48.751   5.398  16.642  0.00  0.00    +0.000 A 
ATOM     23  C   UNL     1      47.581   4.638  16.719  0.00  0.00    +0.000 A 
ATOM     24  C   UNL     1      47.569   3.522  17.542  0.00  0.00    +0.000 A 
ATOM     25  N   UNL     1      48.624   3.117  18.279  0.00  0.00    +0.000 NA
ATOM     26  C   UNL     1      49.744   3.866  18.193  0.00  0.00    +0.000 A 
ATOM     27  C   UNL     1      49.856   4.995  17.398  0.00  0.00    +0.000 A 
ENDBRANCH  21  22
ENDBRANCH  19  21
ENDBRANCH  18  19
ENDBRANCH   4  18
TORSDOF 8
ENDMDL
MODEL 2
REMARK VINA RESULT:    -7.576      3.345      6.054
REMARK INTER + INTRA:         -12.003
REMARK INTER:                 -10.811
REMARK INTRA:                  -1.192
REMARK UNBOUND:                -1.105
REMARK  Name = 
REMARK  8 active torsions:
REMARK  status: ('A' for Active; 'I' for Inactive)
REMARK    1  A    between atoms: N_1  and  C_2
REMARK    2  A    between atoms: C_2  and  C_3
REMARK    3  A    between atoms: C_2  and  C_10
REMARK    4  A    between atoms: C_3  and  C_4
REMARK    5  A    between atoms: C_13  and  C_14
REMARK    6  A    between atoms: C_14  and  N_15
REMARK    7  A    between atoms: N_15  and  C_16
REMARK    8  A    between atoms: C_16  and  C_17
REMARK                            x       y       z     vdW  Elec       q    Type
REMARK                         _______ _______ _______ _____ _____    ______ ____
ROOT
ATOM      1  C   UNL     1      45.049   4.359  11.476  0.00  0.00    +0.000 A 
ATOM      2  C   UNL     1      44.814   5.532  10.737  0.00  0.00    +0.000 A 
ATOM      3  C   UNL     1      45.159   6.790  11.244  0.00  0.00    +0.000 A 
ATOM      4  C   UNL     1      45.726   6.916  12.517  0.00  0.00    +0.000 A 
ATOM      5  C   UNL     1      45.915   5.765  13.282  0.00  0.00    +0.000 A 
ATOM      6  C   UNL     1      45.573   4.510  12.772  0.00  0.00    +0.000 A 
ENDROOT
BRANCH   1   7
ATOM      7  C   UNL     1      44.688   2.984  10.904  0.00  0.00    +0.000 C 
BRANCH   7   8
ATOM      8  N   UNL     1      43.576   2.372  11.658  0.00  0.00    +0.000 NA
ATOM      9  H   UNL     1      43.765   2.465  12.656  0.00  0.00    +0.000 HD
ATOM     10  H   UNL     1      43.569   1.370  11.470  0.00  0.00    +0.000 HD
ENDBRANCH   7   8
BRANCH   7  11
ATOM     11  C   UNL     1      44.337   3.040   9.391  0.00  0.00    +0.000 C 
BRANCH  11  12
ATOM     12  C   UNL     1      45.442   2.675   8.427  0.00  0.00    +0.000 A 
ATOM     13  C   UNL     1      46.057   3.669   7.654  0.00  0.00    +0.000 A 
ATOM     14  C   UNL     1      47.133   3.353   6.826  0.00  0.00    +0.000 A 
ATOM     15  C   UNL     1      47.604   2.043   6.764  0.00  0.00    +0.000 A 
ATOM     16  C   UNL     1      46.997   1.047   7.525  0.00  0.00    +0.000 A 
ATOM     17  C   UNL     1      45.921   1.360   8.355  0.00  0.00    +0.000 A 
ENDBRANCH  11  12
ENDBRANCH   7  11
ENDBRANCH   1   7
BRANCH   4  18
ATOM     18  C   UNL     1      46.143   8.261  13.056  0.00  0.00    +0.000 C 
BRANCH  18  19
ATOM     19  N   UNL     1      45.081   9.248  12.898  0.00  0.00    +0.000 NA
ATOM     20  H   UNL     1      44.845   9.635  13.811  0.00  0.00    +0.000 HD
BRANCH  19  21
ATOM     21  C   UNL     1      45.502  10.324  12.007  0.00  0.00    +0.000 C 
BRANCH  21  22
ATOM     22  C   UNL     1      44.468  10.564  10.938  0.00  0.00    +0.000 A 
ATOM     23  C   UNL     1      43.214   9.952  10.997  0.00  0.00    +0.000 A 
ATOM     24  C   UNL     1      42.300  10.214   9.987  0.00  0.00    +0.000 A 
ATOM     25  N   UNL     1      42.545  11.031   8.942  0.00  0.00    +0.000 NA
ATOM     26  C   UNL     1      43.764  11.611   8.902  0.00  0.00    +0.000 A 
ATOM     27  C   UNL     1      44.742  11.416   9.863  0.00  0.00    +0.000 A 
ENDBRANCH  21  22
ENDBRANCH  19  21
ENDBRANCH  18  19
ENDBRANCH   4  18
TORSDOF 8
ENDMDL
MODEL 3
REMARK VINA RESULT:    -7.392      2.486      7.919
REMARK INTER + INTRA:         -11.737
REMARK INTER:                 -10.810
REMARK INTRA:                  -0.928
REMARK UNBOUND:                -1.105
REMARK  Name = 
REMARK  8 active torsions:
REMARK  status: ('A' for Active; 'I' for Inactive)
REMARK    1  A    between atoms: N_1  and  C_2
REMARK    2  A    between atoms: C_2  and  C_3
REMARK    3  A    between atoms: C_2  and  C_10
REMARK    4  A    between atoms: C_3  and  C_4
REMARK    5  A    between atoms: C_13  and  C_14
REMARK    6  A    between atoms: C_14  and  N_15
REMARK    7  A    between atoms: N_15  and  C_16
REMARK    8  A    between atoms: C_16  and  C_17
REMARK                            x       y       z     vdW  Elec       q    Type
REMARK                         _______ _______ _______ _____ _____    ______ ____
ROOT
ATOM      1  C   UNL     1      46.638   5.683  12.991  0.00  0.00    +0.000 A 
ATOM      2  C   UNL     1      46.460   4.333  13.343  0.00  0.00    +0.000 A 
ATOM      3  C   UNL     1      45.506   3.536  12.701  0.00  0.00    +0.000 A 
ATOM      4  C   UNL     1      44.683   4.070  11.704  0.00  0.00    +0.000 A 
ATOM      5  C   UNL     1      44.814   5.421  11.382  0.00  0.00    +0.000 A 
ATOM      6  C   UNL     1      45.769   6.214  12.023  0.00  0.00    +0.000 A 
ENDROOT
BRANCH   1   7
ATOM      7  C   UNL     1      47.700   6.543  13.685  0.00  0.00    +0.000 C 
BRANCH   7   8
ATOM      8  N   UNL     1      48.112   5.941  14.968  0.00  0.00    +0.000 NA
ATOM      9  H   UNL     1      47.378   6.102  15.658  0.00  0.00    +0.000 HD
ATOM     10  H   UNL     1      48.931   6.442  15.313  0.00  0.00    +0.000 HD
ENDBRANCH   7   8
BRANCH   7  11
ATOM     11  C   UNL     1      48.946   6.792  12.789  0.00  0.00    +0.000 C 
BRANCH  11  12
ATOM     12  C   UNL     1      49.067   8.163  12.165  0.00  0.00    +0.000 A 
ATOM     13  C   UNL     1      47.995   9.063  12.233  0.00  0.00    +0.000 A 
ATOM     14  C   UNL     1      48.129  10.358  11.735  0.00  0.00    +0.000 A 
ATOM     15  C   UNL     1      49.335  10.765  11.166  0.00  0.00    +0.000 A 
ATOM     16  C   UNL     1      50.405   9.877  11.091  0.00  0.00    +0.000 A 
ATOM     17  C   UNL     1      50.274   8.580  11.589  0.00  0.00    +0.000 A 
ENDBRANCH  11  12
ENDBRANCH   7  11
ENDBRANCH   1   7
BRANCH   4  18
ATOM     18  C   UNL     1      43.682   3.210  10.973  0.00  0.00    +0.000 C 
BRANCH  18  19
ATOM     19  N   UNL     1      44.331   2.393   9.955  0.00  0.00    +0.000 NA
ATOM     20  H   UNL     1      43.697   1.645   9.674  0.00  0.00    +0.000 HD
BRANCH  19  21
ATOM     21  C   UNL     1      44.681   3.198   8.790  0.00  0.00    +0.000 C 
BRANCH  21  22
ATOM     22  C   UNL     1      45.804   2.556   8.019  0.00  0.00    +0.000 A 
ATOM     23  C   UNL     1      46.103   1.201   8.174  0.00  0.00    +0.000 A 
ATOM     24  C   UNL     1      47.146   0.662   7.434  0.00  0.00    +0.000 A 
ATOM     25  N   UNL     1      47.897   1.370   6.564  0.00  0.00    +0.000 NA
ATOM     26  C   UNL     1      47.594   2.679   6.431  0.00  0.00    +0.000 A 
ATOM     27  C   UNL     1      46.571   3.307   7.122  0.00  0.00    +0.000 A 
ENDBRANCH  21  22
ENDBRANCH  19  21
ENDBRANCH  18  19
ENDBRANCH   4  18
TORSDOF 8
ENDMDL
MODEL 4
REMARK VINA RESULT:    -7.347      1.820      8.263
REMARK INTER + INTRA:         -11.672
REMARK INTER:                 -10.648
REMARK INTRA:                  -1.024
REMARK UNBOUND:                -1.105
REMARK  Name = 
REMARK  8 active torsions:
REMARK  status: ('A' for Active; 'I' for Inactive)
REMARK    1  A    between atoms: N_1  and  C_2
REMARK    2  A    between atoms: C_2  and  C_3
REMARK    3  A    between atoms: C_2  and  C_10
REMARK    4  A    between atoms: C_3  and  C_4
REMARK    5  A    between atoms: C_13  and  C_14
REMARK    6  A    between atoms: C_14  and  N_15
REMARK    7  A    between atoms: N_15  and  C_16
REMARK    8  A    between atoms: C_16  and  C_17
REMARK                            x       y       z     vdW  Elec       q    Type
REMARK                         _______ _______ _______ _____ _____    ______ ____
ROOT
ATOM      1  C   UNL     1      46.562   5.087  13.595  0.00  0.00    +0.000 A 
ATOM      2  C   UNL     1      46.389   3.725  13.292  0.00  0.00    +0.000 A 
ATOM      3  C   UNL     1      45.418   3.303  12.378  0.00  0.00    +0.000 A 
ATOM      4  C   UNL     1      44.573   4.228  11.755  0.00  0.00    +0.000 A 
ATOM      5  C   UNL     1      44.700   5.577  12.087  0.00  0.00    +0.000 A 
ATOM      6  C   UNL     1      45.672   5.996  12.998  0.00  0.00    +0.000 A 
ENDROOT
BRANCH   1   7
ATOM      7  C   UNL     1      47.643   5.542  14.583  0.00  0.00    +0.000 C 
BRANCH   7   8
ATOM      8  N   UNL     1      47.746   7.015  14.613  0.00  0.00    +0.000 NA
ATOM      9  H   UNL     1      46.998   7.409  14.042  0.00  0.00    +0.000 HD
ATOM     10  H   UNL     1      48.616   7.288  14.156  0.00  0.00    +0.000 HD
ENDBRANCH   7   8
BRANCH   7  11
ATOM     11  C   UNL     1      47.407   4.996  16.019  0.00  0.00    +0.000 C 
BRANCH  11  12
ATOM     12  C   UNL     1      48.474   4.085  16.579  0.00  0.00    +0.000 A 
ATOM     13  C   UNL     1      48.463   2.718  16.272  0.00  0.00    +0.000 A 
ATOM     14  C   UNL     1      49.492   1.887  16.715  0.00  0.00    +0.000 A 
ATOM     15  C   UNL     1      50.539   2.415  17.467  0.00  0.00    +0.000 A 
ATOM     16  C   UNL     1      50.557   3.772  17.781  0.00  0.00    +0.000 A 
ATOM     17  C   UNL     1      49.530   4.606  17.339  0.00  0.00    +0.000 A 
ENDBRANCH  11  12
ENDBRANCH   7  11
ENDBRANCH   1   7
BRANCH   4  18
ATOM     18  C   UNL     1      43.554   3.791  10.734  0.00  0.00    +0.000 C 
BRANCH  18  19
ATOM     19  N   UNL     1      44.153   2.927   9.724  0.00  0.00    +0.000 NA
ATOM     20  H   UNL     1      43.422   2.365   9.288  0.00  0.00    +0.000 HD
BRANCH  19  21
ATOM     21  C   UNL     1      44.832   3.717   8.703  0.00  0.00    +0.000 C 
BRANCH  21  22
ATOM     22  C   UNL     1      45.858   2.883   7.981  0.00  0.00    +0.000 A 
ATOM     23  C   UNL     1      46.666   3.436   6.985  0.00  0.00    +0.000 A 
ATOM     24  C   UNL     1      47.596   2.621   6.358  0.00  0.00    +0.000 A 
ATOM     25  N   UNL     1      47.775   1.315   6.650  0.00  0.00    +0.000 NA
ATOM     26  C   UNL     1      46.981   0.799   7.614  0.00  0.00    +0.000 A 
ATOM     27  C   UNL     1      46.026   1.532   8.300  0.00  0.00    +0.000 A 
ENDBRANCH  21  22
ENDBRANCH  19  21
ENDBRANCH  18  19
ENDBRANCH   4  18
TORSDOF 8
ENDMDL
MODEL 5
REMARK VINA RESULT:    -7.314      3.290      4.411
REMARK INTER + INTRA:         -11.626
REMARK INTER:                 -10.383
REMARK INTRA:                  -1.243
REMARK UNBOUND:                -1.105
REMARK  Name = 
REMARK  8 active torsions:
REMARK  status: ('A' for Active; 'I' for Inactive)
REMARK    1  A    between atoms: N_1  and  C_2
REMARK    2  A    between atoms: C_2  and  C_3
REMARK    3  A    between atoms: C_2  and  C_10
REMARK    4  A    between atoms: C_3  and  C_4
REMARK    5  A    between atoms: C_13  and  C_14
REMARK    6  A    between atoms: C_14  and  N_15
REMARK    7  A    between atoms: N_15  and  C_16
REMARK    8  A    between atoms: C_16  and  C_17
REMARK                            x       y       z     vdW  Elec       q    Type
REMARK                         _______ _______ _______ _____ _____    ______ ____
ROOT
ATOM      1  C   UNL     1      44.982   4.593  11.678  0.00  0.00    +0.000 A 
ATOM      2  C   UNL     1      44.111   5.540  11.110  0.00  0.00    +0.000 A 
ATOM      3  C   UNL     1      44.223   6.901  11.414  0.00  0.00    +0.000 A 
ATOM      4  C   UNL     1      45.192   7.355  12.315  0.00  0.00    +0.000 A 
ATOM      5  C   UNL     1      46.028   6.419  12.925  0.00  0.00    +0.000 A 
ATOM      6  C   UNL     1      45.916   5.061  12.618  0.00  0.00    +0.000 A 
ENDROOT
BRANCH   1   7
ATOM      7  C   UNL     1      44.866   3.106  11.323  0.00  0.00    +0.000 C 
BRANCH   7   8
ATOM      8  N   UNL     1      44.003   2.397  12.288  0.00  0.00    +0.000 NA
ATOM      9  H   UNL     1      43.159   2.085  11.808  0.00  0.00    +0.000 HD
ATOM     10  H   UNL     1      43.690   3.064  12.993  0.00  0.00    +0.000 HD
ENDBRANCH   7   8
BRANCH   7  11
ATOM     11  C   UNL     1      44.347   2.876   9.876  0.00  0.00    +0.000 C 
BRANCH  11  12
ATOM     12  C   UNL     1      45.392   2.785   8.789  0.00  0.00    +0.000 A 
ATOM     13  C   UNL     1      45.959   1.546   8.462  0.00  0.00    +0.000 A 
ATOM     14  C   UNL     1      46.861   1.440   7.404  0.00  0.00    +0.000 A 
ATOM     15  C   UNL     1      47.203   2.571   6.664  0.00  0.00    +0.000 A 
ATOM     16  C   UNL     1      46.648   3.807   6.984  0.00  0.00    +0.000 A 
ATOM     17  C   UNL     1      45.745   3.916   8.042  0.00  0.00    +0.000 A 
ENDBRANCH  11  12
ENDBRANCH   7  11
ENDBRANCH   1   7
BRANCH   4  18
ATOM     18  C   UNL     1      45.352   8.824  12.616  0.00  0.00    +0.000 C 
BRANCH  18  19
ATOM     19  N   UNL     1      46.679   9.115  13.144  0.00  0.00    +0.000 NA
ATOM     20  H   UNL     1      47.227   8.255  13.165  0.00  0.00    +0.000 HD
BRANCH  19  21
ATOM     21  C   UNL     1      47.360  10.106  12.318  0.00  0.00    +0.000 C 
BRANCH  21  22
ATOM     22  C   UNL     1      48.700   9.588  11.863  0.00  0.00    +0.000 A 
ATOM     23  C   UNL     1      49.706  10.461  11.444  0.00  0.00    +0.000 A 
ATOM     24  C   UNL     1      50.921   9.928  11.041  0.00  0.00    +0.000 A 
ATOM     25  N   UNL     1      51.198   8.607  11.028  0.00  0.00    +0.000 NA
ATOM     26  C   UNL     1      50.210   7.779  11.433  0.00  0.00    +0.000 A 
ATOM     27  C   UNL     1      48.966   8.215  11.858  0.00  0.00    +0.000 A 
ENDBRANCH  21  22
ENDBRANCH  19  21
ENDBRANCH  18  19
ENDBRANCH   4  18
TORSDOF 8
ENDMDL
MODEL 6
REMARK VINA RESULT:    -6.934      3.062      8.198
REMARK INTER + INTRA:         -11.078
REMARK INTER:                 -10.150
REMARK INTRA:                  -0.929
REMARK UNBOUND:                -1.105
REMARK  Name = 
REMARK  8 active torsions:
REMARK  status: ('A' for Active; 'I' for Inactive)
REMARK    1  A    between atoms: N_1  and  C_2
REMARK    2  A    between atoms: C_2  and  C_3
REMARK    3  A    between atoms: C_2  and  C_10
REMARK    4  A    between atoms: C_3  and  C_4
REMARK    5  A    between atoms: C_13  and  C_14
REMARK    6  A    between atoms: C_14  and  N_15
REMARK    7  A    between atoms: N_15  and  C_16
REMARK    8  A    between atoms: C_16  and  C_17
REMARK                            x       y       z     vdW  Elec       q    Type
REMARK                         _______ _______ _______ _____ _____    ______ ____
ROOT
ATOM      1  C   UNL     1      45.935   6.778  12.720  0.00  0.00    +0.000 A 
ATOM      2  C   UNL     1      46.273   5.442  12.999  0.00  0.00    +0.000 A 
ATOM      3  C   UNL     1      45.536   4.381  12.463  0.00  0.00    +0.000 A 
ATOM      4  C   UNL     1      44.422   4.622  11.652  0.00  0.00    +0.000 A 
ATOM      5  C   UNL     1      44.045   5.943  11.411  0.00  0.00    +0.000 A 
ATOM      6  C   UNL     1      44.784   7.002  11.945  0.00  0.00    +0.000 A 
ENDROOT
BRANCH   1   7
ATOM      7  C   UNL     1      46.761   7.935  13.295  0.00  0.00    +0.000 C 
BRANCH   7   8
ATOM      8  N   UNL     1      47.581   7.483  14.436  0.00  0.00    +0.000 NA
ATOM      9  H   UNL     1      48.326   6.880  14.088  0.00  0.00    +0.000 HD
ATOM     10  H   UNL     1      47.005   6.893  15.036  0.00  0.00    +0.000 HD
ENDBRANCH   7   8
BRANCH   7  11
ATOM     11  C   UNL     1      47.664   8.613  12.226  0.00  0.00    +0.000 C 
BRANCH  11  12
ATOM     12  C   UNL     1      47.238   9.983  11.753  0.00  0.00    +0.000 A 
ATOM     13  C   UNL     1      48.154  10.814  11.094  0.00  0.00    +0.000 A 
ATOM     14  C   UNL     1      47.746  12.044  10.580  0.00  0.00    +0.000 A 
ATOM     15  C   UNL     1      46.422  12.454  10.719  0.00  0.00    +0.000 A 
ATOM     16  C   UNL     1      45.505  11.636  11.376  0.00  0.00    +0.000 A 
ATOM     17  C   UNL     1      45.910  10.405  11.891  0.00  0.00    +0.000 A 
ENDBRANCH  11  12
ENDBRANCH   7  11
ENDBRANCH   1   7
BRANCH   4  18
ATOM     18  C   UNL     1      43.647   3.487  11.031  0.00  0.00    +0.000 C 
BRANCH  18  19
ATOM     19  N   UNL     1      44.489   2.693  10.145  0.00  0.00    +0.000 NA
ATOM     20  H   UNL     1      44.008   1.822   9.919  0.00  0.00    +0.000 HD
BRANCH  19  21
ATOM     21  C   UNL     1      44.780   3.422   8.915  0.00  0.00    +0.000 C 
BRANCH  21  22
ATOM     22  C   UNL     1      45.841   2.712   8.116  0.00  0.00    +0.000 A 
ATOM     23  C   UNL     1      46.649   3.407   7.212  0.00  0.00    +0.000 A 
ATOM     24  C   UNL     1      47.613   2.702   6.507  0.00  0.00    +0.000 A 
ATOM     25  N   UNL     1      47.824   1.375   6.638  0.00  0.00    +0.000 NA
ATOM     26  C   UNL     1      47.030   0.722   7.514  0.00  0.00    +0.000 A 
ATOM     27  C   UNL     1      46.043   1.337   8.267  0.00  0.00    +0.000 A 
ENDBRANCH  21  22
ENDBRANCH  19  21
ENDBRANCH  18  19
ENDBRANCH   4  18
TORSDOF 8
ENDMDL
MODEL 7
REMARK VINA RESULT:    -6.924      2.432      4.475
REMARK INTER + INTRA:         -11.064
REMARK INTER:                  -9.931
REMARK INTRA:                  -1.133
REMARK UNBOUND:                -1.105
REMARK  Name = 
REMARK  8 active torsions:
REMARK  status: ('A' for Active; 'I' for Inactive)
REMARK    1  A    between atoms: N_1  and  C_2
REMARK    2  A    between atoms: C_2  and  C_3
REMARK    3  A    between atoms: C_2  and  C_10
REMARK    4  A    between atoms: C_3  and  C_4
REMARK    5  A    between atoms: C_13  and  C_14
REMARK    6  A    between atoms: C_14  and  N_15
REMARK    7  A    between atoms: N_15  and  C_16
REMARK    8  A    between atoms: C_16  and  C_17
REMARK                            x       y       z     vdW  Elec       q    Type
REMARK                         _______ _______ _______ _____ _____    ______ ____
ROOT
ATOM      1  C   UNL     1      45.230   4.312  11.701  0.00  0.00    +0.000 A 
ATOM      2  C   UNL     1      45.592   5.628  11.363  0.00  0.00    +0.000 A 
ATOM      3  C   UNL     1      46.518   6.345  12.130  0.00  0.00    +0.000 A 
ATOM      4  C   UNL     1      47.091   5.776  13.273  0.00  0.00    +0.000 A 
ATOM      5  C   UNL     1      46.699   4.491  13.648  0.00  0.00    +0.000 A 
ATOM      6  C   UNL     1      45.778   3.777  12.879  0.00  0.00    +0.000 A 
ENDROOT
BRANCH   1   7
ATOM      7  C   UNL     1      44.231   3.527  10.843  0.00  0.00    +0.000 C 
BRANCH   7   8
ATOM      8  N   UNL     1      42.853   3.704  11.340  0.00  0.00    +0.000 NA
ATOM      9  H   UNL     1      42.824   3.449  12.328  0.00  0.00    +0.000 HD
ATOM     10  H   UNL     1      42.248   3.036  10.864  0.00  0.00    +0.000 HD
ENDBRANCH   7   8
BRANCH   7  11
ATOM     11  C   UNL     1      44.307   3.909   9.338  0.00  0.00    +0.000 C 
BRANCH  11  12
ATOM     12  C   UNL     1      45.301   3.145   8.496  0.00  0.00    +0.000 A 
ATOM     13  C   UNL     1      46.094   3.821   7.558  0.00  0.00    +0.000 A 
ATOM     14  C   UNL     1      47.073   3.137   6.838  0.00  0.00    +0.000 A 
ATOM     15  C   UNL     1      47.268   1.774   7.050  0.00  0.00    +0.000 A 
ATOM     16  C   UNL     1      46.483   1.092   7.976  0.00  0.00    +0.000 A 
ATOM     17  C   UNL     1      45.503   1.774   8.698  0.00  0.00    +0.000 A 
ENDBRANCH  11  12
ENDBRANCH   7  11
ENDBRANCH   1   7
BRANCH   4  18
ATOM     18  C   UNL     1      48.123   6.521  14.082  0.00  0.00    +0.000 C 
BRANCH  18  19
ATOM     19  N   UNL     1      48.828   7.502  13.266  0.00  0.00    +0.000 NA
ATOM     20  H   UNL     1      48.263   7.724  12.447  0.00  0.00    +0.000 HD
BRANCH  19  21
ATOM     21  C   UNL     1      49.083   8.721  14.026  0.00  0.00    +0.000 C 
BRANCH  21  22
ATOM     22  C   UNL     1      48.530   9.922  13.304  0.00  0.00    +0.000 A 
ATOM     23  C   UNL     1      47.641   9.777  12.237  0.00  0.00    +0.000 A 
ATOM     24  C   UNL     1      47.160  10.918  11.614  0.00  0.00    +0.000 A 
ATOM     25  N   UNL     1      47.499  12.174  11.975  0.00  0.00    +0.000 NA
ATOM     26  C   UNL     1      48.362  12.294  13.006  0.00  0.00    +0.000 A 
ATOM     27  C   UNL     1      48.894  11.215  13.695  0.00  0.00    +0.000 A 
ENDBRANCH  21  22
ENDBRANCH  19  21
ENDBRANCH  18  19
ENDBRANCH   4  18
TORSDOF 8
ENDMDL
MODEL 8
REMARK VINA RESULT:    -6.912      1.752      2.249
REMARK INTER + INTRA:         -11.048
REMARK INTER:                 -10.149
REMARK INTRA:                  -0.899
REMARK UNBOUND:                -1.105
REMARK  Name = 
REMARK  8 active torsions:
REMARK  status: ('A' for Active; 'I' for Inactive)
REMARK    1  A    between atoms: N_1  and  C_2
REMARK    2  A    between atoms: C_2  and  C_3
REMARK    3  A    between atoms: C_2  and  C_10
REMARK    4  A    between atoms: C_3  and  C_4
REMARK    5  A    between atoms: C_13  and  C_14
REMARK    6  A    between atoms: C_14  and  N_15
REMARK    7  A    between atoms: N_15  and  C_16
REMARK    8  A    between atoms: C_16  and  C_17
REMARK                            x       y       z     vdW  Elec       q    Type
REMARK                         _______ _______ _______ _____ _____    ______ ____
ROOT
ATOM      1  C   UNL     1      45.073   4.164  11.411  0.00  0.00    +0.000 A 
ATOM      2  C   UNL     1      45.252   5.328  10.643  0.00  0.00    +0.000 A 
ATOM      3  C   UNL     1      45.752   6.503  11.215  0.00  0.00    +0.000 A 
ATOM      4  C   UNL     1      46.065   6.558  12.577  0.00  0.00    +0.000 A 
ATOM      5  C   UNL     1      45.841   5.426  13.360  0.00  0.00    +0.000 A 
ATOM      6  C   UNL     1      45.345   4.253  12.787  0.00  0.00    +0.000 A 
ENDROOT
BRANCH   1   7
ATOM      7  C   UNL     1      44.544   2.874  10.773  0.00  0.00    +0.000 C 
BRANCH   7   8
ATOM      8  N   UNL     1      43.291   2.439  11.419  0.00  0.00    +0.000 NA
ATOM      9  H   UNL     1      42.916   1.640  10.907  0.00  0.00    +0.000 HD
ATOM     10  H   UNL     1      42.599   3.181  11.320  0.00  0.00    +0.000 HD
ENDBRANCH   7   8
BRANCH   7  11
ATOM     11  C   UNL     1      44.331   3.011   9.239  0.00  0.00    +0.000 C 
BRANCH  11  12
ATOM     12  C   UNL     1      45.494   2.618   8.357  0.00  0.00    +0.000 A 
ATOM     13  C   UNL     1      45.956   1.295   8.353  0.00  0.00    +0.000 A 
ATOM     14  C   UNL     1      46.972   0.907   7.480  0.00  0.00    +0.000 A 
ATOM     15  C   UNL     1      47.533   1.835   6.606  0.00  0.00    +0.000 A 
ATOM     16  C   UNL     1      47.083   3.154   6.605  0.00  0.00    +0.000 A 
ATOM     17  C   UNL     1      46.066   3.545   7.477  0.00  0.00    +0.000 A 
ENDBRANCH  11  12
ENDBRANCH   7  11
ENDBRANCH   1   7
BRANCH   4  18
ATOM     18  C   UNL     1      46.647   7.805  13.195  0.00  0.00    +0.000 C 
BRANCH  18  19
ATOM     19  N   UNL     1      48.067   7.933  12.891  0.00  0.00    +0.000 NA
ATOM     20  H   UNL     1      48.174   8.314  11.951  0.00  0.00    +0.000 HD
BRANCH  19  21
ATOM     21  C   UNL     1      48.725   8.814  13.850  0.00  0.00    +0.000 C 
BRANCH  21  22
ATOM     22  C   UNL     1      49.623   8.025  14.766  0.00  0.00    +0.000 A 
ATOM     23  C   UNL     1      49.095   7.121  15.690  0.00  0.00    +0.000 A 
ATOM     24  C   UNL     1      49.971   6.419  16.505  0.00  0.00    +0.000 A 
ATOM     25  N   UNL     1      51.313   6.553  16.462  0.00  0.00    +0.000 NA
ATOM     26  C   UNL     1      51.803   7.435  15.564  0.00  0.00    +0.000 A 
ATOM     27  C   UNL     1      51.012   8.180  14.705  0.00  0.00    +0.000 A 
ENDBRANCH  21  22
ENDBRANCH  19  21
ENDBRANCH  18  19
ENDBRANCH   4  18
TORSDOF 8
ENDMDL
MODEL 9
REMARK VINA RESULT:    -6.838      2.155      8.528
REMARK INTER + INTRA:         -10.941
REMARK INTER:                 -10.110
REMARK INTRA:                  -0.831
REMARK UNBOUND:                -1.105
REMARK  Name = 
REMARK  8 active torsions:
REMARK  status: ('A' for Active; 'I' for Inactive)
REMARK    1  A    between atoms: N_1  and  C_2
REMARK    2  A    between atoms: C_2  and  C_3
REMARK    3  A    between atoms: C_2  and  C_10
REMARK    4  A    between atoms: C_3  and  C_4
REMARK    5  A    between atoms: C_13  and  C_14
REMARK    6  A    between atoms: C_14  and  N_15
REMARK    7  A    between atoms: N_15  and  C_16
REMARK    8  A    between atoms: C_16  and  C_17
REMARK                            x       y       z     vdW  Elec       q    Type
REMARK                         _______ _______ _______ _____ _____    ______ ____
ROOT
ATOM      1  C   UNL     1      47.433   6.735  13.556  0.00  0.00    +0.000 A 
ATOM      2  C   UNL     1      47.174   7.241  12.270  0.00  0.00    +0.000 A 
ATOM      3  C   UNL     1      46.389   6.530  11.356  0.00  0.00    +0.000 A 
ATOM      4  C   UNL     1      45.859   5.280  11.690  0.00  0.00    +0.000 A 
ATOM      5  C   UNL     1      46.153   4.743  12.944  0.00  0.00    +0.000 A 
ATOM      6  C   UNL     1      46.934   5.456  13.856  0.00  0.00    +0.000 A 
ENDROOT
BRANCH   1   7
ATOM      7  C   UNL     1      48.277   7.531  14.559  0.00  0.00    +0.000 C 
BRANCH   7   8
ATOM      8  N   UNL     1      47.598   8.783  14.945  0.00  0.00    +0.000 NA
ATOM      9  H   UNL     1      46.815   8.558  15.558  0.00  0.00    +0.000 HD
ATOM     10  H   UNL     1      47.186   9.199  14.110  0.00  0.00    +0.000 HD
ENDBRANCH   7   8
BRANCH   7  11
ATOM     11  C   UNL     1      48.633   6.705  15.827  0.00  0.00    +0.000 C 
BRANCH  11  12
ATOM     12  C   UNL     1      50.102   6.550  16.142  0.00  0.00    +0.000 A 
ATOM     13  C   UNL     1      50.529   5.553  17.030  0.00  0.00    +0.000 A 
ATOM     14  C   UNL     1      51.889   5.348  17.260  0.00  0.00    +0.000 A 
ATOM     15  C   UNL     1      52.833   6.137  16.605  0.00  0.00    +0.000 A 
ATOM     16  C   UNL     1      52.419   7.133  15.724  0.00  0.00    +0.000 A 
ATOM     17  C   UNL     1      51.059   7.340  15.491  0.00  0.00    +0.000 A 
ENDBRANCH  11  12
ENDBRANCH   7  11
ENDBRANCH   1   7
BRANCH   4  18
ATOM     18  C   UNL     1      44.974   4.524  10.731  0.00  0.00    +0.000 C 
BRANCH  18  19
ATOM     19  N   UNL     1      45.243   4.906   9.350  0.00  0.00    +0.000 NA
ATOM     20  H   UNL     1      46.251   4.980   9.214  0.00  0.00    +0.000 HD
BRANCH  19  21
ATOM     21  C   UNL     1      44.698   3.919   8.423  0.00  0.00    +0.000 C 
BRANCH  21  22
ATOM     22  C   UNL     1      45.790   3.026   7.896  0.00  0.00    +0.000 A 
ATOM     23  C   UNL     1      46.754   3.512   7.009  0.00  0.00    +0.000 A 
ATOM     24  C   UNL     1      47.739   2.645   6.560  0.00  0.00    +0.000 A 
ATOM     25  N   UNL     1      47.829   1.349   6.928  0.00  0.00    +0.000 NA
ATOM     26  C   UNL     1      46.886   0.898   7.783  0.00  0.00    +0.000 A 
ATOM     27  C   UNL     1      45.865   1.686   8.290  0.00  0.00    +0.000 A 
ENDBRANCH  21  22
ENDBRANCH  19  21
ENDBRANCH  18  19
ENDBRANCH   4  18
TORSDOF 8
ENDMDL
