MODEL 1
REMARK VINA RESULT:    -8.525      0.000      0.000
REMARK INTER + INTRA:         -12.517
REMARK INTER:                 -11.515
REMARK INTRA:                  -1.002
REMARK UNBOUND:                -1.002
REMARK  Name = 
REMARK  7 active torsions:
REMARK  status: ('A' for Active; 'I' for Inactive)
REMARK    1  A    between atoms: C_1  and  C_2
REMARK    2  A    between atoms: C_2  and  C_3
REMARK    3  A    between atoms: C_2  and  C_13
REMARK    4  A    between atoms: C_3  and  C_4
REMARK    5  A    between atoms: C_7  and  C_8
REMARK    6  A    between atoms: C_18  and  O_19
REMARK    7  A    between atoms: O_19  and  C_20
REMARK                            x       y       z     vdW  Elec       q    Type
REMARK                         _______ _______ _______ _____ _____    ______ ____
ROOT
ATOM      1  C   UNL     1      42.650   5.375  12.001  0.00  0.00    +0.000 C 
ATOM      2  C   UNL     1      43.956   4.964  11.288  0.00  0.00    +0.000 C 
ENDROOT
BRANCH   2   3
ATOM      3  C   UNL     1      45.241   5.342  12.038  0.00  0.00    +0.000 A 
ATOM      4  C   UNL     1      46.106   6.336  11.548  0.00  0.00    +0.000 A 
ATOM      5  C   UNL     1      47.345   6.568  12.142  0.00  0.00    +0.000 A 
ATOM      6  F   UNL     1      48.160   7.496  11.623  0.00  0.00    +0.000 F 
ATOM      7  C   UNL     1      47.757   5.831  13.237  0.00  0.00    +0.000 A 
ATOM      8  C   UNL     1      46.926   4.850  13.764  0.00  0.00    +0.000 A 
ATOM      9  C   UNL     1      45.679   4.602  13.165  0.00  0.00    +0.000 A 
BRANCH   8  10
ATOM     10  O   UNL     1      47.469   4.176  14.818  0.00  0.00    +0.000 OA
BRANCH  10  11
ATOM     11  C   UNL     1      47.297   4.679  16.147  0.00  0.00    +0.000 C 
ATOM     12  C   UNL     1      48.624   5.111  16.733  0.00  0.00    +0.000 C 
ATOM     13  C   UNL     1      49.261   3.783  17.082  0.00  0.00    +0.000 C 
ATOM     14  O   UNL     1      48.194   2.923  17.508  0.00  0.00    +0.000 OA
ATOM     15  C   UNL     1      46.954   3.493  17.049  0.00  0.00    +0.000 C 
ENDBRANCH  10  11
ENDBRANCH   8  10
ENDBRANCH   2   3
BRANCH   2  16
ATOM     16  C   UNL     1      43.841   3.505  10.768  0.00  0.00    +0.000 C 
BRANCH  16  17
ATOM     17  C   UNL     1      44.671   3.186   9.551  0.00  0.00    +0.000 A 
ATOM     18  C   UNL     1      45.019   4.180   8.644  0.00  0.00    +0.000 A 
ATOM     19  C   UNL     1      45.884   3.867   7.598  0.00  0.00    +0.000 A 
ATOM     20  C   UNL     1      46.382   2.570   7.472  0.00  0.00    +0.000 A 
ATOM     21  C   UNL     1      45.922   1.624   8.374  0.00  0.00    +0.000 A 
ATOM     22  N   UNL     1      45.081   1.901   9.404  0.00  0.00    +0.000 NA
BRANCH  20  23
ATOM     23  C   UNL     1      47.421   2.298   6.451  0.00  0.00    +0.000 C 
ATOM     24  N   UNL     1      47.499   3.100   5.348  0.00  0.00    +0.000 N 
ATOM     25  O   UNL     1      48.189   1.349   6.571  0.00  0.00    +0.000 OA
ATOM     26  H   UNL     1      46.944   3.921   5.165  0.00  0.00    +0.000 HD
ATOM     27  H   UNL     1      48.184   2.835   4.649  0.00  0.00    +0.000 HD
ENDBRANCH  20  23
ENDBRANCH  16  17
ENDBRANCH   2  16
TORSDOF 6
ENDMDL
MODEL 2
REMARK VINA RESULT:    -8.153      2.364      3.600
REMARK INTER + INTRA:         -12.015
REMARK INTER:                 -10.962
REMARK INTRA:                  -1.053
REMARK UNBOUND:                -1.002
REMARK  Name = 
REMARK  7 active torsions:
REMARK  status: ('A' for Active; 'I' for Inactive)
REMARK    1  A    between atoms: C_1  and  C_2
REMARK    2  A    between atoms: C_2  and  C_3
REMARK    3  A    between atoms: C_2  and  C_13
REMARK    4  A    between atoms: C_3  and  C_4
REMARK    5  A    between atoms: C_7  and  C_8
REMARK    6  A    between atoms: C_18  and  O_19
REMARK    7  A    between atoms: O_19  and  C_20
REMARK                            x       y       z     vdW  Elec       q    Type
REMARK                         _______ _______ _______ _____ _____    ______ ____
ROOT
ATOM      1  C   UNL     1      42.652   5.493  11.826  0.00  0.00    +0.000 C 
ATOM      2  C   UNL     1      43.946   5.028  11.126  0.00  0.00    +0.000 C 
ENDROOT
BRANCH   2   3
ATOM      3  C   UNL     1      45.229   5.244  11.942  0.00  0.00    +0.000 A 
ATOM      4  C   UNL     1      45.647   4.308  12.904  0.00  0.00    +0.000 A 
ATOM      5  C   UNL     1      46.719   4.577  13.752  0.00  0.00    +0.000 A 
ATOM      6  F   UNL     1      47.064   3.679  14.683  0.00  0.00    +0.000 F 
ATOM      7  C   UNL     1      47.410   5.773  13.665  0.00  0.00    +0.000 A 
ATOM      8  C   UNL     1      47.040   6.718  12.717  0.00  0.00    +0.000 A 
ATOM      9  C   UNL     1      45.953   6.460  11.865  0.00  0.00    +0.000 A 
BRANCH   8  10
ATOM     10  O   UNL     1      47.780   7.864  12.765  0.00  0.00    +0.000 OA
BRANCH  10  11
ATOM     11  C   UNL     1      48.547   8.262  11.623  0.00  0.00    +0.000 C 
ATOM     12  C   UNL     1      49.912   7.609  11.641  0.00  0.00    +0.000 C 
ATOM     13  C   UNL     1      50.638   8.426  12.689  0.00  0.00    +0.000 C 
ATOM     14  O   UNL     1      50.157   9.771  12.557  0.00  0.00    +0.000 OA
ATOM     15  C   UNL     1      48.925   9.731  11.811  0.00  0.00    +0.000 C 
ENDBRANCH  10  11
ENDBRANCH   8  10
ENDBRANCH   2   3
BRANCH   2  16
ATOM     16  C   UNL     1      43.734   3.625  10.495  0.00  0.00    +0.000 C 
BRANCH  16  17
ATOM     17  C   UNL     1      44.656   3.285   9.351  0.00  0.00    +0.000 A 
ATOM     18  C   UNL     1      45.201   4.284   8.553  0.00  0.00    +0.000 A 
ATOM     19  C   UNL     1      46.140   3.937   7.584  0.00  0.00    +0.000 A 
ATOM     20  C   UNL     1      46.512   2.601   7.424  0.00  0.00    +0.000 A 
ATOM     21  C   UNL     1      45.861   1.663   8.209  0.00  0.00    +0.000 A 
ATOM     22  N   UNL     1      44.945   1.974   9.162  0.00  0.00    +0.000 NA
BRANCH  20  23
ATOM     23  C   UNL     1      47.625   2.275   6.500  0.00  0.00    +0.000 C 
ATOM     24  N   UNL     1      47.733   2.953   5.319  0.00  0.00    +0.000 N 
ATOM     25  O   UNL     1      48.427   1.387   6.770  0.00  0.00    +0.000 OA
ATOM     26  H   UNL     1      47.152   3.718   5.014  0.00  0.00    +0.000 HD
ATOM     27  H   UNL     1      48.471   2.650   4.695  0.00  0.00    +0.000 HD
ENDBRANCH  20  23
ENDBRANCH  16  17
ENDBRANCH   2  16
TORSDOF 6
ENDMDL
MODEL 3
REMARK VINA RESULT:    -7.919      3.319      5.045
REMARK INTER + INTRA:         -11.698
REMARK INTER:                 -10.810
REMARK INTRA:                  -0.889
REMARK UNBOUND:                -1.002
REMARK  Name = 
REMARK  7 active torsions:
REMARK  status: ('A' for Active; 'I' for Inactive)
REMARK    1  A    between atoms: C_1  and  C_2
REMARK    2  A    between atoms: C_2  and  C_3
REMARK    3  A    between atoms: C_2  and  C_13
REMARK    4  A    between atoms: C_3  and  C_4
REMARK    5  A    between atoms: C_7  and  C_8
REMARK    6  A    between atoms: C_18  and  O_19
REMARK    7  A    between atoms: O_19  and  C_20
REMARK                            x       y       z     vdW  Elec       q    Type
REMARK                         _______ _______ _______ _____ _____    ______ ____
ROOT
ATOM      1  C   UNL     1      45.085   3.447  12.450  0.00  0.00    +0.000 C 
ATOM      2  C   UNL     1      44.422   4.703  11.849  0.00  0.00    +0.000 C 
ENDROOT
BRANCH   2   3
ATOM      3  C   UNL     1      45.301   5.962  11.865  0.00  0.00    +0.000 A 
ATOM      4  C   UNL     1      46.685   5.881  12.094  0.00  0.00    +0.000 A 
ATOM      5  C   UNL     1      47.455   7.030  12.266  0.00  0.00    +0.000 A 
ATOM      6  F   UNL     1      48.764   6.913  12.523  0.00  0.00    +0.000 F 
ATOM      7  C   UNL     1      46.879   8.286  12.207  0.00  0.00    +0.000 A 
ATOM      8  C   UNL     1      45.516   8.412  11.966  0.00  0.00    +0.000 A 
ATOM      9  C   UNL     1      44.730   7.258  11.803  0.00  0.00    +0.000 A 
BRANCH   8  10
ATOM     10  O   UNL     1      45.073   9.702  11.969  0.00  0.00    +0.000 OA
BRANCH  10  11
ATOM     11  C   UNL     1      44.353  10.209  10.841  0.00  0.00    +0.000 C 
ATOM     12  C   UNL     1      44.987  11.484  10.329  0.00  0.00    +0.000 C 
ATOM     13  C   UNL     1      44.528  12.498  11.355  0.00  0.00    +0.000 C 
ATOM     14  O   UNL     1      43.203  12.108  11.743  0.00  0.00    +0.000 OA
ATOM     15  C   UNL     1      43.011  10.736  11.349  0.00  0.00    +0.000 C 
ENDBRANCH  10  11
ENDBRANCH   8  10
ENDBRANCH   2   3
BRANCH   2  16
ATOM     16  C   UNL     1      43.721   4.346  10.510  0.00  0.00    +0.000 C 
BRANCH  16  17
ATOM     17  C   UNL     1      44.603   3.703   9.470  0.00  0.00    +0.000 A 
ATOM     18  C   UNL     1      45.358   4.479   8.597  0.00  0.00    +0.000 A 
ATOM     19  C   UNL     1      46.249   3.848   7.732  0.00  0.00    +0.000 A 
ATOM     20  C   UNL     1      46.367   2.458   7.748  0.00  0.00    +0.000 A 
ATOM     21  C   UNL     1      45.522   1.759   8.595  0.00  0.00    +0.000 A 
ATOM     22  N   UNL     1      44.646   2.348   9.450  0.00  0.00    +0.000 NA
BRANCH  20  23
ATOM     23  C   UNL     1      47.431   1.821   6.936  0.00  0.00    +0.000 C 
ATOM     24  N   UNL     1      48.508   2.565   6.545  0.00  0.00    +0.000 N 
ATOM     25  O   UNL     1      47.341   0.648   6.589  0.00  0.00    +0.000 OA
ATOM     26  H   UNL     1      48.698   3.521   6.799  0.00  0.00    +0.000 HD
ATOM     27  H   UNL     1      49.175   2.102   5.939  0.00  0.00    +0.000 HD
ENDBRANCH  20  23
ENDBRANCH  16  17
ENDBRANCH   2  16
TORSDOF 6
ENDMDL
MODEL 4
REMARK VINA RESULT:    -7.492      2.842      3.464
REMARK INTER + INTRA:         -11.122
REMARK INTER:                 -10.143
REMARK INTRA:                  -0.979
REMARK UNBOUND:                -1.002
REMARK  Name = 
REMARK  7 active torsions:
REMARK  status: ('A' for Active; 'I' for Inactive)
REMARK    1  A    between atoms: C_1  and  C_2
REMARK    2  A    between atoms: C_2  and  C_3
REMARK    3  A    between atoms: C_2  and  C_13
REMARK    4  A    between atoms: C_3  and  C_4
REMARK    5  A    between atoms: C_7  and  C_8
REMARK    6  A    between atoms: C_18  and  O_19
REMARK    7  A    between atoms: O_19  and  C_20
REMARK                            x       y       z     vdW  Elec       q    Type
REMARK                         _______ _______ _______ _____ _____    ______ ____
ROOT
ATOM      1  C   UNL     1      45.554   3.219  12.396  0.00  0.00    +0.000 C 
ATOM      2  C   UNL     1      44.350   4.135  12.093  0.00  0.00    +0.000 C 
ENDROOT
BRANCH   2   3
ATOM      3  C   UNL     1      44.643   5.637  12.211  0.00  0.00    +0.000 A 
ATOM      4  C   UNL     1      43.881   6.586  11.508  0.00  0.00    +0.000 A 
ATOM      5  C   UNL     1      44.245   7.932  11.490  0.00  0.00    +0.000 A 
ATOM      6  F   UNL     1      43.517   8.800  10.776  0.00  0.00    +0.000 F 
ATOM      7  C   UNL     1      45.363   8.374  12.173  0.00  0.00    +0.000 A 
ATOM      8  C   UNL     1      46.135   7.472  12.894  0.00  0.00    +0.000 A 
ATOM      9  C   UNL     1      45.783   6.111  12.909  0.00  0.00    +0.000 A 
BRANCH   8  10
ATOM     10  O   UNL     1      47.228   8.033  13.488  0.00  0.00    +0.000 OA
BRANCH  10  11
ATOM     11  C   UNL     1      48.054   8.936  12.746  0.00  0.00    +0.000 C 
ATOM     12  C   UNL     1      48.822   8.198  11.671  0.00  0.00    +0.000 C 
ATOM     13  C   UNL     1      49.909   7.515  12.473  0.00  0.00    +0.000 C 
ATOM     14  O   UNL     1      50.258   8.418  13.532  0.00  0.00    +0.000 OA
ATOM     15  C   UNL     1      49.193   9.380  13.664  0.00  0.00    +0.000 C 
ENDBRANCH  10  11
ENDBRANCH   8  10
ENDBRANCH   2   3
BRANCH   2  16
ATOM     16  C   UNL     1      43.627   3.652  10.806  0.00  0.00    +0.000 C 
BRANCH  16  17
ATOM     17  C   UNL     1      44.527   3.323   9.643  0.00  0.00    +0.000 A 
ATOM     18  C   UNL     1      45.096   4.332   8.874  0.00  0.00    +0.000 A 
ATOM     19  C   UNL     1      46.015   3.990   7.884  0.00  0.00    +0.000 A 
ATOM     20  C   UNL     1      46.345   2.650   7.675  0.00  0.00    +0.000 A 
ATOM     21  C   UNL     1      45.672   1.706   8.434  0.00  0.00    +0.000 A 
ATOM     22  N   UNL     1      44.775   2.011   9.406  0.00  0.00    +0.000 NA
BRANCH  20  23
ATOM     23  C   UNL     1      47.438   2.322   6.730  0.00  0.00    +0.000 C 
ATOM     24  N   UNL     1      47.548   3.027   5.565  0.00  0.00    +0.000 N 
ATOM     25  O   UNL     1      48.223   1.410   6.967  0.00  0.00    +0.000 OA
ATOM     26  H   UNL     1      46.981   3.812   5.285  0.00  0.00    +0.000 HD
ATOM     27  H   UNL     1      48.271   2.723   4.924  0.00  0.00    +0.000 HD
ENDBRANCH  20  23
ENDBRANCH  16  17
ENDBRANCH   2  16
TORSDOF 6
ENDMDL
MODEL 5
REMARK VINA RESULT:    -6.743      3.130      7.878
REMARK INTER + INTRA:         -10.109
REMARK INTER:                  -9.218
REMARK INTRA:                  -0.891
REMARK UNBOUND:                -1.002
REMARK  Name = 
REMARK  7 active torsions:
REMARK  status: ('A' for Active; 'I' for Inactive)
REMARK    1  A    between atoms: C_1  and  C_2
REMARK    2  A    between atoms: C_2  and  C_3
REMARK    3  A    between atoms: C_2  and  C_13
REMARK    4  A    between atoms: C_3  and  C_4
REMARK    5  A    between atoms: C_7  and  C_8
REMARK    6  A    between atoms: C_18  and  O_19
REMARK    7  A    between atoms: O_19  and  C_20
REMARK                            x       y       z     vdW  Elec       q    Type
REMARK                         _______ _______ _______ _____ _____    ______ ____
ROOT
ATOM      1  C   UNL     1      46.599   8.808  12.223  0.00  0.00    +0.000 C 
ATOM      2  C   UNL     1      46.464   7.388  12.811  0.00  0.00    +0.000 C 
ENDROOT
BRANCH   2   3
ATOM      3  C   UNL     1      45.449   6.490  12.090  0.00  0.00    +0.000 A 
ATOM      4  C   UNL     1      44.067   6.733  12.179  0.00  0.00    +0.000 A 
ATOM      5  C   UNL     1      43.142   5.830  11.657  0.00  0.00    +0.000 A 
ATOM      6  F   UNL     1      41.833   6.075  11.796  0.00  0.00    +0.000 F 
ATOM      7  C   UNL     1      43.559   4.671  11.027  0.00  0.00    +0.000 A 
ATOM      8  C   UNL     1      44.916   4.401  10.902  0.00  0.00    +0.000 A 
ATOM      9  C   UNL     1      45.856   5.300  11.435  0.00  0.00    +0.000 A 
BRANCH   8  10
ATOM     10  O   UNL     1      45.187   3.210  10.294  0.00  0.00    +0.000 OA
BRANCH  10  11
ATOM     11  C   UNL     1      44.570   2.897   9.040  0.00  0.00    +0.000 C 
ATOM     12  C   UNL     1      44.847   1.461   8.651  0.00  0.00    +0.000 C 
ATOM     13  C   UNL     1      46.284   1.535   8.177  0.00  0.00    +0.000 C 
ATOM     14  O   UNL     1      46.431   2.808   7.533  0.00  0.00    +0.000 OA
ATOM     15  C   UNL     1      45.337   3.647   7.950  0.00  0.00    +0.000 C 
ENDBRANCH  10  11
ENDBRANCH   8  10
ENDBRANCH   2   3
BRANCH   2  16
ATOM     16  C   UNL     1      47.870   6.790  13.086  0.00  0.00    +0.000 C 
BRANCH  16  17
ATOM     17  C   UNL     1      48.041   6.131  14.431  0.00  0.00    +0.000 A 
ATOM     18  C   UNL     1      48.754   6.758  15.447  0.00  0.00    +0.000 A 
ATOM     19  C   UNL     1      48.788   6.170  16.709  0.00  0.00    +0.000 A 
ATOM     20  C   UNL     1      48.117   4.967  16.934  0.00  0.00    +0.000 A 
ATOM     21  C   UNL     1      47.498   4.373  15.846  0.00  0.00    +0.000 A 
ATOM     22  N   UNL     1      47.448   4.925  14.606  0.00  0.00    +0.000 NA
BRANCH  20  23
ATOM     23  C   UNL     1      48.033   4.443  18.318  0.00  0.00    +0.000 C 
ATOM     24  N   UNL     1      47.733   3.126  18.516  0.00  0.00    +0.000 N 
ATOM     25  O   UNL     1      48.200   5.183  19.282  0.00  0.00    +0.000 OA
ATOM     26  H   UNL     1      47.609   2.426  17.801  0.00  0.00    +0.000 HD
ATOM     27  H   UNL     1      47.625   2.831  19.480  0.00  0.00    +0.000 HD
ENDBRANCH  20  23
ENDBRANCH  16  17
ENDBRANCH   2  16
TORSDOF 6
ENDMDL
MODEL 6
REMARK VINA RESULT:    -6.564      2.964      4.425
REMARK INTER + INTRA:          -9.868
REMARK INTER:                  -8.964
REMARK INTRA:                  -0.904
REMARK UNBOUND:                -1.002
REMARK  Name = 
REMARK  7 active torsions:
REMARK  status: ('A' for Active; 'I' for Inactive)
REMARK    1  A    between atoms: C_1  and  C_2
REMARK    2  A    between atoms: C_2  and  C_3
REMARK    3  A    between atoms: C_2  and  C_13
REMARK    4  A    between atoms: C_3  and  C_4
REMARK    5  A    between atoms: C_7  and  C_8
REMARK    6  A    between atoms: C_18  and  O_19
REMARK    7  A    between atoms: O_19  and  C_20
REMARK                            x       y       z     vdW  Elec       q    Type
REMARK                         _______ _______ _______ _____ _____    ______ ____
ROOT
ATOM      1  C   UNL     1      48.350   9.259  11.911  0.00  0.00    +0.000 C 
ATOM      2  C   UNL     1      47.721   8.004  12.551  0.00  0.00    +0.000 C 
ENDROOT
BRANCH   2   3
ATOM      3  C   UNL     1      48.044   7.814  14.040  0.00  0.00    +0.000 A 
ATOM      4  C   UNL     1      48.144   8.914  14.910  0.00  0.00    +0.000 A 
ATOM      5  C   UNL     1      48.590   8.756  16.221  0.00  0.00    +0.000 A 
ATOM      6  F   UNL     1      48.711   9.832  17.008  0.00  0.00    +0.000 F 
ATOM      7  C   UNL     1      48.939   7.509  16.707  0.00  0.00    +0.000 A 
ATOM      8  C   UNL     1      48.838   6.393  15.886  0.00  0.00    +0.000 A 
ATOM      9  C   UNL     1      48.400   6.544  14.559  0.00  0.00    +0.000 A 
BRANCH   8  10
ATOM     10  O   UNL     1      49.248   5.234  16.479  0.00  0.00    +0.000 OA
BRANCH  10  11
ATOM     11  C   UNL     1      48.280   4.351  17.055  0.00  0.00    +0.000 C 
ATOM     12  C   UNL     1      48.943   3.374  18.002  0.00  0.00    +0.000 C 
ATOM     13  C   UNL     1      49.589   2.396  17.043  0.00  0.00    +0.000 C 
ATOM     14  O   UNL     1      48.700   2.281  15.923  0.00  0.00    +0.000 OA
ATOM     15  C   UNL     1      47.803   3.407  15.950  0.00  0.00    +0.000 C 
ENDBRANCH  10  11
ENDBRANCH   8  10
ENDBRANCH   2   3
BRANCH   2  16
ATOM     16  C   UNL     1      46.233   7.879  12.126  0.00  0.00    +0.000 C 
BRANCH  16  17
ATOM     17  C   UNL     1      45.758   6.478  11.837  0.00  0.00    +0.000 A 
ATOM     18  C   UNL     1      45.342   5.640  12.866  0.00  0.00    +0.000 A 
ATOM     19  C   UNL     1      44.799   4.397  12.546  0.00  0.00    +0.000 A 
ATOM     20  C   UNL     1      44.688   4.010  11.210  0.00  0.00    +0.000 A 
ATOM     21  C   UNL     1      45.199   4.874  10.255  0.00  0.00    +0.000 A 
ATOM     22  N   UNL     1      45.730   6.092  10.538  0.00  0.00    +0.000 NA
BRANCH  20  23
ATOM     23  C   UNL     1      43.965   2.757  10.886  0.00  0.00    +0.000 C 
ATOM     24  N   UNL     1      44.375   2.006   9.822  0.00  0.00    +0.000 N 
ATOM     25  O   UNL     1      42.991   2.406  11.542  0.00  0.00    +0.000 OA
ATOM     26  H   UNL     1      45.178   2.183   9.239  0.00  0.00    +0.000 HD
ATOM     27  H   UNL     1      43.810   1.194   9.603  0.00  0.00    +0.000 HD
ENDBRANCH  20  23
ENDBRANCH  16  17
ENDBRANCH   2  16
TORSDOF 6
ENDMDL
MODEL 7
REMARK VINA RESULT:    -6.201      4.643      8.418
REMARK INTER + INTRA:          -9.378
REMARK INTER:                  -8.518
REMARK INTRA:                  -0.860
REMARK UNBOUND:                -1.002
REMARK  Name = 
REMARK  7 active torsions:
REMARK  status: ('A' for Active; 'I' for Inactive)
REMARK    1  A    between atoms: C_1  and  C_2
REMARK    2  A    between atoms: C_2  and  C_3
REMARK    3  A    between atoms: C_2  and  C_13
REMARK    4  A    between atoms: C_3  and  C_4
REMARK    5  A    between atoms: C_7  and  C_8
REMARK    6  A    between atoms: C_18  and  O_19
REMARK    7  A    between atoms: O_19  and  C_20
REMARK                            x       y       z     vdW  Elec       q    Type
REMARK                         _______ _______ _______ _____ _____    ______ ____
ROOT
ATOM      1  C   UNL     1      47.345   5.309  18.153  0.00  0.00    +0.000 C 
ATOM      2  C   UNL     1      48.354   4.825  17.091  0.00  0.00    +0.000 C 
ENDROOT
BRANCH   2   3
ATOM      3  C   UNL     1      48.025   5.253  15.654  0.00  0.00    +0.000 A 
ATOM      4  C   UNL     1      48.538   6.443  15.111  0.00  0.00    +0.000 A 
ATOM      5  C   UNL     1      48.115   6.909  13.868  0.00  0.00    +0.000 A 
ATOM      6  F   UNL     1      48.596   8.068  13.401  0.00  0.00    +0.000 F 
ATOM      7  C   UNL     1      47.182   6.207  13.126  0.00  0.00    +0.000 A 
ATOM      8  C   UNL     1      46.662   5.016  13.619  0.00  0.00    +0.000 A 
ATOM      9  C   UNL     1      47.074   4.544  14.876  0.00  0.00    +0.000 A 
BRANCH   8  10
ATOM     10  O   UNL     1      45.726   4.446  12.805  0.00  0.00    +0.000 OA
BRANCH  10  11
ATOM     11  C   UNL     1      44.453   5.077  12.637  0.00  0.00    +0.000 C 
ATOM     12  C   UNL     1      43.332   4.127  12.999  0.00  0.00    +0.000 C 
ATOM     13  C   UNL     1      43.287   3.217  11.790  0.00  0.00    +0.000 C 
ATOM     14  O   UNL     1      43.595   4.038  10.655  0.00  0.00    +0.000 OA
ATOM     15  C   UNL     1      44.216   5.246  11.135  0.00  0.00    +0.000 C 
ENDBRANCH  10  11
ENDBRANCH   8  10
ENDBRANCH   2   3
BRANCH   2  16
ATOM     16  C   UNL     1      49.806   5.067  17.589  0.00  0.00    +0.000 C 
BRANCH  16  17
ATOM     17  C   UNL     1      50.659   3.831  17.717  0.00  0.00    +0.000 A 
ATOM     18  C   UNL     1      50.175   2.587  17.332  0.00  0.00    +0.000 A 
ATOM     19  C   UNL     1      51.034   1.491  17.355  0.00  0.00    +0.000 A 
ATOM     20  C   UNL     1      52.357   1.654  17.768  0.00  0.00    +0.000 A 
ATOM     21  C   UNL     1      52.734   2.913  18.209  0.00  0.00    +0.000 A 
ATOM     22  N   UNL     1      51.918   3.998  18.194  0.00  0.00    +0.000 NA
BRANCH  20  23
ATOM     23  C   UNL     1      53.294   0.513  17.635  0.00  0.00    +0.000 C 
ATOM     24  N   UNL     1      53.112  -0.595  18.412  0.00  0.00    +0.000 N 
ATOM     25  O   UNL     1      54.243   0.565  16.859  0.00  0.00    +0.000 OA
ATOM     26  H   UNL     1      52.352  -0.756  19.055  0.00  0.00    +0.000 HD
ATOM     27  H   UNL     1      53.815  -1.320  18.330  0.00  0.00    +0.000 HD
ENDBRANCH  20  23
ENDBRANCH  16  17
ENDBRANCH   2  16
TORSDOF 6
ENDMDL
MODEL 8
REMARK VINA RESULT:    -6.155      3.662      7.504
REMARK INTER + INTRA:          -9.316
REMARK INTER:                  -8.520
REMARK INTRA:                  -0.796
REMARK UNBOUND:                -1.002
REMARK  Name = 
REMARK  7 active torsions:
REMARK  status: ('A' for Active; 'I' for Inactive)
REMARK    1  A    between atoms: C_1  and  C_2
REMARK    2  A    between atoms: C_2  and  C_3
REMARK    3  A    between atoms: C_2  and  C_13
REMARK    4  A    between atoms: C_3  and  C_4
REMARK    5  A    between atoms: C_7  and  C_8
REMARK    6  A    between atoms: C_18  and  O_19
REMARK    7  A    between atoms: O_19  and  C_20
REMARK                            x       y       z     vdW  Elec       q    Type
REMARK                         _______ _______ _______ _____ _____    ______ ____
ROOT
ATOM      1  C   UNL     1      48.857  10.220  13.450  0.00  0.00    +0.000 C 
ATOM      2  C   UNL     1      48.007   8.936  13.554  0.00  0.00    +0.000 C 
ENDROOT
BRANCH   2   3
ATOM      3  C   UNL     1      46.772   8.911  12.642  0.00  0.00    +0.000 A 
ATOM      4  C   UNL     1      46.219  10.097  12.130  0.00  0.00    +0.000 A 
ATOM      5  C   UNL     1      45.011  10.086  11.435  0.00  0.00    +0.000 A 
ATOM      6  F   UNL     1      44.494  11.241  10.996  0.00  0.00    +0.000 F 
ATOM      7  C   UNL     1      44.324   8.905  11.222  0.00  0.00    +0.000 A 
ATOM      8  C   UNL     1      44.844   7.707  11.697  0.00  0.00    +0.000 A 
ATOM      9  C   UNL     1      46.056   7.709  12.408  0.00  0.00    +0.000 A 
BRANCH   8  10
ATOM     10  O   UNL     1      44.050   6.625  11.450  0.00  0.00    +0.000 OA
BRANCH  10  11
ATOM     11  C   UNL     1      44.215   5.432  12.223  0.00  0.00    +0.000 C 
ATOM     12  C   UNL     1      45.097   4.441  11.496  0.00  0.00    +0.000 C 
ATOM     13  C   UNL     1      44.155   3.893  10.445  0.00  0.00    +0.000 C 
ATOM     14  O   UNL     1      42.857   3.841  11.054  0.00  0.00    +0.000 OA
ATOM     15  C   UNL     1      42.878   4.690  12.217  0.00  0.00    +0.000 C 
ENDBRANCH  10  11
ENDBRANCH   8  10
ENDBRANCH   2   3
BRANCH   2  16
ATOM     16  C   UNL     1      48.928   7.686  13.535  0.00  0.00    +0.000 C 
BRANCH  16  17
ATOM     17  C   UNL     1      48.623   6.642  14.579  0.00  0.00    +0.000 A 
ATOM     18  C   UNL     1      49.159   6.735  15.859  0.00  0.00    +0.000 A 
ATOM     19  C   UNL     1      48.757   5.817  16.826  0.00  0.00    +0.000 A 
ATOM     20  C   UNL     1      47.835   4.821  16.500  0.00  0.00    +0.000 A 
ATOM     21  C   UNL     1      47.413   4.756  15.182  0.00  0.00    +0.000 A 
ATOM     22  N   UNL     1      47.785   5.638  14.220  0.00  0.00    +0.000 NA
BRANCH  20  23
ATOM     23  C   UNL     1      47.304   3.957  17.581  0.00  0.00    +0.000 C 
ATOM     24  N   UNL     1      47.680   4.195  18.872  0.00  0.00    +0.000 N 
ATOM     25  O   UNL     1      46.557   3.018  17.326  0.00  0.00    +0.000 OA
ATOM     26  H   UNL     1      48.259   4.954  19.196  0.00  0.00    +0.000 HD
ATOM     27  H   UNL     1      47.341   3.539  19.565  0.00  0.00    +0.000 HD
ENDBRANCH  20  23
ENDBRANCH  16  17
ENDBRANCH   2  16
TORSDOF 6
ENDMDL
MODEL 9
REMARK VINA RESULT:    -6.070      1.972      2.760
REMARK INTER + INTRA:          -9.200
REMARK INTER:                  -8.144
REMARK INTRA:                  -1.056
REMARK UNBOUND:                -1.002
REMARK  Name = 
REMARK  7 active torsions:
REMARK  status: ('A' for Active; 'I' for Inactive)
REMARK    1  A    between atoms: C_1  and  C_2
REMARK    2  A    between atoms: C_2  and  C_3
REMARK    3  A    between atoms: C_2  and  C_13
REMARK    4  A    between atoms: C_3  and  C_4
REMARK    5  A    between atoms: C_7  and  C_8
REMARK    6  A    between atoms: C_18  and  O_19
REMARK    7  A    between atoms: O_19  and  C_20
REMARK                            x       y       z     vdW  Elec       q    Type
REMARK                         _______ _______ _______ _____ _____    ______ ____
ROOT
ATOM      1  C   UNL     1      45.079   9.282  12.180  0.00  0.00    +0.000 C 
ATOM      2  C   UNL     1      45.770   7.912  12.017  0.00  0.00    +0.000 C 
ENDROOT
BRANCH   2   3
ATOM      3  C   UNL     1      47.090   7.766  12.788  0.00  0.00    +0.000 A 
ATOM      4  C   UNL     1      48.232   8.501  12.425  0.00  0.00    +0.000 A 
ATOM      5  C   UNL     1      49.467   8.253  13.021  0.00  0.00    +0.000 A 
ATOM      6  F   UNL     1      50.541   8.945  12.621  0.00  0.00    +0.000 F 
ATOM      7  C   UNL     1      49.603   7.281  13.996  0.00  0.00    +0.000 A 
ATOM      8  C   UNL     1      48.496   6.543  14.396  0.00  0.00    +0.000 A 
ATOM      9  C   UNL     1      47.249   6.778  13.793  0.00  0.00    +0.000 A 
BRANCH   8  10
ATOM     10  O   UNL     1      48.777   5.595  15.336  0.00  0.00    +0.000 OA
BRANCH  10  11
ATOM     11  C   UNL     1      47.707   4.938  16.024  0.00  0.00    +0.000 C 
ATOM     12  C   UNL     1      48.027   4.788  17.495  0.00  0.00    +0.000 C 
ATOM     13  C   UNL     1      49.019   3.644  17.487  0.00  0.00    +0.000 C 
ATOM     14  O   UNL     1      48.599   2.753  16.444  0.00  0.00    +0.000 OA
ATOM     15  C   UNL     1      47.702   3.475  15.578  0.00  0.00    +0.000 C 
ENDBRANCH  10  11
ENDBRANCH   8  10
ENDBRANCH   2   3
BRANCH   2  16
ATOM     16  C   UNL     1      44.729   6.770  12.171  0.00  0.00    +0.000 C 
BRANCH  16  17
ATOM     17  C   UNL     1      44.815   5.674  11.139  0.00  0.00    +0.000 A 
ATOM     18  C   UNL     1      45.638   5.806  10.026  0.00  0.00    +0.000 A 
ATOM     19  C   UNL     1      45.780   4.724   9.160  0.00  0.00    +0.000 A 
ATOM     20  C   UNL     1      45.095   3.535   9.415  0.00  0.00    +0.000 A 
ATOM     21  C   UNL     1      44.237   3.518  10.503  0.00  0.00    +0.000 A 
ATOM     22  N   UNL     1      44.082   4.556  11.364  0.00  0.00    +0.000 NA
BRANCH  20  23
ATOM     23  C   UNL     1      45.383   2.349   8.573  0.00  0.00    +0.000 C 
ATOM     24  N   UNL     1      46.260   2.466   7.532  0.00  0.00    +0.000 N 
ATOM     25  O   UNL     1      44.822   1.279   8.781  0.00  0.00    +0.000 OA
ATOM     26  H   UNL     1      46.798   3.284   7.293  0.00  0.00    +0.000 HD
ATOM     27  H   UNL     1      46.374   1.646   6.949  0.00  0.00    +0.000 HD
ENDBRANCH  20  23
ENDBRANCH  16  17
ENDBRANCH   2  16
TORSDOF 6
ENDMDL
