MODEL 1
REMARK VINA RESULT:    -7.520      0.000      0.000
REMARK INTER + INTRA:         -12.275
REMARK INTER:                 -11.037
REMARK INTRA:                  -1.238
REMARK UNBOUND:                -1.238
REMARK  Name = 
REMARK  10 active torsions:
REMARK  status: ('A' for Active; 'I' for Inactive)
REMARK    1  A    between atoms: C_1  and  O_2
REMARK    2  A    between atoms: O_2  and  C_3
REMARK    3  A    between atoms: C_8  and  C_9
REMARK    4  A    between atoms: N_11  and  C_12
REMARK    5  A    between atoms: C_12  and  C_13
REMARK    6  A    between atoms: C_16  and  C_17
REMARK    7  A    between atoms: C_17  and  N_18
REMARK    8  A    between atoms: N_18  and  C_19
REMARK    9  A    between atoms: N_18  and  C_20
REMARK   10  A    between atoms: C_20  and  C_21
REMARK                            x       y       z     vdW  Elec       q    Type
REMARK                         _______ _______ _______ _____ _____    ______ ____
ROOT
ATOM      1  C   UNL     1      47.382   8.829  13.130  0.00  0.00    +0.000 C 
ENDROOT
BRANCH   1   2
ATOM      2  C   UNL     1      46.510   7.903  12.326  0.00  0.00    +0.000 A 
ATOM      3  C   UNL     1      45.148   8.181  12.146  0.00  0.00    +0.000 A 
ATOM      4  C   UNL     1      44.311   7.246  11.533  0.00  0.00    +0.000 A 
ATOM      5  C   UNL     1      44.818   6.018  11.088  0.00  0.00    +0.000 A 
ATOM      6  C   UNL     1      46.190   5.766  11.219  0.00  0.00    +0.000 A 
ATOM      7  C   UNL     1      47.027   6.697  11.835  0.00  0.00    +0.000 A 
BRANCH   5   8
ATOM      8  C   UNL     1      43.895   4.919  10.600  0.00  0.00    +0.000 C 
BRANCH   8   9
ATOM      9  N   UNL     1      44.482   3.564  10.603  0.00  0.00    +0.000 NA
ATOM     10  C   UNL     1      43.919   2.751  11.684  0.00  0.00    +0.000 C 
BRANCH   9  11
ATOM     11  C   UNL     1      44.206   2.900   9.300  0.00  0.00    +0.000 C 
BRANCH  11  12
ATOM     12  C   UNL     1      45.469   2.553   8.528  0.00  0.00    +0.000 A 
ATOM     13  C   UNL     1      46.094   3.523   7.748  0.00  0.00    +0.000 A 
ATOM     14  C   UNL     1      47.132   3.141   6.906  0.00  0.00    +0.000 A 
ATOM     15  C   UNL     1      47.529   1.809   6.876  0.00  0.00    +0.000 A 
ATOM     16  C   UNL     1      46.879   0.912   7.708  0.00  0.00    +0.000 A 
ATOM     17  N   UNL     1      45.861   1.250   8.528  0.00  0.00    +0.000 NA
ENDBRANCH  11  12
ENDBRANCH   9  11
ENDBRANCH   8   9
ENDBRANCH   5   8
ENDBRANCH   1   2
BRANCH   1  20
ATOM     18  C   UNL     1      49.026   7.776  14.611  0.00  0.00    +0.000 C 
ATOM     19  O   UNL     1      49.925   7.931  13.791  0.00  0.00    +0.000 OA
ATOM     20  N   UNL     1      47.742   8.215  14.388  0.00  0.00    +0.000 N 
ATOM     21  H   UNL     1      47.001   7.842  14.967  0.00  0.00    +0.000 HD
BRANCH  18  27
ATOM     22  C   UNL     1      48.829   4.503  18.411  0.00  0.00    +0.000 A 
ATOM     23  N   UNL     1      47.905   3.634  17.943  0.00  0.00    +0.000 NA
ATOM     24  C   UNL     1      47.350   3.866  16.733  0.00  0.00    +0.000 A 
ATOM     25  C   UNL     1      47.662   4.936  15.905  0.00  0.00    +0.000 A 
ATOM     26  C   UNL     1      48.635   5.840  16.368  0.00  0.00    +0.000 A 
ATOM     27  C   UNL     1      49.232   7.053  15.866  0.00  0.00    +0.000 A 
ATOM     28  C   UNL     1      50.092   7.498  16.856  0.00  0.00    +0.000 A 
ATOM     29  N   UNL     1      50.068   6.613  17.896  0.00  0.00    +0.000 N 
ATOM     30  C   UNL     1      49.186   5.597  17.629  0.00  0.00    +0.000 A 
ATOM     31  H   UNL     1      50.600   6.690  18.754  0.00  0.00    +0.000 HD
BRANCH  22  33
ATOM     32  C   UNL     1      48.550   4.685  20.722  0.00  0.00    +0.000 C 
ATOM     33  O   UNL     1      49.412   4.319  19.647  0.00  0.00    +0.000 OA
ENDBRANCH  22  33
ENDBRANCH  18  27
ENDBRANCH   1  20
TORSDOF 8
ENDMDL
MODEL 2
REMARK VINA RESULT:    -7.161      1.021      1.391
REMARK INTER + INTRA:         -11.748
REMARK INTER:                 -10.869
REMARK INTRA:                  -0.880
REMARK UNBOUND:                -1.238
REMARK  Name = 
REMARK  10 active torsions:
REMARK  status: ('A' for Active; 'I' for Inactive)
REMARK    1  A    between atoms: C_1  and  O_2
REMARK    2  A    between atoms: O_2  and  C_3
REMARK    3  A    between atoms: C_8  and  C_9
REMARK    4  A    between atoms: N_11  and  C_12
REMARK    5  A    between atoms: C_12  and  C_13
REMARK    6  A    between atoms: C_16  and  C_17
REMARK    7  A    between atoms: C_17  and  N_18
REMARK    8  A    between atoms: N_18  and  C_19
REMARK    9  A    between atoms: N_18  and  C_20
REMARK   10  A    between atoms: C_20  and  C_21
REMARK                            x       y       z     vdW  Elec       q    Type
REMARK                         _______ _______ _______ _____ _____    ______ ____
ROOT
ATOM      1  C   UNL     1      47.428   8.827  13.592  0.00  0.00    +0.000 C 
ENDROOT
BRANCH   1   2
ATOM      2  C   UNL     1      46.612   7.761  12.911  0.00  0.00    +0.000 A 
ATOM      3  C   UNL     1      47.166   6.504  12.637  0.00  0.00    +0.000 A 
ATOM      4  C   UNL     1      46.461   5.573  11.870  0.00  0.00    +0.000 A 
ATOM      5  C   UNL     1      45.190   5.880  11.366  0.00  0.00    +0.000 A 
ATOM      6  C   UNL     1      44.615   7.116  11.689  0.00  0.00    +0.000 A 
ATOM      7  C   UNL     1      45.320   8.049  12.451  0.00  0.00    +0.000 A 
BRANCH   5   8
ATOM      8  C   UNL     1      44.497   4.964  10.377  0.00  0.00    +0.000 C 
BRANCH   8   9
ATOM      9  N   UNL     1      44.676   3.521  10.633  0.00  0.00    +0.000 NA
ATOM     10  C   UNL     1      43.837   3.078  11.749  0.00  0.00    +0.000 C 
BRANCH   9  11
ATOM     11  C   UNL     1      44.310   2.750   9.414  0.00  0.00    +0.000 C 
BRANCH  11  12
ATOM     12  C   UNL     1      45.489   2.508   8.484  0.00  0.00    +0.000 A 
ATOM     13  C   UNL     1      45.886   3.503   7.594  0.00  0.00    +0.000 A 
ATOM     14  C   UNL     1      46.838   3.197   6.628  0.00  0.00    +0.000 A 
ATOM     15  C   UNL     1      47.378   1.918   6.585  0.00  0.00    +0.000 A 
ATOM     16  C   UNL     1      46.955   0.995   7.528  0.00  0.00    +0.000 A 
ATOM     17  N   UNL     1      46.025   1.258   8.471  0.00  0.00    +0.000 NA
ENDBRANCH  11  12
ENDBRANCH   9  11
ENDBRANCH   8   9
ENDBRANCH   5   8
ENDBRANCH   1   2
BRANCH   1  20
ATOM     18  C   UNL     1      48.824   8.117  15.477  0.00  0.00    +0.000 C 
ATOM     19  O   UNL     1      49.825   8.068  14.769  0.00  0.00    +0.000 OA
ATOM     20  N   UNL     1      47.599   8.511  14.992  0.00  0.00    +0.000 N 
ATOM     21  H   UNL     1      46.775   8.290  15.537  0.00  0.00    +0.000 HD
BRANCH  18  27
ATOM     22  C   UNL     1      48.699   5.492  19.753  0.00  0.00    +0.000 A 
ATOM     23  N   UNL     1      48.529   4.241  19.271  0.00  0.00    +0.000 NA
ATOM     24  C   UNL     1      48.439   4.066  17.935  0.00  0.00    +0.000 A 
ATOM     25  C   UNL     1      48.521   5.082  16.991  0.00  0.00    +0.000 A 
ATOM     26  C   UNL     1      48.716   6.388  17.473  0.00  0.00    +0.000 A 
ATOM     27  C   UNL     1      48.839   7.696  16.877  0.00  0.00    +0.000 A 
ATOM     28  C   UNL     1      48.950   8.590  17.929  0.00  0.00    +0.000 A 
ATOM     29  N   UNL     1      48.935   7.896  19.105  0.00  0.00    +0.000 N 
ATOM     30  C   UNL     1      48.789   6.555  18.859  0.00  0.00    +0.000 A 
ATOM     31  H   UNL     1      48.999   8.298  20.033  0.00  0.00    +0.000 HD
BRANCH  22  33
ATOM     32  C   UNL     1      47.501   5.739  21.742  0.00  0.00    +0.000 C 
ATOM     33  O   UNL     1      48.779   5.725  21.111  0.00  0.00    +0.000 OA
ENDBRANCH  22  33
ENDBRANCH  18  27
ENDBRANCH   1  20
TORSDOF 8
ENDMDL
MODEL 3
REMARK VINA RESULT:    -7.088      2.531      3.327
REMARK INTER + INTRA:         -11.641
REMARK INTER:                 -10.715
REMARK INTRA:                  -0.926
REMARK UNBOUND:                -1.238
REMARK  Name = 
REMARK  10 active torsions:
REMARK  status: ('A' for Active; 'I' for Inactive)
REMARK    1  A    between atoms: C_1  and  O_2
REMARK    2  A    between atoms: O_2  and  C_3
REMARK    3  A    between atoms: C_8  and  C_9
REMARK    4  A    between atoms: N_11  and  C_12
REMARK    5  A    between atoms: C_12  and  C_13
REMARK    6  A    between atoms: C_16  and  C_17
REMARK    7  A    between atoms: C_17  and  N_18
REMARK    8  A    between atoms: N_18  and  C_19
REMARK    9  A    between atoms: N_18  and  C_20
REMARK   10  A    between atoms: C_20  and  C_21
REMARK                            x       y       z     vdW  Elec       q    Type
REMARK                         _______ _______ _______ _____ _____    ______ ____
ROOT
ATOM      1  C   UNL     1      48.862   7.823  15.067  0.00  0.00    +0.000 C 
ENDROOT
BRANCH   1   2
ATOM      2  C   UNL     1      47.851   7.513  13.996  0.00  0.00    +0.000 A 
ATOM      3  C   UNL     1      46.922   8.481  13.590  0.00  0.00    +0.000 A 
ATOM      4  C   UNL     1      45.890   8.144  12.711  0.00  0.00    +0.000 A 
ATOM      5  C   UNL     1      45.768   6.837  12.220  0.00  0.00    +0.000 A 
ATOM      6  C   UNL     1      46.731   5.887  12.583  0.00  0.00    +0.000 A 
ATOM      7  C   UNL     1      47.760   6.220  13.466  0.00  0.00    +0.000 A 
BRANCH   5   8
ATOM      8  C   UNL     1      44.551   6.409  11.424  0.00  0.00    +0.000 C 
BRANCH   8   9
ATOM      9  N   UNL     1      44.236   4.968  11.494  0.00  0.00    +0.000 NA
ATOM     10  C   UNL     1      43.220   4.703  12.516  0.00  0.00    +0.000 C 
BRANCH   9  11
ATOM     11  C   UNL     1      43.730   4.506  10.174  0.00  0.00    +0.000 C 
BRANCH  11  12
ATOM     12  C   UNL     1      44.781   3.772   9.355  0.00  0.00    +0.000 A 
ATOM     13  C   UNL     1      45.561   4.475   8.439  0.00  0.00    +0.000 A 
ATOM     14  C   UNL     1      46.381   3.762   7.571  0.00  0.00    +0.000 A 
ATOM     15  C   UNL     1      46.412   2.375   7.648  0.00  0.00    +0.000 A 
ATOM     16  C   UNL     1      45.632   1.754   8.610  0.00  0.00    +0.000 A 
ATOM     17  N   UNL     1      44.818   2.417   9.460  0.00  0.00    +0.000 NA
ENDBRANCH  11  12
ENDBRANCH   9  11
ENDBRANCH   8   9
ENDBRANCH   5   8
ENDBRANCH   1   2
BRANCH   1  20
ATOM     18  C   UNL     1      49.398   6.323  16.929  0.00  0.00    +0.000 C 
ATOM     19  O   UNL     1      48.836   7.057  17.736  0.00  0.00    +0.000 OA
ATOM     20  N   UNL     1      49.437   6.601  15.584  0.00  0.00    +0.000 N 
ATOM     21  H   UNL     1      50.117   6.114  15.014  0.00  0.00    +0.000 HD
BRANCH  18  27
ATOM     22  C   UNL     1      52.944   2.957  18.063  0.00  0.00    +0.000 A 
ATOM     23  N   UNL     1      54.060   3.671  17.793  0.00  0.00    +0.000 NA
ATOM     24  C   UNL     1      53.927   4.936  17.338  0.00  0.00    +0.000 A 
ATOM     25  C   UNL     1      52.717   5.585  17.130  0.00  0.00    +0.000 A 
ATOM     26  C   UNL     1      51.546   4.864  17.423  0.00  0.00    +0.000 A 
ATOM     27  C   UNL     1      50.130   5.127  17.344  0.00  0.00    +0.000 A 
ATOM     28  C   UNL     1      49.498   3.955  17.725  0.00  0.00    +0.000 A 
ATOM     29  N   UNL     1      50.444   3.027  18.055  0.00  0.00    +0.000 N 
ATOM     30  C   UNL     1      51.699   3.550  17.875  0.00  0.00    +0.000 A 
ATOM     31  H   UNL     1      50.265   2.080  18.366  0.00  0.00    +0.000 HD
BRANCH  22  33
ATOM     32  C   UNL     1      53.000   0.704  17.453  0.00  0.00    +0.000 C 
ATOM     33  O   UNL     1      53.027   1.655  18.514  0.00  0.00    +0.000 OA
ENDBRANCH  22  33
ENDBRANCH  18  27
ENDBRANCH   1  20
TORSDOF 8
ENDMDL
MODEL 4
REMARK VINA RESULT:    -6.783      2.762      3.173
REMARK INTER + INTRA:         -11.194
REMARK INTER:                 -10.634
REMARK INTRA:                  -0.559
REMARK UNBOUND:                -1.238
REMARK  Name = 
REMARK  10 active torsions:
REMARK  status: ('A' for Active; 'I' for Inactive)
REMARK    1  A    between atoms: C_1  and  O_2
REMARK    2  A    between atoms: O_2  and  C_3
REMARK    3  A    between atoms: C_8  and  C_9
REMARK    4  A    between atoms: N_11  and  C_12
REMARK    5  A    between atoms: C_12  and  C_13
REMARK    6  A    between atoms: C_16  and  C_17
REMARK    7  A    between atoms: C_17  and  N_18
REMARK    8  A    between atoms: N_18  and  C_19
REMARK    9  A    between atoms: N_18  and  C_20
REMARK   10  A    between atoms: C_20  and  C_21
REMARK                            x       y       z     vdW  Elec       q    Type
REMARK                         _______ _______ _______ _____ _____    ______ ____
ROOT
ATOM      1  C   UNL     1      48.728   6.515  14.458  0.00  0.00    +0.000 C 
ENDROOT
BRANCH   1   2
ATOM      2  C   UNL     1      47.549   6.191  13.579  0.00  0.00    +0.000 A 
ATOM      3  C   UNL     1      46.687   5.135  13.902  0.00  0.00    +0.000 A 
ATOM      4  C   UNL     1      45.689   4.739  13.008  0.00  0.00    +0.000 A 
ATOM      5  C   UNL     1      45.534   5.392  11.777  0.00  0.00    +0.000 A 
ATOM      6  C   UNL     1      46.361   6.484  11.482  0.00  0.00    +0.000 A 
ATOM      7  C   UNL     1      47.361   6.877  12.372  0.00  0.00    +0.000 A 
BRANCH   5   8
ATOM      8  C   UNL     1      44.590   4.855  10.719  0.00  0.00    +0.000 C 
BRANCH   8   9
ATOM      9  N   UNL     1      44.645   3.393  10.519  0.00  0.00    +0.000 NA
ATOM     10  C   UNL     1      43.635   2.714  11.334  0.00  0.00    +0.000 C 
BRANCH   9  11
ATOM     11  C   UNL     1      44.404   3.078   9.085  0.00  0.00    +0.000 C 
BRANCH  11  12
ATOM     12  C   UNL     1      45.652   2.595   8.362  0.00  0.00    +0.000 A 
ATOM     13  C   UNL     1      46.373   3.476   7.558  0.00  0.00    +0.000 A 
ATOM     14  C   UNL     1      47.395   2.973   6.761  0.00  0.00    +0.000 A 
ATOM     15  C   UNL     1      47.681   1.613   6.799  0.00  0.00    +0.000 A 
ATOM     16  C   UNL     1      46.941   0.810   7.650  0.00  0.00    +0.000 A 
ATOM     17  N   UNL     1      45.935   1.266   8.428  0.00  0.00    +0.000 NA
ENDBRANCH  11  12
ENDBRANCH   9  11
ENDBRANCH   8   9
ENDBRANCH   5   8
ENDBRANCH   1   2
BRANCH   1  20
ATOM     18  C   UNL     1      48.619   8.564  15.798  0.00  0.00    +0.000 C 
ATOM     19  O   UNL     1      49.234   9.201  14.948  0.00  0.00    +0.000 OA
ATOM     20  N   UNL     1      48.294   7.239  15.633  0.00  0.00    +0.000 N 
ATOM     21  H   UNL     1      48.025   6.706  16.450  0.00  0.00    +0.000 HD
BRANCH  18  27
ATOM     22  C   UNL     1      47.336   9.314  20.592  0.00  0.00    +0.000 A 
ATOM     23  N   UNL     1      47.345   8.044  21.054  0.00  0.00    +0.000 NA
ATOM     24  C   UNL     1      47.649   7.044  20.197  0.00  0.00    +0.000 A 
ATOM     25  C   UNL     1      47.972   7.214  18.857  0.00  0.00    +0.000 A 
ATOM     26  C   UNL     1      47.986   8.531  18.364  0.00  0.00    +0.000 A 
ATOM     27  C   UNL     1      48.241   9.147  17.085  0.00  0.00    +0.000 A 
ATOM     28  C   UNL     1      48.021  10.503  17.259  0.00  0.00    +0.000 A 
ATOM     29  N   UNL     1      47.685  10.734  18.563  0.00  0.00    +0.000 N 
ATOM     30  C   UNL     1      47.652   9.552  19.257  0.00  0.00    +0.000 A 
ATOM     31  H   UNL     1      47.468  11.636  18.970  0.00  0.00    +0.000 HD
BRANCH  22  33
ATOM     32  C   UNL     1      45.609  10.513  21.608  0.00  0.00    +0.000 C 
ATOM     33  O   UNL     1      47.015  10.368  21.423  0.00  0.00    +0.000 OA
ENDBRANCH  22  33
ENDBRANCH  18  27
ENDBRANCH   1  20
TORSDOF 8
ENDMDL
MODEL 5
REMARK VINA RESULT:    -6.662      3.008      4.011
REMARK INTER + INTRA:         -11.016
REMARK INTER:                 -10.275
REMARK INTRA:                  -0.742
REMARK UNBOUND:                -1.238
REMARK  Name = 
REMARK  10 active torsions:
REMARK  status: ('A' for Active; 'I' for Inactive)
REMARK    1  A    between atoms: C_1  and  O_2
REMARK    2  A    between atoms: O_2  and  C_3
REMARK    3  A    between atoms: C_8  and  C_9
REMARK    4  A    between atoms: N_11  and  C_12
REMARK    5  A    between atoms: C_12  and  C_13
REMARK    6  A    between atoms: C_16  and  C_17
REMARK    7  A    between atoms: C_17  and  N_18
REMARK    8  A    between atoms: N_18  and  C_19
REMARK    9  A    between atoms: N_18  and  C_20
REMARK   10  A    between atoms: C_20  and  C_21
REMARK                            x       y       z     vdW  Elec       q    Type
REMARK                         _______ _______ _______ _____ _____    ______ ____
ROOT
ATOM      1  C   UNL     1      48.102   4.871  15.835  0.00  0.00    +0.000 C 
ENDROOT
BRANCH   1   2
ATOM      2  C   UNL     1      47.313   5.084  14.571  0.00  0.00    +0.000 A 
ATOM      3  C   UNL     1      46.480   4.074  14.070  0.00  0.00    +0.000 A 
ATOM      4  C   UNL     1      45.871   4.215  12.820  0.00  0.00    +0.000 A 
ATOM      5  C   UNL     1      46.081   5.368  12.051  0.00  0.00    +0.000 A 
ATOM      6  C   UNL     1      46.867   6.400  12.580  0.00  0.00    +0.000 A 
ATOM      7  C   UNL     1      47.481   6.258  13.825  0.00  0.00    +0.000 A 
BRANCH   5   8
ATOM      8  C   UNL     1      45.589   5.454  10.620  0.00  0.00    +0.000 C 
BRANCH   8   9
ATOM      9  N   UNL     1      44.611   4.417  10.233  0.00  0.00    +0.000 NA
ATOM     10  C   UNL     1      43.263   4.774  10.683  0.00  0.00    +0.000 C 
BRANCH   9  11
ATOM     11  C   UNL     1      44.606   4.267   8.753  0.00  0.00    +0.000 C 
BRANCH  11  12
ATOM     12  C   UNL     1      45.656   3.290   8.248  0.00  0.00    +0.000 A 
ATOM     13  C   UNL     1      46.583   3.700   7.292  0.00  0.00    +0.000 A 
ATOM     14  C   UNL     1      47.410   2.748   6.708  0.00  0.00    +0.000 A 
ATOM     15  C   UNL     1      47.304   1.419   7.102  0.00  0.00    +0.000 A 
ATOM     16  C   UNL     1      46.381   1.099   8.084  0.00  0.00    +0.000 A 
ATOM     17  N   UNL     1      45.556   1.998   8.662  0.00  0.00    +0.000 NA
ENDBRANCH  11  12
ENDBRANCH   9  11
ENDBRANCH   8   9
ENDBRANCH   5   8
ENDBRANCH   1   2
BRANCH   1  20
ATOM     18  C   UNL     1      48.606   6.105  17.891  0.00  0.00    +0.000 C 
ATOM     19  O   UNL     1      49.639   5.466  18.069  0.00  0.00    +0.000 OA
ATOM     20  N   UNL     1      47.796   5.904  16.799  0.00  0.00    +0.000 N 
ATOM     21  H   UNL     1      46.850   6.261  16.832  0.00  0.00    +0.000 HD
BRANCH  18  27
ATOM     22  C   UNL     1      47.090  10.287  20.215  0.00  0.00    +0.000 A 
ATOM     23  N   UNL     1      47.213  11.186  19.214  0.00  0.00    +0.000 NA
ATOM     24  C   UNL     1      47.666  10.763  18.013  0.00  0.00    +0.000 A 
ATOM     25  C   UNL     1      48.012   9.453  17.709  0.00  0.00    +0.000 A 
ATOM     26  C   UNL     1      47.872   8.500  18.733  0.00  0.00    +0.000 A 
ATOM     27  C   UNL     1      48.119   7.085  18.861  0.00  0.00    +0.000 A 
ATOM     28  C   UNL     1      47.833   6.761  20.177  0.00  0.00    +0.000 A 
ATOM     29  N   UNL     1      47.402   7.882  20.827  0.00  0.00    +0.000 N 
ATOM     30  C   UNL     1      47.421   8.957  19.974  0.00  0.00    +0.000 A 
ATOM     31  H   UNL     1      47.126   7.936  21.800  0.00  0.00    +0.000 HD
BRANCH  22  33
ATOM     32  C   UNL     1      47.496  11.646  22.070  0.00  0.00    +0.000 C 
ATOM     33  O   UNL     1      46.649  10.673  21.464  0.00  0.00    +0.000 OA
ENDBRANCH  22  33
ENDBRANCH  18  27
ENDBRANCH   1  20
TORSDOF 8
ENDMDL
MODEL 6
REMARK VINA RESULT:    -6.625      2.711      8.108
REMARK INTER + INTRA:         -10.961
REMARK INTER:                  -9.205
REMARK INTRA:                  -1.756
REMARK UNBOUND:                -1.238
REMARK  Name = 
REMARK  10 active torsions:
REMARK  status: ('A' for Active; 'I' for Inactive)
REMARK    1  A    between atoms: C_1  and  O_2
REMARK    2  A    between atoms: O_2  and  C_3
REMARK    3  A    between atoms: C_8  and  C_9
REMARK    4  A    between atoms: N_11  and  C_12
REMARK    5  A    between atoms: C_12  and  C_13
REMARK    6  A    between atoms: C_16  and  C_17
REMARK    7  A    between atoms: C_17  and  N_18
REMARK    8  A    between atoms: N_18  and  C_19
REMARK    9  A    between atoms: N_18  and  C_20
REMARK   10  A    between atoms: C_20  and  C_21
REMARK                            x       y       z     vdW  Elec       q    Type
REMARK                         _______ _______ _______ _____ _____    ______ ____
ROOT
ATOM      1  C   UNL     1      47.984   9.133  15.017  0.00  0.00    +0.000 C 
ENDROOT
BRANCH   1   2
ATOM      2  C   UNL     1      49.202   8.560  15.691  0.00  0.00    +0.000 A 
ATOM      3  C   UNL     1      50.070   7.709  14.994  0.00  0.00    +0.000 A 
ATOM      4  C   UNL     1      51.110   7.058  15.663  0.00  0.00    +0.000 A 
ATOM      5  C   UNL     1      51.303   7.248  17.038  0.00  0.00    +0.000 A 
ATOM      6  C   UNL     1      50.469   8.144  17.720  0.00  0.00    +0.000 A 
ATOM      7  C   UNL     1      49.426   8.791  17.054  0.00  0.00    +0.000 A 
BRANCH   5   8
ATOM      8  C   UNL     1      52.298   6.407  17.813  0.00  0.00    +0.000 C 
BRANCH   8   9
ATOM      9  N   UNL     1      52.136   4.948  17.656  0.00  0.00    +0.000 NA
ATOM     10  C   UNL     1      53.391   4.248  17.942  0.00  0.00    +0.000 C 
BRANCH   9  11
ATOM     11  C   UNL     1      51.084   4.461  18.588  0.00  0.00    +0.000 C 
BRANCH  11  12
ATOM     12  C   UNL     1      49.770   4.145  17.892  0.00  0.00    +0.000 A 
ATOM     13  C   UNL     1      48.639   4.912  18.164  0.00  0.00    +0.000 A 
ATOM     14  C   UNL     1      47.410   4.495  17.666  0.00  0.00    +0.000 A 
ATOM     15  C   UNL     1      47.343   3.338  16.899  0.00  0.00    +0.000 A 
ATOM     16  C   UNL     1      48.518   2.650  16.646  0.00  0.00    +0.000 A 
ATOM     17  N   UNL     1      49.725   3.023  17.125  0.00  0.00    +0.000 NA
ENDBRANCH  11  12
ENDBRANCH   9  11
ENDBRANCH   8   9
ENDBRANCH   5   8
ENDBRANCH   1   2
BRANCH   1  20
ATOM     18  C   UNL     1      46.770   8.362  13.033  0.00  0.00    +0.000 C 
ATOM     19  O   UNL     1      46.920   9.443  12.471  0.00  0.00    +0.000 OA
ATOM     20  N   UNL     1      47.287   8.103  14.279  0.00  0.00    +0.000 N 
ATOM     21  H   UNL     1      46.923   7.310  14.793  0.00  0.00    +0.000 HD
BRANCH  18  27
ATOM     22  C   UNL     1      44.791   3.923  11.783  0.00  0.00    +0.000 A 
ATOM     23  N   UNL     1      45.532   3.095  12.553  0.00  0.00    +0.000 NA
ATOM     24  C   UNL     1      46.491   3.627  13.342  0.00  0.00    +0.000 A 
ATOM     25  C   UNL     1      46.780   4.981  13.441  0.00  0.00    +0.000 A 
ATOM     26  C   UNL     1      46.007   5.859  12.661  0.00  0.00    +0.000 A 
ATOM     27  C   UNL     1      45.973   7.286  12.447  0.00  0.00    +0.000 A 
ATOM     28  C   UNL     1      45.001   7.508  11.486  0.00  0.00    +0.000 A 
ATOM     29  N   UNL     1      44.435   6.313  11.141  0.00  0.00    +0.000 N 
ATOM     30  C   UNL     1      45.032   5.292  11.837  0.00  0.00    +0.000 A 
ATOM     31  H   UNL     1      43.699   6.179  10.459  0.00  0.00    +0.000 HD
BRANCH  22  33
ATOM     32  C   UNL     1      44.348   2.746   9.815  0.00  0.00    +0.000 C 
ATOM     33  O   UNL     1      43.812   3.426  10.947  0.00  0.00    +0.000 OA
ENDBRANCH  22  33
ENDBRANCH  18  27
ENDBRANCH   1  20
TORSDOF 8
ENDMDL
MODEL 7
REMARK VINA RESULT:    -6.608      4.682      8.608
REMARK INTER + INTRA:         -10.937
REMARK INTER:                  -9.933
REMARK INTRA:                  -1.004
REMARK UNBOUND:                -1.238
REMARK  Name = 
REMARK  10 active torsions:
REMARK  status: ('A' for Active; 'I' for Inactive)
REMARK    1  A    between atoms: C_1  and  O_2
REMARK    2  A    between atoms: O_2  and  C_3
REMARK    3  A    between atoms: C_8  and  C_9
REMARK    4  A    between atoms: N_11  and  C_12
REMARK    5  A    between atoms: C_12  and  C_13
REMARK    6  A    between atoms: C_16  and  C_17
REMARK    7  A    between atoms: C_17  and  N_18
REMARK    8  A    between atoms: N_18  and  C_19
REMARK    9  A    between atoms: N_18  and  C_20
REMARK   10  A    between atoms: C_20  and  C_21
REMARK                            x       y       z     vdW  Elec       q    Type
REMARK                         _______ _______ _______ _____ _____    ______ ____
ROOT
ATOM      1  C   UNL     1      44.201   7.849  11.632  0.00  0.00    +0.000 C 
ENDROOT
BRANCH   1   2
ATOM      2  C   UNL     1      45.464   8.656  11.766  0.00  0.00    +0.000 A 
ATOM      3  C   UNL     1      46.675   8.036  12.100  0.00  0.00    +0.000 A 
ATOM      4  C   UNL     1      47.811   8.803  12.374  0.00  0.00    +0.000 A 
ATOM      5  C   UNL     1      47.756  10.203  12.317  0.00  0.00    +0.000 A 
ATOM      6  C   UNL     1      46.559  10.818  11.927  0.00  0.00    +0.000 A 
ATOM      7  C   UNL     1      45.423  10.053  11.658  0.00  0.00    +0.000 A 
BRANCH   5   8
ATOM      8  C   UNL     1      48.917  11.052  12.797  0.00  0.00    +0.000 C 
BRANCH   8   9
ATOM      9  N   UNL     1      49.985  11.267  11.801  0.00  0.00    +0.000 NA
ATOM     10  C   UNL     1      50.385  12.676  11.756  0.00  0.00    +0.000 C 
BRANCH   9  11
ATOM     11  C   UNL     1      51.168  10.437  12.154  0.00  0.00    +0.000 C 
BRANCH  11  12
ATOM     12  C   UNL     1      51.584   9.487  11.042  0.00  0.00    +0.000 A 
ATOM     13  C   UNL     1      51.340   8.121  11.169  0.00  0.00    +0.000 A 
ATOM     14  C   UNL     1      51.891   7.251  10.235  0.00  0.00    +0.000 A 
ATOM     15  C   UNL     1      52.656   7.764   9.195  0.00  0.00    +0.000 A 
ATOM     16  C   UNL     1      52.823   9.137   9.120  0.00  0.00    +0.000 A 
ATOM     17  N   UNL     1      52.310  10.007  10.017  0.00  0.00    +0.000 NA
ENDBRANCH  11  12
ENDBRANCH   9  11
ENDBRANCH   8   9
ENDBRANCH   5   8
ENDBRANCH   1   2
BRANCH   1  20
ATOM     18  C   UNL     1      43.568   5.545  11.089  0.00  0.00    +0.000 C 
ATOM     19  O   UNL     1      42.463   5.684  11.604  0.00  0.00    +0.000 OA
ATOM     20  N   UNL     1      44.484   6.568  11.026  0.00  0.00    +0.000 N 
ATOM     21  H   UNL     1      45.450   6.334  10.832  0.00  0.00    +0.000 HD
BRANCH  18  27
ATOM     22  C   UNL     1      45.769   1.903   8.429  0.00  0.00    +0.000 A 
ATOM     23  N   UNL     1      46.466   2.636   7.532  0.00  0.00    +0.000 NA
ATOM     24  C   UNL     1      46.378   3.983   7.587  0.00  0.00    +0.000 A 
ATOM     25  C   UNL     1      45.627   4.696   8.513  0.00  0.00    +0.000 A 
ATOM     26  C   UNL     1      44.911   3.949   9.466  0.00  0.00    +0.000 A 
ATOM     27  C   UNL     1      44.024   4.261  10.560  0.00  0.00    +0.000 A 
ATOM     28  C   UNL     1      43.597   3.045  11.067  0.00  0.00    +0.000 A 
ATOM     29  N   UNL     1      44.196   2.036  10.369  0.00  0.00    +0.000 N 
ATOM     30  C   UNL     1      44.997   2.557   9.384  0.00  0.00    +0.000 A 
ATOM     31  H   UNL     1      44.064   1.044  10.525  0.00  0.00    +0.000 HD
BRANCH  22  33
ATOM     32  C   UNL     1      46.887   0.022   7.613  0.00  0.00    +0.000 C 
ATOM     33  O   UNL     1      45.812   0.524   8.404  0.00  0.00    +0.000 OA
ENDBRANCH  22  33
ENDBRANCH  18  27
ENDBRANCH   1  20
TORSDOF 8
ENDMDL
MODEL 8
REMARK VINA RESULT:    -6.522      4.433      6.629
REMARK INTER + INTRA:         -10.810
REMARK INTER:                 -10.214
REMARK INTRA:                  -0.597
REMARK UNBOUND:                -1.238
REMARK  Name = 
REMARK  10 active torsions:
REMARK  status: ('A' for Active; 'I' for Inactive)
REMARK    1  A    between atoms: C_1  and  O_2
REMARK    2  A    between atoms: O_2  and  C_3
REMARK    3  A    between atoms: C_8  and  C_9
REMARK    4  A    between atoms: N_11  and  C_12
REMARK    5  A    between atoms: C_12  and  C_13
REMARK    6  A    between atoms: C_16  and  C_17
REMARK    7  A    between atoms: C_17  and  N_18
REMARK    8  A    between atoms: N_18  and  C_19
REMARK    9  A    between atoms: N_18  and  C_20
REMARK   10  A    between atoms: C_20  and  C_21
REMARK                            x       y       z     vdW  Elec       q    Type
REMARK                         _______ _______ _______ _____ _____    ______ ____
ROOT
ATOM      1  C   UNL     1      49.258   7.338  13.510  0.00  0.00    +0.000 C 
ENDROOT
BRANCH   1   2
ATOM      2  C   UNL     1      47.863   6.870  13.192  0.00  0.00    +0.000 A 
ATOM      3  C   UNL     1      47.301   5.784  13.876  0.00  0.00    +0.000 A 
ATOM      4  C   UNL     1      46.071   5.256  13.475  0.00  0.00    +0.000 A 
ATOM      5  C   UNL     1      45.382   5.804  12.385  0.00  0.00    +0.000 A 
ATOM      6  C   UNL     1      45.919   6.925  11.738  0.00  0.00    +0.000 A 
ATOM      7  C   UNL     1      47.150   7.450  12.135  0.00  0.00    +0.000 A 
BRANCH   5   8
ATOM      8  C   UNL     1      44.149   5.127  11.817  0.00  0.00    +0.000 C 
BRANCH   8   9
ATOM      9  N   UNL     1      44.419   3.933  10.992  0.00  0.00    +0.000 NA
ATOM     10  C   UNL     1      43.522   2.832  11.354  0.00  0.00    +0.000 C 
BRANCH   9  11
ATOM     11  C   UNL     1      44.222   4.267   9.555  0.00  0.00    +0.000 C 
BRANCH  11  12
ATOM     12  C   UNL     1      45.149   3.493   8.630  0.00  0.00    +0.000 A 
ATOM     13  C   UNL     1      45.349   2.129   8.832  0.00  0.00    +0.000 A 
ATOM     14  C   UNL     1      46.337   1.480   8.100  0.00  0.00    +0.000 A 
ATOM     15  C   UNL     1      47.085   2.202   7.178  0.00  0.00    +0.000 A 
ATOM     16  C   UNL     1      46.801   3.547   7.012  0.00  0.00    +0.000 A 
ATOM     17  N   UNL     1      45.856   4.208   7.715  0.00  0.00    +0.000 NA
ENDBRANCH  11  12
ENDBRANCH   9  11
ENDBRANCH   8   9
ENDBRANCH   5   8
ENDBRANCH   1   2
BRANCH   1  20
ATOM     18  C   UNL     1      51.247   8.160  12.339  0.00  0.00    +0.000 C 
ATOM     19  O   UNL     1      51.834   8.368  13.397  0.00  0.00    +0.000 OA
ATOM     20  N   UNL     1      49.983   7.623  12.292  0.00  0.00    +0.000 N 
ATOM     21  H   UNL     1      49.457   7.712  11.432  0.00  0.00    +0.000 HD
BRANCH  18  27
ATOM     22  C   UNL     1      53.540   8.158   7.875  0.00  0.00    +0.000 A 
ATOM     23  N   UNL     1      53.894   6.857   7.777  0.00  0.00    +0.000 NA
ATOM     24  C   UNL     1      53.581   6.022   8.792  0.00  0.00    +0.000 A 
ATOM     25  C   UNL     1      52.900   6.389   9.945  0.00  0.00    +0.000 A 
ATOM     26  C   UNL     1      52.507   7.735  10.055  0.00  0.00    +0.000 A 
ATOM     27  C   UNL     1      51.821   8.528  11.045  0.00  0.00    +0.000 A 
ATOM     28  C   UNL     1      51.813   9.826  10.562  0.00  0.00    +0.000 A 
ATOM     29  N   UNL     1      52.418   9.848   9.338  0.00  0.00    +0.000 N 
ATOM     30  C   UNL     1      52.855   8.591   9.006  0.00  0.00    +0.000 A 
ATOM     31  H   UNL     1      52.553  10.666   8.756  0.00  0.00    +0.000 HD
BRANCH  22  33
ATOM     32  C   UNL     1      53.856   8.455   5.580  0.00  0.00    +0.000 C 
ATOM     33  O   UNL     1      53.853   9.055   6.873  0.00  0.00    +0.000 OA
ENDBRANCH  22  33
ENDBRANCH  18  27
ENDBRANCH   1  20
TORSDOF 8
ENDMDL
MODEL 9
REMARK VINA RESULT:    -6.515      2.659      8.048
REMARK INTER + INTRA:         -10.800
REMARK INTER:                  -9.130
REMARK INTRA:                  -1.670
REMARK UNBOUND:                -1.238
REMARK  Name = 
REMARK  10 active torsions:
REMARK  status: ('A' for Active; 'I' for Inactive)
REMARK    1  A    between atoms: C_1  and  O_2
REMARK    2  A    between atoms: O_2  and  C_3
REMARK    3  A    between atoms: C_8  and  C_9
REMARK    4  A    between atoms: N_11  and  C_12
REMARK    5  A    between atoms: C_12  and  C_13
REMARK    6  A    between atoms: C_16  and  C_17
REMARK    7  A    between atoms: C_17  and  N_18
REMARK    8  A    between atoms: N_18  and  C_19
REMARK    9  A    between atoms: N_18  and  C_20
REMARK   10  A    between atoms: C_20  and  C_21
REMARK                            x       y       z     vdW  Elec       q    Type
REMARK                         _______ _______ _______ _____ _____    ______ ____
ROOT
ATOM      1  C   UNL     1      48.793   9.104  13.435  0.00  0.00    +0.000 C 
ENDROOT
BRANCH   1   2
ATOM      2  C   UNL     1      48.875   8.905  14.924  0.00  0.00    +0.000 A 
ATOM      3  C   UNL     1      49.243   7.663  15.459  0.00  0.00    +0.000 A 
ATOM      4  C   UNL     1      49.169   7.437  16.836  0.00  0.00    +0.000 A 
ATOM      5  C   UNL     1      48.729   8.447  17.702  0.00  0.00    +0.000 A 
ATOM      6  C   UNL     1      48.416   9.705  17.170  0.00  0.00    +0.000 A 
ATOM      7  C   UNL     1      48.485   9.931  15.795  0.00  0.00    +0.000 A 
BRANCH   5   8
ATOM      8  C   UNL     1      48.459   8.161  19.166  0.00  0.00    +0.000 C 
BRANCH   8   9
ATOM      9  N   UNL     1      48.947   6.853  19.646  0.00  0.00    +0.000 NA
ATOM     10  C   UNL     1      49.525   6.970  20.987  0.00  0.00    +0.000 C 
BRANCH   9  11
ATOM     11  C   UNL     1      47.818   5.885  19.686  0.00  0.00    +0.000 C 
BRANCH  11  12
ATOM     12  C   UNL     1      47.994   4.723  18.721  0.00  0.00    +0.000 A 
ATOM     13  C   UNL     1      49.239   4.111  18.593  0.00  0.00    +0.000 A 
ATOM     14  C   UNL     1      49.427   3.180  17.577  0.00  0.00    +0.000 A 
ATOM     15  C   UNL     1      48.369   2.875  16.729  0.00  0.00    +0.000 A 
ATOM     16  C   UNL     1      47.153   3.502  16.945  0.00  0.00    +0.000 A 
ATOM     17  N   UNL     1      46.942   4.418  17.915  0.00  0.00    +0.000 NA
ENDBRANCH  11  12
ENDBRANCH   9  11
ENDBRANCH   8   9
ENDBRANCH   5   8
ENDBRANCH   1   2
BRANCH   1  20
ATOM     18  C   UNL     1      46.601   8.272  12.724  0.00  0.00    +0.000 C 
ATOM     19  O   UNL     1      46.049   9.313  13.068  0.00  0.00    +0.000 OA
ATOM     20  N   UNL     1      47.958   8.087  12.837  0.00  0.00    +0.000 N 
ATOM     21  H   UNL     1      48.318   7.142  12.784  0.00  0.00    +0.000 HD
BRANCH  18  27
ATOM     22  C   UNL     1      44.818   3.667  11.824  0.00  0.00    +0.000 A 
ATOM     23  N   UNL     1      45.600   2.933  12.646  0.00  0.00    +0.000 NA
ATOM     24  C   UNL     1      46.539   3.564  13.384  0.00  0.00    +0.000 A 
ATOM     25  C   UNL     1      46.767   4.934  13.380  0.00  0.00    +0.000 A 
ATOM     26  C   UNL     1      45.950   5.716  12.545  0.00  0.00    +0.000 A 
ATOM     27  C   UNL     1      45.849   7.120  12.227  0.00  0.00    +0.000 A 
ATOM     28  C   UNL     1      44.862   7.227  11.262  0.00  0.00    +0.000 A 
ATOM     29  N   UNL     1      44.349   5.986  11.012  0.00  0.00    +0.000 N 
ATOM     30  C   UNL     1      44.996   5.047  11.774  0.00  0.00    +0.000 A 
ATOM     31  H   UNL     1      43.615   5.769  10.348  0.00  0.00    +0.000 HD
BRANCH  22  33
ATOM     32  C   UNL     1      44.383   2.571   9.809  0.00  0.00    +0.000 C 
ATOM     33  O   UNL     1      43.856   3.067  11.037  0.00  0.00    +0.000 OA
ENDBRANCH  22  33
ENDBRANCH  18  27
ENDBRANCH   1  20
TORSDOF 8
ENDMDL
