MODEL 1
REMARK VINA RESULT:    -8.160      0.000      0.000
REMARK INTER + INTRA:         -12.291
REMARK INTER:                 -11.261
REMARK INTRA:                  -1.030
REMARK UNBOUND:                -1.030
REMARK  Name = 
REMARK  9 active torsions:
REMARK  status: ('A' for Active; 'I' for Inactive)
REMARK    1  A    between atoms: C_1  and  C_2
REMARK    2  A    between atoms: N_4  and  C_5
REMARK    3  A    between atoms: C_9  and  C_10
REMARK    4  A    between atoms: C_10  and  C_11
REMARK    5  A    between atoms: C_11  and  N_12
REMARK    6  A    between atoms: N_12  and  C_13
REMARK    7  A    between atoms: CA_16  and  C_17
REMARK    8  A    between atoms: C_17  and  OXT_19
REMARK    9  A    between atoms: C_24  and  C_25
REMARK                            x       y       z     vdW  Elec       q    Type
REMARK                         _______ _______ _______ _____ _____    ______ ____
ROOT
ATOM      1  C   UNL     1      46.757   6.713  13.208  0.00  0.00    +0.000 A 
ATOM      2  C   UNL     1      47.349   5.541  13.701  0.00  0.00    +0.000 A 
ATOM      3  C   UNL     1      46.676   4.313  13.697  0.00  0.00    +0.000 A 
ATOM      4  C   UNL     1      45.374   4.228  13.215  0.00  0.00    +0.000 A 
ATOM      5  C   UNL     1      44.732   5.375  12.747  0.00  0.00    +0.000 A 
ATOM      6  C   UNL     1      45.442   6.589  12.728  0.00  0.00    +0.000 A 
ENDROOT
BRANCH   1  10
ATOM      7  C   UNL     1      50.274   7.721  14.658  0.00  0.00    +0.000 C 
ATOM      8  C   UNL     1      49.406   8.936  14.314  0.00  0.00    +0.000 C 
ATOM      9  C   UNL     1      47.889   8.594  14.414  0.00  0.00    +0.000 C 
ATOM     10  N   UNL     1      47.424   7.921  13.192  0.00  0.00    +0.000 N 
ATOM     11  C   UNL     1      47.732   8.643  11.949  0.00  0.00    +0.000 C 
ATOM     12  C   UNL     1      49.250   8.931  11.839  0.00  0.00    +0.000 C 
ATOM     13  C   UNL     1      50.042   7.692  11.415  0.00  0.00    +0.000 C 
ATOM     14  N   UNL     1      49.822   9.583  13.044  0.00  0.00    +0.000 NA
ATOM     15  H   UNL     1      49.439  10.530  13.066  0.00  0.00    +0.000 HD
ENDBRANCH   1  10
BRANCH   5  16
ATOM     16  C   UNL     1      43.307   5.332  12.242  0.00  0.00    +0.000 C 
BRANCH  16  17
ATOM     17  C   UNL     1      43.146   4.328  11.099  0.00  0.00    +0.000 C 
BRANCH  17  18
ATOM     18  N   UNL     1      43.795   4.801   9.866  0.00  0.00    +0.000 N 
ATOM     19  H   UNL     1      44.230   5.717   9.981  0.00  0.00    +0.000 HD
BRANCH  18  20
ATOM     20  C   UNL     1      44.667   3.892   9.239  0.00  0.00    +0.000 A 
ATOM     21  C   UNL     1      45.506   4.322   8.204  0.00  0.00    +0.000 A 
ATOM     22  C   UNL     1      46.347   3.420   7.549  0.00  0.00    +0.000 A 
ATOM     23  CA  UNL     1      46.297   2.086   7.929  0.00  0.00    +0.000 A 
ATOM     24  N   UNL     1      45.464   1.597   8.884  0.00  0.00    +0.000 NA
ATOM     25  C   UNL     1      44.668   2.512   9.490  0.00  0.00    +0.000 A 
BRANCH  23  26
ATOM     26  C   UNL     1      47.182   1.070   7.287  0.00  0.00    +0.000 C 
ATOM     27  O   UNL     1      48.037   1.315   6.459  0.00  0.00    +0.000 OA
BRANCH  26  28
ATOM     28  OXT UNL     1      46.906  -0.167   7.767  0.00  0.00    +0.000 OA
ATOM     29  HXT UNL     1      47.190  -0.203   8.711  0.00  0.00    +0.000 HD
ENDBRANCH  26  28
ENDBRANCH  23  26
ENDBRANCH  18  20
ENDBRANCH  17  18
ENDBRANCH  16  17
ENDBRANCH   5  16
TORSDOF 7
ENDMDL
MODEL 2
REMARK VINA RESULT:    -8.005      2.732      3.887
REMARK INTER + INTRA:         -12.077
REMARK INTER:                 -11.350
REMARK INTRA:                  -0.727
REMARK UNBOUND:                -1.030
REMARK  Name = 
REMARK  9 active torsions:
REMARK  status: ('A' for Active; 'I' for Inactive)
REMARK    1  A    between atoms: C_1  and  C_2
REMARK    2  A    between atoms: N_4  and  C_5
REMARK    3  A    between atoms: C_9  and  C_10
REMARK    4  A    between atoms: C_10  and  C_11
REMARK    5  A    between atoms: C_11  and  N_12
REMARK    6  A    between atoms: N_12  and  C_13
REMARK    7  A    between atoms: CA_16  and  C_17
REMARK    8  A    between atoms: C_17  and  OXT_19
REMARK    9  A    between atoms: C_24  and  C_25
REMARK                            x       y       z     vdW  Elec       q    Type
REMARK                         _______ _______ _______ _____ _____    ______ ____
ROOT
ATOM      1  C   UNL     1      47.546   5.248  15.232  0.00  0.00    +0.000 A 
ATOM      2  C   UNL     1      48.322   6.271  14.668  0.00  0.00    +0.000 A 
ATOM      3  C   UNL     1      48.119   6.717  13.356  0.00  0.00    +0.000 A 
ATOM      4  C   UNL     1      47.141   6.132  12.559  0.00  0.00    +0.000 A 
ATOM      5  C   UNL     1      46.368   5.086  13.066  0.00  0.00    +0.000 A 
ATOM      6  C   UNL     1      46.566   4.682  14.399  0.00  0.00    +0.000 A 
ENDROOT
BRANCH   1  10
ATOM      7  C   UNL     1      49.481   2.132  16.659  0.00  0.00    +0.000 C 
ATOM      8  C   UNL     1      48.538   2.765  17.687  0.00  0.00    +0.000 C 
ATOM      9  C   UNL     1      47.341   3.480  16.993  0.00  0.00    +0.000 C 
ATOM     10  N   UNL     1      47.729   4.820  16.531  0.00  0.00    +0.000 N 
ATOM     11  C   UNL     1      48.331   5.667  17.570  0.00  0.00    +0.000 C 
ATOM     12  C   UNL     1      49.552   4.965  18.216  0.00  0.00    +0.000 C 
ATOM     13  C   UNL     1      50.793   5.031  17.324  0.00  0.00    +0.000 C 
ATOM     14  N   UNL     1      49.266   3.587  18.687  0.00  0.00    +0.000 NA
ATOM     15  H   UNL     1      48.642   3.682  19.490  0.00  0.00    +0.000 HD
ENDBRANCH   1  10
BRANCH   5  16
ATOM     16  C   UNL     1      45.314   4.403  12.224  0.00  0.00    +0.000 C 
BRANCH  16  17
ATOM     17  C   UNL     1      44.695   5.365  11.208  0.00  0.00    +0.000 C 
BRANCH  17  18
ATOM     18  N   UNL     1      44.063   4.643  10.093  0.00  0.00    +0.000 N 
ATOM     19  H   UNL     1      43.499   5.255   9.503  0.00  0.00    +0.000 HD
BRANCH  18  20
ATOM     20  C   UNL     1      44.912   3.826   9.325  0.00  0.00    +0.000 A 
ATOM     21  C   UNL     1      45.675   4.382   8.291  0.00  0.00    +0.000 A 
ATOM     22  C   UNL     1      46.492   3.573   7.497  0.00  0.00    +0.000 A 
ATOM     23  CA  UNL     1      46.494   2.208   7.740  0.00  0.00    +0.000 A 
ATOM     24  N   UNL     1      45.733   1.602   8.689  0.00  0.00    +0.000 NA
ATOM     25  C   UNL     1      44.958   2.428   9.432  0.00  0.00    +0.000 A 
BRANCH  23  26
ATOM     26  C   UNL     1      47.358   1.286   6.944  0.00  0.00    +0.000 C 
ATOM     27  O   UNL     1      48.303   1.632   6.263  0.00  0.00    +0.000 OA
BRANCH  26  28
ATOM     28  OXT UNL     1      46.947   0.003   7.098  0.00  0.00    +0.000 OA
ATOM     29  HXT UNL     1      47.700  -0.521   7.462  0.00  0.00    +0.000 HD
ENDBRANCH  26  28
ENDBRANCH  23  26
ENDBRANCH  18  20
ENDBRANCH  17  18
ENDBRANCH  16  17
ENDBRANCH   5  16
TORSDOF 7
ENDMDL
MODEL 3
REMARK VINA RESULT:    -7.949      0.680      1.235
REMARK INTER + INTRA:         -11.999
REMARK INTER:                 -10.976
REMARK INTRA:                  -1.023
REMARK UNBOUND:                -1.030
REMARK  Name = 
REMARK  9 active torsions:
REMARK  status: ('A' for Active; 'I' for Inactive)
REMARK    1  A    between atoms: C_1  and  C_2
REMARK    2  A    between atoms: N_4  and  C_5
REMARK    3  A    between atoms: C_9  and  C_10
REMARK    4  A    between atoms: C_10  and  C_11
REMARK    5  A    between atoms: C_11  and  N_12
REMARK    6  A    between atoms: N_12  and  C_13
REMARK    7  A    between atoms: CA_16  and  C_17
REMARK    8  A    between atoms: C_17  and  OXT_19
REMARK    9  A    between atoms: C_24  and  C_25
REMARK                            x       y       z     vdW  Elec       q    Type
REMARK                         _______ _______ _______ _____ _____    ______ ____
ROOT
ATOM      1  C   UNL     1      47.162   6.325  13.555  0.00  0.00    +0.000 A 
ATOM      2  C   UNL     1      47.485   4.999  13.880  0.00  0.00    +0.000 A 
ATOM      3  C   UNL     1      46.646   3.929  13.545  0.00  0.00    +0.000 A 
ATOM      4  C   UNL     1      45.441   4.160  12.890  0.00  0.00    +0.000 A 
ATOM      5  C   UNL     1      45.062   5.466  12.577  0.00  0.00    +0.000 A 
ATOM      6  C   UNL     1      45.938   6.520  12.891  0.00  0.00    +0.000 A 
ENDROOT
BRANCH   1  10
ATOM      7  C   UNL     1      50.180   7.879  11.565  0.00  0.00    +0.000 C 
ATOM      8  C   UNL     1      50.149   8.319  13.033  0.00  0.00    +0.000 C 
ATOM      9  C   UNL     1      49.458   7.250  13.930  0.00  0.00    +0.000 C 
ATOM     10  N   UNL     1      47.995   7.380  13.865  0.00  0.00    +0.000 N 
ATOM     11  C   UNL     1      47.495   8.730  14.156  0.00  0.00    +0.000 C 
ATOM     12  C   UNL     1      48.152   9.777  13.222  0.00  0.00    +0.000 C 
ATOM     13  C   UNL     1      47.541   9.761  11.819  0.00  0.00    +0.000 C 
ATOM     14  N   UNL     1      49.634   9.703  13.194  0.00  0.00    +0.000 NA
ATOM     15  H   UNL     1      49.955  10.023  14.110  0.00  0.00    +0.000 HD
ENDBRANCH   1  10
BRANCH   5  16
ATOM     16  C   UNL     1      43.747   5.763  11.891  0.00  0.00    +0.000 C 
BRANCH  16  17
ATOM     17  C   UNL     1      43.293   4.594  11.016  0.00  0.00    +0.000 C 
BRANCH  17  18
ATOM     18  N   UNL     1      43.643   4.807   9.602  0.00  0.00    +0.000 N 
ATOM     19  H   UNL     1      43.907   5.773   9.407  0.00  0.00    +0.000 HD
BRANCH  18  20
ATOM     20  C   UNL     1      44.567   3.900   9.052  0.00  0.00    +0.000 A 
ATOM     21  C   UNL     1      45.515   4.341   8.121  0.00  0.00    +0.000 A 
ATOM     22  C   UNL     1      46.411   3.442   7.539  0.00  0.00    +0.000 A 
ATOM     23  CA  UNL     1      46.307   2.102   7.882  0.00  0.00    +0.000 A 
ATOM     24  N   UNL     1      45.373   1.603   8.733  0.00  0.00    +0.000 NA
ATOM     25  C   UNL     1      44.527   2.515   9.271  0.00  0.00    +0.000 A 
BRANCH  23  26
ATOM     26  C   UNL     1      47.245   1.087   7.315  0.00  0.00    +0.000 C 
ATOM     27  O   UNL     1      48.156   1.333   6.548  0.00  0.00    +0.000 OA
BRANCH  26  28
ATOM     28  OXT UNL     1      46.945  -0.148   7.784  0.00  0.00    +0.000 OA
ATOM     29  HXT UNL     1      46.985  -0.784   7.031  0.00  0.00    +0.000 HD
ENDBRANCH  26  28
ENDBRANCH  23  26
ENDBRANCH  18  20
ENDBRANCH  17  18
ENDBRANCH  16  17
ENDBRANCH   5  16
TORSDOF 7
ENDMDL
MODEL 4
REMARK VINA RESULT:    -7.239      1.656      2.438
REMARK INTER + INTRA:         -11.019
REMARK INTER:                 -10.164
REMARK INTRA:                  -0.855
REMARK UNBOUND:                -1.030
REMARK  Name = 
REMARK  9 active torsions:
REMARK  status: ('A' for Active; 'I' for Inactive)
REMARK    1  A    between atoms: C_1  and  C_2
REMARK    2  A    between atoms: N_4  and  C_5
REMARK    3  A    between atoms: C_9  and  C_10
REMARK    4  A    between atoms: C_10  and  C_11
REMARK    5  A    between atoms: C_11  and  N_12
REMARK    6  A    between atoms: N_12  and  C_13
REMARK    7  A    between atoms: CA_16  and  C_17
REMARK    8  A    between atoms: C_17  and  OXT_19
REMARK    9  A    between atoms: C_24  and  C_25
REMARK                            x       y       z     vdW  Elec       q    Type
REMARK                         _______ _______ _______ _____ _____    ______ ____
ROOT
ATOM      1  C   UNL     1      47.962   6.578  14.305  0.00  0.00    +0.000 A 
ATOM      2  C   UNL     1      47.728   5.372  14.981  0.00  0.00    +0.000 A 
ATOM      3  C   UNL     1      46.896   4.377  14.453  0.00  0.00    +0.000 A 
ATOM      4  C   UNL     1      46.254   4.572  13.234  0.00  0.00    +0.000 A 
ATOM      5  C   UNL     1      46.430   5.771  12.542  0.00  0.00    +0.000 A 
ATOM      6  C   UNL     1      47.299   6.739  13.076  0.00  0.00    +0.000 A 
ENDROOT
BRANCH   1  10
ATOM      7  C   UNL     1      48.594   7.742  18.011  0.00  0.00    +0.000 C 
ATOM      8  C   UNL     1      49.121   8.743  16.978  0.00  0.00    +0.000 C 
ATOM      9  C   UNL     1      48.315   8.662  15.648  0.00  0.00    +0.000 C 
ATOM     10  N   UNL     1      48.797   7.553  14.812  0.00  0.00    +0.000 N 
ATOM     11  C   UNL     1      50.245   7.569  14.562  0.00  0.00    +0.000 C 
ATOM     12  C   UNL     1      51.035   7.597  15.895  0.00  0.00    +0.000 C 
ATOM     13  C   UNL     1      51.080   6.223  16.567  0.00  0.00    +0.000 C 
ATOM     14  N   UNL     1      50.597   8.668  16.824  0.00  0.00    +0.000 NA
ATOM     15  H   UNL     1      50.886   9.552  16.401  0.00  0.00    +0.000 HD
ENDBRANCH   1  10
BRANCH   5  16
ATOM     16  C   UNL     1      45.728   6.035  11.229  0.00  0.00    +0.000 C 
BRANCH  16  17
ATOM     17  C   UNL     1      44.385   5.307  11.154  0.00  0.00    +0.000 C 
BRANCH  17  18
ATOM     18  N   UNL     1      44.006   5.010   9.763  0.00  0.00    +0.000 N 
ATOM     19  H   UNL     1      43.937   5.852   9.190  0.00  0.00    +0.000 HD
BRANCH  18  20
ATOM     20  C   UNL     1      44.755   4.009   9.119  0.00  0.00    +0.000 A 
ATOM     21  C   UNL     1      44.677   2.681   9.559  0.00  0.00    +0.000 A 
ATOM     22  C   UNL     1      45.446   1.685   8.952  0.00  0.00    +0.000 A 
ATOM     23  CA  UNL     1      46.311   2.058   7.933  0.00  0.00    +0.000 A 
ATOM     24  N   UNL     1      46.475   3.335   7.502  0.00  0.00    +0.000 NA
ATOM     25  C   UNL     1      45.707   4.265   8.122  0.00  0.00    +0.000 A 
BRANCH  23  26
ATOM     26  C   UNL     1      47.148   1.044   7.225  0.00  0.00    +0.000 C 
ATOM     27  O   UNL     1      47.999   1.299   6.396  0.00  0.00    +0.000 OA
BRANCH  26  28
ATOM     28  OXT UNL     1      46.833  -0.205   7.648  0.00  0.00    +0.000 OA
ATOM     29  HXT UNL     1      47.441  -0.844   7.205  0.00  0.00    +0.000 HD
ENDBRANCH  26  28
ENDBRANCH  23  26
ENDBRANCH  18  20
ENDBRANCH  17  18
ENDBRANCH  16  17
ENDBRANCH   5  16
TORSDOF 7
ENDMDL
MODEL 5
REMARK VINA RESULT:    -7.117      2.994      4.226
REMARK INTER + INTRA:         -10.852
REMARK INTER:                 -10.075
REMARK INTRA:                  -0.777
REMARK UNBOUND:                -1.030
REMARK  Name = 
REMARK  9 active torsions:
REMARK  status: ('A' for Active; 'I' for Inactive)
REMARK    1  A    between atoms: C_1  and  C_2
REMARK    2  A    between atoms: N_4  and  C_5
REMARK    3  A    between atoms: C_9  and  C_10
REMARK    4  A    between atoms: C_10  and  C_11
REMARK    5  A    between atoms: C_11  and  N_12
REMARK    6  A    between atoms: N_12  and  C_13
REMARK    7  A    between atoms: CA_16  and  C_17
REMARK    8  A    between atoms: C_17  and  OXT_19
REMARK    9  A    between atoms: C_24  and  C_25
REMARK                            x       y       z     vdW  Elec       q    Type
REMARK                         _______ _______ _______ _____ _____    ______ ____
ROOT
ATOM      1  C   UNL     1      48.106   5.594  15.345  0.00  0.00    +0.000 A 
ATOM      2  C   UNL     1      48.475   6.790  14.713  0.00  0.00    +0.000 A 
ATOM      3  C   UNL     1      47.910   7.190  13.495  0.00  0.00    +0.000 A 
ATOM      4  C   UNL     1      46.970   6.385  12.860  0.00  0.00    +0.000 A 
ATOM      5  C   UNL     1      46.597   5.169  13.434  0.00  0.00    +0.000 A 
ATOM      6  C   UNL     1      47.152   4.808  14.676  0.00  0.00    +0.000 A 
ENDROOT
BRANCH   1  10
ATOM      7  C   UNL     1      46.615   5.750  18.983  0.00  0.00    +0.000 C 
ATOM      8  C   UNL     1      48.130   5.521  18.974  0.00  0.00    +0.000 C 
ATOM      9  C   UNL     1      48.785   6.123  17.696  0.00  0.00    +0.000 C 
ATOM     10  N   UNL     1      48.644   5.207  16.555  0.00  0.00    +0.000 N 
ATOM     11  C   UNL     1      49.124   3.842  16.812  0.00  0.00    +0.000 C 
ATOM     12  C   UNL     1      48.426   3.236  18.056  0.00  0.00    +0.000 C 
ATOM     13  C   UNL     1      47.002   2.768  17.745  0.00  0.00    +0.000 C 
ATOM     14  N   UNL     1      48.487   4.107  19.256  0.00  0.00    +0.000 NA
ATOM     15  H   UNL     1      49.463   4.112  19.558  0.00  0.00    +0.000 HD
ENDBRANCH   1  10
BRANCH   5  16
ATOM     16  C   UNL     1      45.600   4.252  12.763  0.00  0.00    +0.000 C 
BRANCH  16  17
ATOM     17  C   UNL     1      44.769   4.994  11.716  0.00  0.00    +0.000 C 
BRANCH  17  18
ATOM     18  N   UNL     1      44.087   4.063  10.803  0.00  0.00    +0.000 N 
ATOM     19  H   UNL     1      43.158   4.389  10.537  0.00  0.00    +0.000 HD
BRANCH  18  20
ATOM     20  C   UNL     1      44.827   3.644   9.682  0.00  0.00    +0.000 A 
ATOM     21  C   UNL     1      45.099   2.284   9.488  0.00  0.00    +0.000 A 
ATOM     22  C   UNL     1      45.865   1.861   8.399  0.00  0.00    +0.000 A 
ATOM     23  CA  UNL     1      46.376   2.828   7.546  0.00  0.00    +0.000 A 
ATOM     24  N   UNL     1      46.197   4.164   7.713  0.00  0.00    +0.000 NA
ATOM     25  C   UNL     1      45.447   4.524   8.783  0.00  0.00    +0.000 A 
BRANCH  23  26
ATOM     26  C   UNL     1      47.186   2.447   6.350  0.00  0.00    +0.000 C 
ATOM     27  O   UNL     1      47.070   2.938   5.245  0.00  0.00    +0.000 OA
BRANCH  26  28
ATOM     28  OXT UNL     1      48.082   1.483   6.675  0.00  0.00    +0.000 OA
ATOM     29  HXT UNL     1      47.978   0.737   6.037  0.00  0.00    +0.000 HD
ENDBRANCH  26  28
ENDBRANCH  23  26
ENDBRANCH  18  20
ENDBRANCH  17  18
ENDBRANCH  16  17
ENDBRANCH   5  16
TORSDOF 7
ENDMDL
MODEL 6
REMARK VINA RESULT:    -6.776      1.985      3.169
REMARK INTER + INTRA:         -10.380
REMARK INTER:                  -9.537
REMARK INTRA:                  -0.844
REMARK UNBOUND:                -1.030
REMARK  Name = 
REMARK  9 active torsions:
REMARK  status: ('A' for Active; 'I' for Inactive)
REMARK    1  A    between atoms: C_1  and  C_2
REMARK    2  A    between atoms: N_4  and  C_5
REMARK    3  A    between atoms: C_9  and  C_10
REMARK    4  A    between atoms: C_10  and  C_11
REMARK    5  A    between atoms: C_11  and  N_12
REMARK    6  A    between atoms: N_12  and  C_13
REMARK    7  A    between atoms: CA_16  and  C_17
REMARK    8  A    between atoms: C_17  and  OXT_19
REMARK    9  A    between atoms: C_24  and  C_25
REMARK                            x       y       z     vdW  Elec       q    Type
REMARK                         _______ _______ _______ _____ _____    ______ ____
ROOT
ATOM      1  C   UNL     1      48.767   6.908  14.052  0.00  0.00    +0.000 A 
ATOM      2  C   UNL     1      49.219   7.591  12.914  0.00  0.00    +0.000 A 
ATOM      3  C   UNL     1      48.509   7.571  11.707  0.00  0.00    +0.000 A 
ATOM      4  C   UNL     1      47.329   6.844  11.599  0.00  0.00    +0.000 A 
ATOM      5  C   UNL     1      46.858   6.120  12.695  0.00  0.00    +0.000 A 
ATOM      6  C   UNL     1      47.570   6.186  13.906  0.00  0.00    +0.000 A 
ENDROOT
BRANCH   1  10
ATOM      7  C   UNL     1      50.783   9.818  15.772  0.00  0.00    +0.000 C 
ATOM      8  C   UNL     1      51.086   8.446  16.383  0.00  0.00    +0.000 C 
ATOM      9  C   UNL     1      50.874   7.304  15.345  0.00  0.00    +0.000 C 
ATOM     10  N   UNL     1      49.452   6.942  15.249  0.00  0.00    +0.000 N 
ATOM     11  C   UNL     1      48.822   6.621  16.536  0.00  0.00    +0.000 C 
ATOM     12  C   UNL     1      48.995   7.786  17.543  0.00  0.00    +0.000 C 
ATOM     13  C   UNL     1      48.029   8.939  17.260  0.00  0.00    +0.000 C 
ATOM     14  N   UNL     1      50.399   8.246  17.685  0.00  0.00    +0.000 NA
ATOM     15  H   UNL     1      50.901   7.494  18.161  0.00  0.00    +0.000 HD
ENDBRANCH   1  10
BRANCH   5  16
ATOM     16  C   UNL     1      45.595   5.293  12.611  0.00  0.00    +0.000 C 
BRANCH  16  17
ATOM     17  C   UNL     1      44.816   5.584  11.328  0.00  0.00    +0.000 C 
BRANCH  17  18
ATOM     18  N   UNL     1      44.271   4.354  10.732  0.00  0.00    +0.000 N 
ATOM     19  H   UNL     1      43.269   4.419  10.552  0.00  0.00    +0.000 HD
BRANCH  18  20
ATOM     20  C   UNL     1      44.964   3.849   9.616  0.00  0.00    +0.000 A 
ATOM     21  C   UNL     1      45.133   2.468   9.460  0.00  0.00    +0.000 A 
ATOM     22  C   UNL     1      45.852   1.958   8.377  0.00  0.00    +0.000 A 
ATOM     23  CA  UNL     1      46.422   2.859   7.489  0.00  0.00    +0.000 A 
ATOM     24  N   UNL     1      46.343   4.209   7.618  0.00  0.00    +0.000 NA
ATOM     25  C   UNL     1      45.636   4.654   8.684  0.00  0.00    +0.000 A 
BRANCH  23  26
ATOM     26  C   UNL     1      47.187   2.385   6.297  0.00  0.00    +0.000 C 
ATOM     27  O   UNL     1      47.093   2.852   5.179  0.00  0.00    +0.000 OA
BRANCH  26  28
ATOM     28  OXT UNL     1      48.011   1.366   6.641  0.00  0.00    +0.000 OA
ATOM     29  HXT UNL     1      48.820   1.418   6.077  0.00  0.00    +0.000 HD
ENDBRANCH  26  28
ENDBRANCH  23  26
ENDBRANCH  18  20
ENDBRANCH  17  18
ENDBRANCH  16  17
ENDBRANCH   5  16
TORSDOF 7
ENDMDL
MODEL 7
REMARK VINA RESULT:    -6.733      3.812      6.061
REMARK INTER + INTRA:         -10.321
REMARK INTER:                  -9.469
REMARK INTRA:                  -0.852
REMARK UNBOUND:                -1.030
REMARK  Name = 
REMARK  9 active torsions:
REMARK  status: ('A' for Active; 'I' for Inactive)
REMARK    1  A    between atoms: C_1  and  C_2
REMARK    2  A    between atoms: N_4  and  C_5
REMARK    3  A    between atoms: C_9  and  C_10
REMARK    4  A    between atoms: C_10  and  C_11
REMARK    5  A    between atoms: C_11  and  N_12
REMARK    6  A    between atoms: N_12  and  C_13
REMARK    7  A    between atoms: CA_16  and  C_17
REMARK    8  A    between atoms: C_17  and  OXT_19
REMARK    9  A    between atoms: C_24  and  C_25
REMARK                            x       y       z     vdW  Elec       q    Type
REMARK                         _______ _______ _______ _____ _____    ______ ____
ROOT
ATOM      1  C   UNL     1      50.511   5.875  16.962  0.00  0.00    +0.000 A 
ATOM      2  C   UNL     1      51.830   6.268  16.691  0.00  0.00    +0.000 A 
ATOM      3  C   UNL     1      52.131   7.230  15.719  0.00  0.00    +0.000 A 
ATOM      4  C   UNL     1      51.115   7.814  14.971  0.00  0.00    +0.000 A 
ATOM      5  C   UNL     1      49.790   7.430  15.182  0.00  0.00    +0.000 A 
ATOM      6  C   UNL     1      49.510   6.488  16.189  0.00  0.00    +0.000 A 
ENDROOT
BRANCH   1  10
ATOM      7  C   UNL     1      47.688   5.851  19.703  0.00  0.00    +0.000 C 
ATOM      8  C   UNL     1      48.790   4.823  19.980  0.00  0.00    +0.000 C 
ATOM      9  C   UNL     1      50.149   5.271  19.365  0.00  0.00    +0.000 C 
ATOM     10  N   UNL     1      50.208   4.943  17.933  0.00  0.00    +0.000 N 
ATOM     11  C   UNL     1      49.916   3.537  17.623  0.00  0.00    +0.000 C 
ATOM     12  C   UNL     1      48.538   3.119  18.196  0.00  0.00    +0.000 C 
ATOM     13  C   UNL     1      47.379   3.637  17.342  0.00  0.00    +0.000 C 
ATOM     14  N   UNL     1      48.370   3.441  19.635  0.00  0.00    +0.000 NA
ATOM     15  H   UNL     1      48.996   2.815  20.145  0.00  0.00    +0.000 HD
ENDBRANCH   1  10
BRANCH   5  16
ATOM     16  C   UNL     1      48.658   8.019  14.371  0.00  0.00    +0.000 C 
BRANCH  16  17
ATOM     17  C   UNL     1      48.056   6.989  13.414  0.00  0.00    +0.000 C 
BRANCH  17  18
ATOM     18  N   UNL     1      46.606   6.841  13.618  0.00  0.00    +0.000 N 
ATOM     19  H   UNL     1      46.105   7.722  13.507  0.00  0.00    +0.000 HD
BRANCH  18  20
ATOM     20  C   UNL     1      45.985   5.801  12.902  0.00  0.00    +0.000 A 
ATOM     21  C   UNL     1      45.763   5.932  11.525  0.00  0.00    +0.000 A 
ATOM     22  C   UNL     1      45.112   4.923  10.812  0.00  0.00    +0.000 A 
ATOM     23  CA  UNL     1      44.663   3.813  11.513  0.00  0.00    +0.000 A 
ATOM     24  N   UNL     1      44.795   3.654  12.855  0.00  0.00    +0.000 NA
ATOM     25  C   UNL     1      45.433   4.660  13.502  0.00  0.00    +0.000 A 
BRANCH  23  26
ATOM     26  C   UNL     1      43.977   2.687  10.811  0.00  0.00    +0.000 C 
ATOM     27  O   UNL     1      44.283   2.259   9.716  0.00  0.00    +0.000 OA
BRANCH  26  28
ATOM     28  OXT UNL     1      42.969   2.199  11.575  0.00  0.00    +0.000 OA
ATOM     29  HXT UNL     1      43.257   1.334  11.951  0.00  0.00    +0.000 HD
ENDBRANCH  26  28
ENDBRANCH  23  26
ENDBRANCH  18  20
ENDBRANCH  17  18
ENDBRANCH  16  17
ENDBRANCH   5  16
TORSDOF 7
ENDMDL
MODEL 8
REMARK VINA RESULT:    -6.708      4.401      7.989
REMARK INTER + INTRA:         -10.287
REMARK INTER:                  -9.592
REMARK INTRA:                  -0.695
REMARK UNBOUND:                -1.030
REMARK  Name = 
REMARK  9 active torsions:
REMARK  status: ('A' for Active; 'I' for Inactive)
REMARK    1  A    between atoms: C_1  and  C_2
REMARK    2  A    between atoms: N_4  and  C_5
REMARK    3  A    between atoms: C_9  and  C_10
REMARK    4  A    between atoms: C_10  and  C_11
REMARK    5  A    between atoms: C_11  and  N_12
REMARK    6  A    between atoms: N_12  and  C_13
REMARK    7  A    between atoms: CA_16  and  C_17
REMARK    8  A    between atoms: C_17  and  OXT_19
REMARK    9  A    between atoms: C_24  and  C_25
REMARK                            x       y       z     vdW  Elec       q    Type
REMARK                         _______ _______ _______ _____ _____    ______ ____
ROOT
ATOM      1  C   UNL     1      46.368   5.634  12.574  0.00  0.00    +0.000 A 
ATOM      2  C   UNL     1      46.578   6.493  11.485  0.00  0.00    +0.000 A 
ATOM      3  C   UNL     1      47.658   7.384  11.442  0.00  0.00    +0.000 A 
ATOM      4  C   UNL     1      48.552   7.456  12.505  0.00  0.00    +0.000 A 
ATOM      5  C   UNL     1      48.363   6.645  13.625  0.00  0.00    +0.000 A 
ATOM      6  C   UNL     1      47.292   5.733  13.628  0.00  0.00    +0.000 A 
ENDROOT
BRANCH   1  10
ATOM      7  C   UNL     1      42.634   6.013  11.389  0.00  0.00    +0.000 C 
ATOM      8  C   UNL     1      42.844   4.806  12.310  0.00  0.00    +0.000 C 
ATOM      9  C   UNL     1      44.041   5.035  13.279  0.00  0.00    +0.000 C 
ATOM     10  N   UNL     1      45.318   4.740  12.611  0.00  0.00    +0.000 N 
ATOM     11  C   UNL     1      45.380   3.413  11.983  0.00  0.00    +0.000 C 
ATOM     12  C   UNL     1      44.212   3.219  10.984  0.00  0.00    +0.000 C 
ATOM     13  C   UNL     1      44.459   3.949   9.662  0.00  0.00    +0.000 C 
ATOM     14  N   UNL     1      42.878   3.525  11.559  0.00  0.00    +0.000 NA
ATOM     15  H   UNL     1      42.684   2.788  12.240  0.00  0.00    +0.000 HD
ENDBRANCH   1  10
BRANCH   5  16
ATOM     16  C   UNL     1      49.294   6.712  14.814  0.00  0.00    +0.000 C 
BRANCH  16  17
ATOM     17  C   UNL     1      48.629   7.393  16.011  0.00  0.00    +0.000 C 
BRANCH  17  18
ATOM     18  N   UNL     1      48.179   6.413  17.012  0.00  0.00    +0.000 N 
ATOM     19  H   UNL     1      47.213   6.121  16.864  0.00  0.00    +0.000 HD
BRANCH  18  20
ATOM     20  C   UNL     1      49.025   5.309  17.219  0.00  0.00    +0.000 A 
ATOM     21  C   UNL     1      50.349   5.505  17.631  0.00  0.00    +0.000 A 
ATOM     22  C   UNL     1      51.208   4.417  17.802  0.00  0.00    +0.000 A 
ATOM     23  CA  UNL     1      50.723   3.150  17.515  0.00  0.00    +0.000 A 
ATOM     24  N   UNL     1      49.469   2.900  17.057  0.00  0.00    +0.000 NA
ATOM     25  C   UNL     1      48.674   3.987  16.907  0.00  0.00    +0.000 A 
BRANCH  23  26
ATOM     26  C   UNL     1      51.580   1.940  17.694  0.00  0.00    +0.000 C 
ATOM     27  O   UNL     1      51.461   0.904  17.070  0.00  0.00    +0.000 OA
BRANCH  26  28
ATOM     28  OXT UNL     1      52.519   2.163  18.645  0.00  0.00    +0.000 OA
ATOM     29  HXT UNL     1      52.352   1.546  19.397  0.00  0.00    +0.000 HD
ENDBRANCH  26  28
ENDBRANCH  23  26
ENDBRANCH  18  20
ENDBRANCH  17  18
ENDBRANCH  16  17
ENDBRANCH   5  16
TORSDOF 7
ENDMDL
MODEL 9
REMARK VINA RESULT:    -6.509      3.609      5.859
REMARK INTER + INTRA:         -10.013
REMARK INTER:                  -8.891
REMARK INTRA:                  -1.121
REMARK UNBOUND:                -1.030
REMARK  Name = 
REMARK  9 active torsions:
REMARK  status: ('A' for Active; 'I' for Inactive)
REMARK    1  A    between atoms: C_1  and  C_2
REMARK    2  A    between atoms: N_4  and  C_5
REMARK    3  A    between atoms: C_9  and  C_10
REMARK    4  A    between atoms: C_10  and  C_11
REMARK    5  A    between atoms: C_11  and  N_12
REMARK    6  A    between atoms: N_12  and  C_13
REMARK    7  A    between atoms: CA_16  and  C_17
REMARK    8  A    between atoms: C_17  and  OXT_19
REMARK    9  A    between atoms: C_24  and  C_25
REMARK                            x       y       z     vdW  Elec       q    Type
REMARK                         _______ _______ _______ _____ _____    ______ ____
ROOT
ATOM      1  C   UNL     1      48.707   6.487  16.614  0.00  0.00    +0.000 A 
ATOM      2  C   UNL     1      49.402   7.640  17.007  0.00  0.00    +0.000 A 
ATOM      3  C   UNL     1      49.904   8.556  16.075  0.00  0.00    +0.000 A 
ATOM      4  C   UNL     1      49.740   8.332  14.712  0.00  0.00    +0.000 A 
ATOM      5  C   UNL     1      49.084   7.181  14.273  0.00  0.00    +0.000 A 
ATOM      6  C   UNL     1      48.558   6.295  15.230  0.00  0.00    +0.000 A 
ENDROOT
BRANCH   1  10
ATOM      7  C   UNL     1      49.718   2.769  17.413  0.00  0.00    +0.000 C 
ATOM      8  C   UNL     1      48.350   3.147  17.990  0.00  0.00    +0.000 C 
ATOM      9  C   UNL     1      47.673   4.271  17.151  0.00  0.00    +0.000 C 
ATOM     10  N   UNL     1      48.193   5.592  17.530  0.00  0.00    +0.000 N 
ATOM     11  C   UNL     1      48.121   5.880  18.970  0.00  0.00    +0.000 C 
ATOM     12  C   UNL     1      48.844   4.781  19.789  0.00  0.00    +0.000 C 
ATOM     13  C   UNL     1      50.365   4.938  19.747  0.00  0.00    +0.000 C 
ATOM     14  N   UNL     1      48.407   3.403  19.452  0.00  0.00    +0.000 NA
ATOM     15  H   UNL     1      47.450   3.313  19.797  0.00  0.00    +0.000 HD
ENDBRANCH   1  10
BRANCH   5  16
ATOM     16  C   UNL     1      48.911   6.884  12.800  0.00  0.00    +0.000 C 
BRANCH  16  17
ATOM     17  C   UNL     1      47.868   7.803  12.161  0.00  0.00    +0.000 C 
BRANCH  17  18
ATOM     18  N   UNL     1      46.533   7.596  12.743  0.00  0.00    +0.000 N 
ATOM     19  H   UNL     1      45.936   8.418  12.650  0.00  0.00    +0.000 HD
BRANCH  18  20
ATOM     20  C   UNL     1      45.861   6.425  12.347  0.00  0.00    +0.000 A 
ATOM     21  C   UNL     1      45.451   5.492  13.307  0.00  0.00    +0.000 A 
ATOM     22  C   UNL     1      44.818   4.307  12.921  0.00  0.00    +0.000 A 
ATOM     23  CA  UNL     1      44.645   4.071  11.565  0.00  0.00    +0.000 A 
ATOM     24  N   UNL     1      45.072   4.908  10.585  0.00  0.00    +0.000 NA
ATOM     25  C   UNL     1      45.680   6.043  11.009  0.00  0.00    +0.000 A 
BRANCH  23  26
ATOM     26  C   UNL     1      43.959   2.836  11.082  0.00  0.00    +0.000 C 
ATOM     27  O   UNL     1      42.903   2.412  11.510  0.00  0.00    +0.000 OA
BRANCH  26  28
ATOM     28  OXT UNL     1      44.674   2.257  10.087  0.00  0.00    +0.000 OA
ATOM     29  HXT UNL     1      44.173   2.363   9.243  0.00  0.00    +0.000 HD
ENDBRANCH  26  28
ENDBRANCH  23  26
ENDBRANCH  18  20
ENDBRANCH  17  18
ENDBRANCH  16  17
ENDBRANCH   5  16
TORSDOF 7
ENDMDL
