MODEL 1
REMARK VINA RESULT:    -8.186      0.000      0.000
REMARK INTER + INTRA:         -12.727
REMARK INTER:                 -12.014
REMARK INTRA:                  -0.713
REMARK UNBOUND:                -0.713
REMARK  Name = 
REMARK  8 active torsions:
REMARK  status: ('A' for Active; 'I' for Inactive)
REMARK    1  A    between atoms: C_2  and  C_23
REMARK    2  A    between atoms: N_3  and  C_4
REMARK    3  A    between atoms: C_4  and  C_5
REMARK    4  A    between atoms: C_8  and  C_9
REMARK    5  A    between atoms: C_9  and  O_10
REMARK    6  A    between atoms: O_10  and  C_11
REMARK    7  A    between atoms: C_11  and  C_12
REMARK    8  A    between atoms: C_17  and  N_18
REMARK                            x       y       z     vdW  Elec       q    Type
REMARK                         _______ _______ _______ _____ _____    ______ ____
ROOT
ATOM      1  C   UNL     1      46.670   7.630  12.894  0.00  0.00    +0.000 A 
ATOM      2  C   UNL     1      46.879   8.809  13.618  0.00  0.00    +0.000 A 
ATOM      3  C   UNL     1      47.810   8.848  14.657  0.00  0.00    +0.000 A 
ATOM      4  C   UNL     1      48.551   7.706  14.992  0.00  0.00    +0.000 A 
ATOM      5  C   UNL     1      48.376   6.539  14.237  0.00  0.00    +0.000 A 
ATOM      6  C   UNL     1      47.446   6.502  13.194  0.00  0.00    +0.000 A 
ENDROOT
BRANCH   1   7
ATOM      7  C   UNL     1      45.630   7.578  11.807  0.00  0.00    +0.000 C 
BRANCH   7  10
ATOM      8  O   UNL     1      43.511   5.795  11.874  0.00  0.00    +0.000 OA
ATOM      9  C   UNL     1      44.508   5.485  11.228  0.00  0.00    +0.000 C 
ATOM     10  N   UNL     1      45.616   6.297  11.150  0.00  0.00    +0.000 N 
ATOM     11  H   UNL     1      46.382   6.060  10.541  0.00  0.00    +0.000 HD
BRANCH   9  12
ATOM     12  C   UNL     1      44.590   4.225  10.485  0.00  0.00    +0.000 A 
ATOM     13  C   UNL     1      44.023   3.006  10.823  0.00  0.00    +0.000 A 
ATOM     14  N   UNL     1      44.344   2.089   9.858  0.00  0.00    +0.000 N 
ATOM     15  C   UNL     1      45.112   2.677   8.883  0.00  0.00    +0.000 A 
ATOM     16  C   UNL     1      45.668   2.139   7.722  0.00  0.00    +0.000 A 
ATOM     17  C   UNL     1      46.396   3.038   6.960  0.00  0.00    +0.000 A 
ATOM     18 CL   UNL     1      47.147   2.520   5.504  0.00  0.00    +0.000 Cl
ATOM     19  N   UNL     1      46.587   4.339   7.252  0.00  0.00    +0.000 NA
ATOM     20  C   UNL     1      46.036   4.839   8.386  0.00  0.00    +0.000 A 
ATOM     21  C   UNL     1      45.282   4.016   9.240  0.00  0.00    +0.000 A 
ATOM     22  H   UNL     1      44.056   1.118   9.855  0.00  0.00    +0.000 HD
ENDBRANCH   9  12
ENDBRANCH   7  10
ENDBRANCH   1   7
BRANCH   4  23
ATOM     23  C   UNL     1      49.456   7.720  16.196  0.00  0.00    +0.000 C 
BRANCH  23  24
ATOM     24  O   UNL     1      50.038   6.431  16.425  0.00  0.00    +0.000 OA
BRANCH  24  25
ATOM     25  C   UNL     1      49.274   5.644  17.343  0.00  0.00    +0.000 C 
BRANCH  25  26
ATOM     26  C   UNL     1      49.655   4.193  17.210  0.00  0.00    +0.000 A 
ATOM     27  N   UNL     1      50.949   3.878  17.487  0.00  0.00    +0.000 NA
ATOM     28  C   UNL     1      51.304   2.585  17.369  0.00  0.00    +0.000 A 
ATOM     29  N   UNL     1      50.493   1.575  17.011  0.00  0.00    +0.000 NA
ATOM     30  C   UNL     1      49.215   1.918  16.741  0.00  0.00    +0.000 A 
ATOM     31  C   UNL     1      48.762   3.213  16.819  0.00  0.00    +0.000 A 
BRANCH  31  32
ATOM     32  N   UNL     1      47.414   3.504  16.431  0.00  0.00    +0.000 N 
ATOM     33  O   UNL     1      47.172   3.533  15.218  0.00  0.00    +0.000 OA
ATOM     34  O   UNL     1      46.578   3.628  17.336  0.00  0.00    +0.000 OA
ENDBRANCH  31  32
ENDBRANCH  25  26
ENDBRANCH  24  25
ENDBRANCH  23  24
ENDBRANCH   4  23
TORSDOF 8
ENDMDL
MODEL 2
REMARK VINA RESULT:    -7.897      1.559      2.030
REMARK INTER + INTRA:         -12.302
REMARK INTER:                 -11.339
REMARK INTRA:                  -0.963
REMARK UNBOUND:                -0.713
REMARK  Name = 
REMARK  8 active torsions:
REMARK  status: ('A' for Active; 'I' for Inactive)
REMARK    1  A    between atoms: C_2  and  C_23
REMARK    2  A    between atoms: N_3  and  C_4
REMARK    3  A    between atoms: C_4  and  C_5
REMARK    4  A    between atoms: C_8  and  C_9
REMARK    5  A    between atoms: C_9  and  O_10
REMARK    6  A    between atoms: O_10  and  C_11
REMARK    7  A    between atoms: C_11  and  C_12
REMARK    8  A    between atoms: C_17  and  N_18
REMARK                            x       y       z     vdW  Elec       q    Type
REMARK                         _______ _______ _______ _____ _____    ______ ____
ROOT
ATOM      1  C   UNL     1      46.946   7.777  13.313  0.00  0.00    +0.000 A 
ATOM      2  C   UNL     1      47.302   8.887  14.087  0.00  0.00    +0.000 A 
ATOM      3  C   UNL     1      48.410   8.835  14.935  0.00  0.00    +0.000 A 
ATOM      4  C   UNL     1      49.183   7.669  15.025  0.00  0.00    +0.000 A 
ATOM      5  C   UNL     1      48.854   6.574  14.216  0.00  0.00    +0.000 A 
ATOM      6  C   UNL     1      47.748   6.629  13.364  0.00  0.00    +0.000 A 
ENDROOT
BRANCH   1   7
ATOM      7  C   UNL     1      45.723   7.820  12.437  0.00  0.00    +0.000 C 
BRANCH   7  10
ATOM      8  O   UNL     1      44.001   5.782  13.180  0.00  0.00    +0.000 OA
ATOM      9  C   UNL     1      44.656   5.639  12.151  0.00  0.00    +0.000 C 
ATOM     10  N   UNL     1      45.549   6.589  11.711  0.00  0.00    +0.000 N 
ATOM     11  H   UNL     1      46.006   6.487  10.819  0.00  0.00    +0.000 HD
BRANCH   9  12
ATOM     12  C   UNL     1      44.532   4.446  11.311  0.00  0.00    +0.000 A 
ATOM     13  C   UNL     1      43.859   3.270  11.606  0.00  0.00    +0.000 A 
ATOM     14  N   UNL     1      43.991   2.410  10.548  0.00  0.00    +0.000 N 
ATOM     15  C   UNL     1      44.737   2.994   9.554  0.00  0.00    +0.000 A 
ATOM     16  C   UNL     1      45.129   2.502   8.310  0.00  0.00    +0.000 A 
ATOM     17  C   UNL     1      45.888   3.379   7.553  0.00  0.00    +0.000 A 
ATOM     18 CL   UNL     1      46.451   2.910   5.999  0.00  0.00    +0.000 Cl
ATOM     19  N   UNL     1      46.251   4.622   7.924  0.00  0.00    +0.000 NA
ATOM     20  C   UNL     1      45.858   5.079   9.140  0.00  0.00    +0.000 A 
ATOM     21  C   UNL     1      45.089   4.271   9.994  0.00  0.00    +0.000 A 
ATOM     22  H   UNL     1      43.595   1.480  10.498  0.00  0.00    +0.000 HD
ENDBRANCH   9  12
ENDBRANCH   7  10
ENDBRANCH   1   7
BRANCH   4  23
ATOM     23  C   UNL     1      50.294   7.578  16.038  0.00  0.00    +0.000 C 
BRANCH  23  24
ATOM     24  O   UNL     1      50.807   6.243  16.129  0.00  0.00    +0.000 OA
BRANCH  24  25
ATOM     25  C   UNL     1      50.570   5.655  17.411  0.00  0.00    +0.000 C 
BRANCH  25  26
ATOM     26  C   UNL     1      49.252   4.927  17.402  0.00  0.00    +0.000 A 
ATOM     27  N   UNL     1      49.165   3.840  16.588  0.00  0.00    +0.000 NA
ATOM     28  C   UNL     1      47.991   3.182  16.567  0.00  0.00    +0.000 A 
ATOM     29  N   UNL     1      46.899   3.496  17.285  0.00  0.00    +0.000 NA
ATOM     30  C   UNL     1      47.015   4.580  18.082  0.00  0.00    +0.000 A 
ATOM     31  C   UNL     1      48.168   5.325  18.160  0.00  0.00    +0.000 A 
BRANCH  31  32
ATOM     32  N   UNL     1      48.177   6.510  18.964  0.00  0.00    +0.000 N 
ATOM     33  O   UNL     1      47.760   7.550  18.437  0.00  0.00    +0.000 OA
ATOM     34  O   UNL     1      48.529   6.392  20.145  0.00  0.00    +0.000 OA
ENDBRANCH  31  32
ENDBRANCH  25  26
ENDBRANCH  24  25
ENDBRANCH  23  24
ENDBRANCH   4  23
TORSDOF 8
ENDMDL
MODEL 3
REMARK VINA RESULT:    -7.440      1.474      2.260
REMARK INTER + INTRA:         -11.632
REMARK INTER:                 -10.884
REMARK INTRA:                  -0.748
REMARK UNBOUND:                -0.713
REMARK  Name = 
REMARK  8 active torsions:
REMARK  status: ('A' for Active; 'I' for Inactive)
REMARK    1  A    between atoms: C_2  and  C_23
REMARK    2  A    between atoms: N_3  and  C_4
REMARK    3  A    between atoms: C_4  and  C_5
REMARK    4  A    between atoms: C_8  and  C_9
REMARK    5  A    between atoms: C_9  and  O_10
REMARK    6  A    between atoms: O_10  and  C_11
REMARK    7  A    between atoms: C_11  and  C_12
REMARK    8  A    between atoms: C_17  and  N_18
REMARK                            x       y       z     vdW  Elec       q    Type
REMARK                         _______ _______ _______ _____ _____    ______ ____
ROOT
ATOM      1  C   UNL     1      46.678   7.607  12.987  0.00  0.00    +0.000 A 
ATOM      2  C   UNL     1      47.702   6.655  13.026  0.00  0.00    +0.000 A 
ATOM      3  C   UNL     1      48.876   6.904  13.741  0.00  0.00    +0.000 A 
ATOM      4  C   UNL     1      49.046   8.113  14.429  0.00  0.00    +0.000 A 
ATOM      5  C   UNL     1      48.002   9.047  14.428  0.00  0.00    +0.000 A 
ATOM      6  C   UNL     1      46.826   8.795  13.717  0.00  0.00    +0.000 A 
ENDROOT
BRANCH   1   7
ATOM      7  C   UNL     1      45.436   7.357  12.175  0.00  0.00    +0.000 C 
BRANCH   7  10
ATOM      8  O   UNL     1      43.216   5.964  11.279  0.00  0.00    +0.000 OA
ATOM      9  C   UNL     1      44.323   5.467  11.095  0.00  0.00    +0.000 C 
ATOM     10  N   UNL     1      45.482   6.076  11.519  0.00  0.00    +0.000 N 
ATOM     11  H   UNL     1      46.380   5.691  11.276  0.00  0.00    +0.000 HD
BRANCH   9  12
ATOM     12  C   UNL     1      44.494   4.188  10.403  0.00  0.00    +0.000 A 
ATOM     13  C   UNL     1      43.958   2.958  10.754  0.00  0.00    +0.000 A 
ATOM     14  N   UNL     1      44.366   2.024   9.839  0.00  0.00    +0.000 N 
ATOM     15  C   UNL     1      45.161   2.610   8.886  0.00  0.00    +0.000 A 
ATOM     16  C   UNL     1      45.799   2.057   7.776  0.00  0.00    +0.000 A 
ATOM     17  C   UNL     1      46.531   2.959   7.021  0.00  0.00    +0.000 A 
ATOM     18 CL   UNL     1      47.379   2.424   5.625  0.00  0.00    +0.000 Cl
ATOM     19  N   UNL     1      46.656   4.276   7.276  0.00  0.00    +0.000 NA
ATOM     20  C   UNL     1      46.025   4.790   8.362  0.00  0.00    +0.000 A 
ATOM     21  C   UNL     1      45.260   3.966   9.203  0.00  0.00    +0.000 A 
ATOM     22  H   UNL     1      44.116   1.043   9.856  0.00  0.00    +0.000 HD
ENDBRANCH   9  12
ENDBRANCH   7  10
ENDBRANCH   1   7
BRANCH   4  23
ATOM     23  C   UNL     1      50.365   8.427  15.086  0.00  0.00    +0.000 C 
BRANCH  23  24
ATOM     24  O   UNL     1      50.366   8.035  16.465  0.00  0.00    +0.000 OA
BRANCH  24  25
ATOM     25  C   UNL     1      50.211   6.623  16.630  0.00  0.00    +0.000 C 
BRANCH  25  26
ATOM     26  C   UNL     1      49.021   6.340  17.508  0.00  0.00    +0.000 A 
ATOM     27  N   UNL     1      48.668   7.319  18.385  0.00  0.00    +0.000 NA
ATOM     28  C   UNL     1      47.607   7.078  19.178  0.00  0.00    +0.000 A 
ATOM     29  N   UNL     1      46.860   5.961  19.176  0.00  0.00    +0.000 NA
ATOM     30  C   UNL     1      47.235   5.008  18.296  0.00  0.00    +0.000 A 
ATOM     31  C   UNL     1      48.312   5.155  17.455  0.00  0.00    +0.000 A 
BRANCH  31  32
ATOM     32  N   UNL     1      48.695   4.060  16.615  0.00  0.00    +0.000 N 
ATOM     33  O   UNL     1      48.090   3.936  15.542  0.00  0.00    +0.000 OA
ATOM     34  O   UNL     1      49.650   3.367  16.988  0.00  0.00    +0.000 OA
ENDBRANCH  31  32
ENDBRANCH  25  26
ENDBRANCH  24  25
ENDBRANCH  23  24
ENDBRANCH   4  23
TORSDOF 8
ENDMDL
MODEL 4
REMARK VINA RESULT:    -7.372      2.739      3.617
REMARK INTER + INTRA:         -11.533
REMARK INTER:                 -10.318
REMARK INTRA:                  -1.214
REMARK UNBOUND:                -0.713
REMARK  Name = 
REMARK  8 active torsions:
REMARK  status: ('A' for Active; 'I' for Inactive)
REMARK    1  A    between atoms: C_2  and  C_23
REMARK    2  A    between atoms: N_3  and  C_4
REMARK    3  A    between atoms: C_4  and  C_5
REMARK    4  A    between atoms: C_8  and  C_9
REMARK    5  A    between atoms: C_9  and  O_10
REMARK    6  A    between atoms: O_10  and  C_11
REMARK    7  A    between atoms: C_11  and  C_12
REMARK    8  A    between atoms: C_17  and  N_18
REMARK                            x       y       z     vdW  Elec       q    Type
REMARK                         _______ _______ _______ _____ _____    ______ ____
ROOT
ATOM      1  C   UNL     1      48.592   9.124  15.154  0.00  0.00    +0.000 A 
ATOM      2  C   UNL     1      48.206   9.757  16.341  0.00  0.00    +0.000 A 
ATOM      3  C   UNL     1      48.507   9.188  17.579  0.00  0.00    +0.000 A 
ATOM      4  C   UNL     1      49.199   7.972  17.654  0.00  0.00    +0.000 A 
ATOM      5  C   UNL     1      49.626   7.361  16.468  0.00  0.00    +0.000 A 
ATOM      6  C   UNL     1      49.329   7.934  15.229  0.00  0.00    +0.000 A 
ENDROOT
BRANCH   1   7
ATOM      7  C   UNL     1      48.223   9.715  13.820  0.00  0.00    +0.000 C 
BRANCH   7  10
ATOM      8  O   UNL     1      48.030   7.854  11.777  0.00  0.00    +0.000 OA
ATOM      9  C   UNL     1      46.993   8.235  12.312  0.00  0.00    +0.000 C 
ATOM     10  N   UNL     1      46.987   9.169  13.323  0.00  0.00    +0.000 N 
ATOM     11  H   UNL     1      46.132   9.396  13.805  0.00  0.00    +0.000 HD
BRANCH   9  12
ATOM     12  C   UNL     1      45.681   7.719  11.917  0.00  0.00    +0.000 A 
ATOM     13  C   UNL     1      44.595   8.440  11.446  0.00  0.00    +0.000 A 
ATOM     14  N   UNL     1      43.565   7.572  11.194  0.00  0.00    +0.000 N 
ATOM     15  C   UNL     1      43.949   6.286  11.487  0.00  0.00    +0.000 A 
ATOM     16  C   UNL     1      43.241   5.088  11.393  0.00  0.00    +0.000 A 
ATOM     17  C   UNL     1      43.953   3.964  11.779  0.00  0.00    +0.000 A 
ATOM     18 CL   UNL     1      43.211   2.415  11.725  0.00  0.00    +0.000 Cl
ATOM     19  N   UNL     1      45.227   3.955  12.215  0.00  0.00    +0.000 NA
ATOM     20  C   UNL     1      45.895   5.134  12.298  0.00  0.00    +0.000 A 
ATOM     21  C   UNL     1      45.269   6.339  11.938  0.00  0.00    +0.000 A 
ATOM     22  H   UNL     1      42.654   7.833  10.839  0.00  0.00    +0.000 HD
ENDBRANCH   9  12
ENDBRANCH   7  10
ENDBRANCH   1   7
BRANCH   4  23
ATOM     23  C   UNL     1      49.403   7.301  18.988  0.00  0.00    +0.000 C 
BRANCH  23  24
ATOM     24  O   UNL     1      49.965   5.991  18.831  0.00  0.00    +0.000 OA
BRANCH  24  25
ATOM     25  C   UNL     1      48.967   4.967  18.840  0.00  0.00    +0.000 C 
BRANCH  25  26
ATOM     26  C   UNL     1      49.428   3.799  18.009  0.00  0.00    +0.000 A 
ATOM     27  N   UNL     1      50.731   3.434  18.147  0.00  0.00    +0.000 NA
ATOM     28  C   UNL     1      51.158   2.393  17.407  0.00  0.00    +0.000 A 
ATOM     29  N   UNL     1      50.410   1.677  16.550  0.00  0.00    +0.000 NA
ATOM     30  C   UNL     1      49.121   2.064  16.433  0.00  0.00    +0.000 A 
ATOM     31  C   UNL     1      48.597   3.123  17.136  0.00  0.00    +0.000 A 
BRANCH  31  32
ATOM     32  N   UNL     1      47.244   3.522  16.888  0.00  0.00    +0.000 N 
ATOM     33  O   UNL     1      46.358   2.920  17.507  0.00  0.00    +0.000 OA
ATOM     34  O   UNL     1      47.068   4.486  16.132  0.00  0.00    +0.000 OA
ENDBRANCH  31  32
ENDBRANCH  25  26
ENDBRANCH  24  25
ENDBRANCH  23  24
ENDBRANCH   4  23
TORSDOF 8
ENDMDL
MODEL 5
REMARK VINA RESULT:    -7.056      3.224      4.145
REMARK INTER + INTRA:         -11.068
REMARK INTER:                  -9.710
REMARK INTRA:                  -1.358
REMARK UNBOUND:                -0.713
REMARK  Name = 
REMARK  8 active torsions:
REMARK  status: ('A' for Active; 'I' for Inactive)
REMARK    1  A    between atoms: C_2  and  C_23
REMARK    2  A    between atoms: N_3  and  C_4
REMARK    3  A    between atoms: C_4  and  C_5
REMARK    4  A    between atoms: C_8  and  C_9
REMARK    5  A    between atoms: C_9  and  O_10
REMARK    6  A    between atoms: O_10  and  C_11
REMARK    7  A    between atoms: C_11  and  C_12
REMARK    8  A    between atoms: C_17  and  N_18
REMARK                            x       y       z     vdW  Elec       q    Type
REMARK                         _______ _______ _______ _____ _____    ______ ____
ROOT
ATOM      1  C   UNL     1      45.927   7.577  12.580  0.00  0.00    +0.000 A 
ATOM      2  C   UNL     1      47.235   7.198  12.257  0.00  0.00    +0.000 A 
ATOM      3  C   UNL     1      48.184   8.158  11.900  0.00  0.00    +0.000 A 
ATOM      4  C   UNL     1      47.841   9.516  11.857  0.00  0.00    +0.000 A 
ATOM      5  C   UNL     1      46.545   9.900  12.225  0.00  0.00    +0.000 A 
ATOM      6  C   UNL     1      45.597   8.939  12.587  0.00  0.00    +0.000 A 
ENDROOT
BRANCH   1   7
ATOM      7  C   UNL     1      44.894   6.535  12.916  0.00  0.00    +0.000 C 
BRANCH   7  10
ATOM      8  O   UNL     1      43.195   5.748  10.876  0.00  0.00    +0.000 OA
ATOM      9  C   UNL     1      44.173   5.045  11.118  0.00  0.00    +0.000 C 
ATOM     10  N   UNL     1      45.063   5.346  12.122  0.00  0.00    +0.000 N 
ATOM     11  H   UNL     1      45.904   4.804  12.240  0.00  0.00    +0.000 HD
BRANCH   9  12
ATOM     12  C   UNL     1      44.468   3.834  10.348  0.00  0.00    +0.000 A 
ATOM     13  C   UNL     1      44.035   2.543  10.606  0.00  0.00    +0.000 A 
ATOM     14  N   UNL     1      44.539   1.710   9.643  0.00  0.00    +0.000 N 
ATOM     15  C   UNL     1      45.298   2.425   8.749  0.00  0.00    +0.000 A 
ATOM     16  C   UNL     1      46.002   2.004   7.621  0.00  0.00    +0.000 A 
ATOM     17  C   UNL     1      46.667   3.014   6.944  0.00  0.00    +0.000 A 
ATOM     18 CL   UNL     1      47.584   2.648   5.538  0.00  0.00    +0.000 Cl
ATOM     19  N   UNL     1      46.671   4.316   7.287  0.00  0.00    +0.000 NA
ATOM     20  C   UNL     1      45.978   4.701   8.389  0.00  0.00    +0.000 A 
ATOM     21  C   UNL     1      45.272   3.759   9.156  0.00  0.00    +0.000 A 
ATOM     22  H   UNL     1      44.376   0.712   9.589  0.00  0.00    +0.000 HD
ENDBRANCH   9  12
ENDBRANCH   7  10
ENDBRANCH   1   7
BRANCH   4  23
ATOM     23  C   UNL     1      48.832  10.528  11.345  0.00  0.00    +0.000 C 
BRANCH  23  24
ATOM     24  O   UNL     1      50.127  10.328  11.925  0.00  0.00    +0.000 OA
BRANCH  24  25
ATOM     25  C   UNL     1      50.183  10.752  13.290  0.00  0.00    +0.000 C 
BRANCH  25  26
ATOM     26  C   UNL     1      50.789   9.664  14.136  0.00  0.00    +0.000 A 
ATOM     27  N   UNL     1      51.961   9.132  13.692  0.00  0.00    +0.000 NA
ATOM     28  C   UNL     1      52.512   8.156  14.437  0.00  0.00    +0.000 A 
ATOM     29  N   UNL     1      52.015   7.666  15.586  0.00  0.00    +0.000 NA
ATOM     30  C   UNL     1      50.853   8.213  16.001  0.00  0.00    +0.000 A 
ATOM     31  C   UNL     1      50.206   9.204  15.301  0.00  0.00    +0.000 A 
BRANCH  31  32
ATOM     32  N   UNL     1      48.932   9.667  15.765  0.00  0.00    +0.000 N 
ATOM     33  O   UNL     1      47.934   9.048  15.376  0.00  0.00    +0.000 OA
ATOM     34  O   UNL     1      48.931  10.600  16.579  0.00  0.00    +0.000 OA
ENDBRANCH  31  32
ENDBRANCH  25  26
ENDBRANCH  24  25
ENDBRANCH  23  24
ENDBRANCH   4  23
TORSDOF 8
ENDMDL
MODEL 6
REMARK VINA RESULT:    -6.998      3.108      4.173
REMARK INTER + INTRA:         -10.983
REMARK INTER:                 -10.052
REMARK INTRA:                  -0.931
REMARK UNBOUND:                -0.713
REMARK  Name = 
REMARK  8 active torsions:
REMARK  status: ('A' for Active; 'I' for Inactive)
REMARK    1  A    between atoms: C_2  and  C_23
REMARK    2  A    between atoms: N_3  and  C_4
REMARK    3  A    between atoms: C_4  and  C_5
REMARK    4  A    between atoms: C_8  and  C_9
REMARK    5  A    between atoms: C_9  and  O_10
REMARK    6  A    between atoms: O_10  and  C_11
REMARK    7  A    between atoms: C_11  and  C_12
REMARK    8  A    between atoms: C_17  and  N_18
REMARK                            x       y       z     vdW  Elec       q    Type
REMARK                         _______ _______ _______ _____ _____    ______ ____
ROOT
ATOM      1  C   UNL     1      49.095   9.061  14.796  0.00  0.00    +0.000 A 
ATOM      2  C   UNL     1      50.166   8.259  14.383  0.00  0.00    +0.000 A 
ATOM      3  C   UNL     1      50.867   7.480  15.306  0.00  0.00    +0.000 A 
ATOM      4  C   UNL     1      50.509   7.490  16.662  0.00  0.00    +0.000 A 
ATOM      5  C   UNL     1      49.409   8.256  17.067  0.00  0.00    +0.000 A 
ATOM      6  C   UNL     1      48.705   9.031  16.142  0.00  0.00    +0.000 A 
ENDROOT
BRANCH   1   7
ATOM      7  C   UNL     1      48.374   9.937  13.808  0.00  0.00    +0.000 C 
BRANCH   7  10
ATOM      8  O   UNL     1      48.110   8.276  11.607  0.00  0.00    +0.000 OA
ATOM      9  C   UNL     1      47.108   8.513  12.276  0.00  0.00    +0.000 C 
ATOM     10  N   UNL     1      47.137   9.339  13.376  0.00  0.00    +0.000 N 
ATOM     11  H   UNL     1      46.322   9.445  13.958  0.00  0.00    +0.000 HD
BRANCH   9  12
ATOM     12  C   UNL     1      45.804   7.929  11.954  0.00  0.00    +0.000 A 
ATOM     13  C   UNL     1      44.687   8.579  11.452  0.00  0.00    +0.000 A 
ATOM     14  N   UNL     1      43.679   7.663  11.296  0.00  0.00    +0.000 N 
ATOM     15  C   UNL     1      44.108   6.417  11.682  0.00  0.00    +0.000 A 
ATOM     16  C   UNL     1      43.436   5.196  11.701  0.00  0.00    +0.000 A 
ATOM     17  C   UNL     1      44.189   4.128  12.160  0.00  0.00    +0.000 A 
ATOM     18 CL   UNL     1      43.494   2.559  12.248  0.00  0.00    +0.000 Cl
ATOM     19  N   UNL     1      45.472   4.191  12.565  0.00  0.00    +0.000 NA
ATOM     20  C   UNL     1      46.105   5.391  12.537  0.00  0.00    +0.000 A 
ATOM     21  C   UNL     1      45.435   6.544  12.096  0.00  0.00    +0.000 A 
ATOM     22  H   UNL     1      42.753   7.869  10.942  0.00  0.00    +0.000 HD
ENDBRANCH   9  12
ENDBRANCH   7  10
ENDBRANCH   1   7
BRANCH   4  23
ATOM     23  C   UNL     1      51.352   6.751  17.668  0.00  0.00    +0.000 C 
BRANCH  23  24
ATOM     24  O   UNL     1      51.371   5.343  17.397  0.00  0.00    +0.000 OA
BRANCH  24  25
ATOM     25  C   UNL     1      50.741   4.582  18.431  0.00  0.00    +0.000 C 
BRANCH  25  26
ATOM     26  C   UNL     1      49.347   4.202  18.007  0.00  0.00    +0.000 A 
ATOM     27  N   UNL     1      48.344   5.026  18.415  0.00  0.00    +0.000 NA
ATOM     28  C   UNL     1      47.092   4.696  18.046  0.00  0.00    +0.000 A 
ATOM     29  N   UNL     1      46.745   3.632  17.302  0.00  0.00    +0.000 NA
ATOM     30  C   UNL     1      47.761   2.833  16.913  0.00  0.00    +0.000 A 
ATOM     31  C   UNL     1      49.070   3.078  17.252  0.00  0.00    +0.000 A 
BRANCH  31  32
ATOM     32  N   UNL     1      50.077   2.132  16.872  0.00  0.00    +0.000 N 
ATOM     33  O   UNL     1      50.953   1.878  17.709  0.00  0.00    +0.000 OA
ATOM     34  O   UNL     1      49.953   1.585  15.769  0.00  0.00    +0.000 OA
ENDBRANCH  31  32
ENDBRANCH  25  26
ENDBRANCH  24  25
ENDBRANCH  23  24
ENDBRANCH   4  23
TORSDOF 8
ENDMDL
MODEL 7
REMARK VINA RESULT:    -6.958      4.915      6.734
REMARK INTER + INTRA:         -10.925
REMARK INTER:                  -9.940
REMARK INTRA:                  -0.985
REMARK UNBOUND:                -0.713
REMARK  Name = 
REMARK  8 active torsions:
REMARK  status: ('A' for Active; 'I' for Inactive)
REMARK    1  A    between atoms: C_2  and  C_23
REMARK    2  A    between atoms: N_3  and  C_4
REMARK    3  A    between atoms: C_4  and  C_5
REMARK    4  A    between atoms: C_8  and  C_9
REMARK    5  A    between atoms: C_9  and  O_10
REMARK    6  A    between atoms: O_10  and  C_11
REMARK    7  A    between atoms: C_11  and  C_12
REMARK    8  A    between atoms: C_17  and  N_18
REMARK                            x       y       z     vdW  Elec       q    Type
REMARK                         _______ _______ _______ _____ _____    ______ ____
ROOT
ATOM      1  C   UNL     1      47.248   8.064  12.412  0.00  0.00    +0.000 A 
ATOM      2  C   UNL     1      48.353   7.221  12.577  0.00  0.00    +0.000 A 
ATOM      3  C   UNL     1      49.650   7.713  12.422  0.00  0.00    +0.000 A 
ATOM      4  C   UNL     1      49.866   9.060  12.097  0.00  0.00    +0.000 A 
ATOM      5  C   UNL     1      48.763   9.914  11.977  0.00  0.00    +0.000 A 
ATOM      6  C   UNL     1      47.465   9.421  12.138  0.00  0.00    +0.000 A 
ENDROOT
BRANCH   1   7
ATOM      7  C   UNL     1      45.850   7.520  12.531  0.00  0.00    +0.000 C 
BRANCH   7  10
ATOM      8  O   UNL     1      43.519   6.502  11.434  0.00  0.00    +0.000 OA
ATOM      9  C   UNL     1      44.533   5.811  11.382  0.00  0.00    +0.000 C 
ATOM     10  N   UNL     1      45.733   6.224  11.913  0.00  0.00    +0.000 N 
ATOM     11  H   UNL     1      46.568   5.678  11.777  0.00  0.00    +0.000 HD
BRANCH   9  12
ATOM     12  C   UNL     1      44.542   4.494  10.741  0.00  0.00    +0.000 A 
ATOM     13  C   UNL     1      43.924   3.334  11.185  0.00  0.00    +0.000 A 
ATOM     14  N   UNL     1      44.183   2.329  10.291  0.00  0.00    +0.000 N 
ATOM     15  C   UNL     1      44.959   2.800   9.260  0.00  0.00    +0.000 A 
ATOM     16  C   UNL     1      45.467   2.146   8.139  0.00  0.00    +0.000 A 
ATOM     17  C   UNL     1      46.222   2.944   7.295  0.00  0.00    +0.000 A 
ATOM     18 CL   UNL     1      46.920   2.277   5.875  0.00  0.00    +0.000 Cl
ATOM     19  N   UNL     1      46.480   4.254   7.479  0.00  0.00    +0.000 NA
ATOM     20  C   UNL     1      45.975   4.868   8.578  0.00  0.00    +0.000 A 
ATOM     21  C   UNL     1      45.199   4.153   9.506  0.00  0.00    +0.000 A 
ATOM     22  H   UNL     1      43.849   1.376  10.370  0.00  0.00    +0.000 HD
ENDBRANCH   9  12
ENDBRANCH   7  10
ENDBRANCH   1   7
BRANCH   4  23
ATOM     23  C   UNL     1      51.260   9.550  11.802  0.00  0.00    +0.000 C 
BRANCH  23  24
ATOM     24  O   UNL     1      51.538   9.514  10.397  0.00  0.00    +0.000 OA
BRANCH  24  25
ATOM     25  C   UNL     1      52.859   9.041  10.115  0.00  0.00    +0.000 C 
BRANCH  25  26
ATOM     26  C   UNL     1      52.868   8.309   8.800  0.00  0.00    +0.000 A 
ATOM     27  N   UNL     1      52.817   6.950   8.862  0.00  0.00    +0.000 NA
ATOM     28  C   UNL     1      52.829   6.282   7.693  0.00  0.00    +0.000 A 
ATOM     29  N   UNL     1      52.877   6.837   6.470  0.00  0.00    +0.000 NA
ATOM     30  C   UNL     1      52.927   8.186   6.440  0.00  0.00    +0.000 A 
ATOM     31  C   UNL     1      52.935   8.954   7.580  0.00  0.00    +0.000 A 
BRANCH  31  32
ATOM     32  N   UNL     1      53.079  10.374   7.461  0.00  0.00    +0.000 N 
ATOM     33  O   UNL     1      54.229  10.814   7.338  0.00  0.00    +0.000 OA
ATOM     34  O   UNL     1      52.041  11.047   7.414  0.00  0.00    +0.000 OA
ENDBRANCH  31  32
ENDBRANCH  25  26
ENDBRANCH  24  25
ENDBRANCH  23  24
ENDBRANCH   4  23
TORSDOF 8
ENDMDL
MODEL 8
REMARK VINA RESULT:    -6.559      3.909      5.227
REMARK INTER + INTRA:         -10.340
REMARK INTER:                  -9.344
REMARK INTRA:                  -0.996
REMARK UNBOUND:                -0.713
REMARK  Name = 
REMARK  8 active torsions:
REMARK  status: ('A' for Active; 'I' for Inactive)
REMARK    1  A    between atoms: C_2  and  C_23
REMARK    2  A    between atoms: N_3  and  C_4
REMARK    3  A    between atoms: C_4  and  C_5
REMARK    4  A    between atoms: C_8  and  C_9
REMARK    5  A    between atoms: C_9  and  O_10
REMARK    6  A    between atoms: O_10  and  C_11
REMARK    7  A    between atoms: C_11  and  C_12
REMARK    8  A    between atoms: C_17  and  N_18
REMARK                            x       y       z     vdW  Elec       q    Type
REMARK                         _______ _______ _______ _____ _____    ______ ____
ROOT
ATOM      1  C   UNL     1      45.643   7.063  12.802  0.00  0.00    +0.000 A 
ATOM      2  C   UNL     1      47.000   6.811  13.034  0.00  0.00    +0.000 A 
ATOM      3  C   UNL     1      47.957   7.798  12.787  0.00  0.00    +0.000 A 
ATOM      4  C   UNL     1      47.574   9.056  12.302  0.00  0.00    +0.000 A 
ATOM      5  C   UNL     1      46.212   9.323  12.114  0.00  0.00    +0.000 A 
ATOM      6  C   UNL     1      45.254   8.337  12.365  0.00  0.00    +0.000 A 
ENDROOT
BRANCH   1   7
ATOM      7  C   UNL     1      44.619   5.983  13.021  0.00  0.00    +0.000 C 
BRANCH   7  10
ATOM      8  O   UNL     1      43.299   5.524  10.630  0.00  0.00    +0.000 OA
ATOM      9  C   UNL     1      44.155   4.717  10.982  0.00  0.00    +0.000 C 
ATOM     10  N   UNL     1      44.851   4.852  12.161  0.00  0.00    +0.000 N 
ATOM     11  H   UNL     1      45.610   4.226  12.381  0.00  0.00    +0.000 HD
BRANCH   9  12
ATOM     12  C   UNL     1      44.503   3.551  10.167  0.00  0.00    +0.000 A 
ATOM     13  C   UNL     1      44.133   2.232  10.377  0.00  0.00    +0.000 A 
ATOM     14  N   UNL     1      44.672   1.460   9.382  0.00  0.00    +0.000 N 
ATOM     15  C   UNL     1      45.392   2.243   8.513  0.00  0.00    +0.000 A 
ATOM     16  C   UNL     1      46.110   1.898   7.369  0.00  0.00    +0.000 A 
ATOM     17  C   UNL     1      46.723   2.963   6.728  0.00  0.00    +0.000 A 
ATOM     18 CL   UNL     1      47.650   2.694   5.307  0.00  0.00    +0.000 Cl
ATOM     19  N   UNL     1      46.667   4.250   7.120  0.00  0.00    +0.000 NA
ATOM     20  C   UNL     1      45.962   4.561   8.237  0.00  0.00    +0.000 A 
ATOM     21  C   UNL     1      45.305   3.559   8.970  0.00  0.00    +0.000 A 
ATOM     22  H   UNL     1      44.557   0.458   9.292  0.00  0.00    +0.000 HD
ENDBRANCH   9  12
ENDBRANCH   7  10
ENDBRANCH   1   7
BRANCH   4  23
ATOM     23  C   UNL     1      48.623  10.065  11.915  0.00  0.00    +0.000 C 
BRANCH  23  24
ATOM     24  O   UNL     1      49.924   9.661  12.360  0.00  0.00    +0.000 OA
BRANCH  24  25
ATOM     25  C   UNL     1      50.795   9.338  11.272  0.00  0.00    +0.000 C 
BRANCH  25  26
ATOM     26  C   UNL     1      52.076   8.750  11.802  0.00  0.00    +0.000 A 
ATOM     27  N   UNL     1      52.251   8.796  13.151  0.00  0.00    +0.000 NA
ATOM     28  C   UNL     1      53.393   8.276  13.638  0.00  0.00    +0.000 A 
ATOM     29  N   UNL     1      54.373   7.709  12.914  0.00  0.00    +0.000 NA
ATOM     30  C   UNL     1      54.171   7.679  11.579  0.00  0.00    +0.000 A 
ATOM     31  C   UNL     1      53.044   8.196  10.986  0.00  0.00    +0.000 A 
BRANCH  31  32
ATOM     32  N   UNL     1      52.949   8.203   9.557  0.00  0.00    +0.000 N 
ATOM     33  O   UNL     1      53.422   9.183   8.967  0.00  0.00    +0.000 OA
ATOM     34  O   UNL     1      52.471   7.198   9.016  0.00  0.00    +0.000 OA
ENDBRANCH  31  32
ENDBRANCH  25  26
ENDBRANCH  24  25
ENDBRANCH  23  24
ENDBRANCH   4  23
TORSDOF 8
ENDMDL
MODEL 9
REMARK VINA RESULT:    -6.218      3.738      8.983
REMARK INTER + INTRA:          -9.838
REMARK INTER:                  -8.953
REMARK INTRA:                  -0.886
REMARK UNBOUND:                -0.713
REMARK  Name = 
REMARK  8 active torsions:
REMARK  status: ('A' for Active; 'I' for Inactive)
REMARK    1  A    between atoms: C_2  and  C_23
REMARK    2  A    between atoms: N_3  and  C_4
REMARK    3  A    between atoms: C_4  and  C_5
REMARK    4  A    between atoms: C_8  and  C_9
REMARK    5  A    between atoms: C_9  and  O_10
REMARK    6  A    between atoms: O_10  and  C_11
REMARK    7  A    between atoms: C_11  and  C_12
REMARK    8  A    between atoms: C_17  and  N_18
REMARK                            x       y       z     vdW  Elec       q    Type
REMARK                         _______ _______ _______ _____ _____    ______ ____
ROOT
ATOM      1  C   UNL     1      49.586   8.157  13.196  0.00  0.00    +0.000 A 
ATOM      2  C   UNL     1      48.888   9.221  12.614  0.00  0.00    +0.000 A 
ATOM      3  C   UNL     1      47.535   9.091  12.293  0.00  0.00    +0.000 A 
ATOM      4  C   UNL     1      46.855   7.892  12.549  0.00  0.00    +0.000 A 
ATOM      5  C   UNL     1      47.542   6.843  13.174  0.00  0.00    +0.000 A 
ATOM      6  C   UNL     1      48.895   6.975  13.499  0.00  0.00    +0.000 A 
ENDROOT
BRANCH   1   7
ATOM      7  C   UNL     1      51.056   8.282  13.495  0.00  0.00    +0.000 C 
BRANCH   7  10
ATOM      8  O   UNL     1      50.948   9.432  16.012  0.00  0.00    +0.000 OA
ATOM      9  C   UNL     1      51.306   8.261  15.927  0.00  0.00    +0.000 C 
ATOM     10  N   UNL     1      51.406   7.610  14.719  0.00  0.00    +0.000 N 
ATOM     11  H   UNL     1      51.615   6.625  14.685  0.00  0.00    +0.000 HD
BRANCH   9  12
ATOM     12  C   UNL     1      51.648   7.466  17.108  0.00  0.00    +0.000 A 
ATOM     13  C   UNL     1      52.909   7.237  17.637  0.00  0.00    +0.000 A 
ATOM     14  N   UNL     1      52.783   6.440  18.744  0.00  0.00    +0.000 N 
ATOM     15  C   UNL     1      51.461   6.137  18.961  0.00  0.00    +0.000 A 
ATOM     16  C   UNL     1      50.863   5.361  19.954  0.00  0.00    +0.000 A 
ATOM     17  C   UNL     1      49.484   5.270  19.864  0.00  0.00    +0.000 A 
ATOM     18 CL   UNL     1      48.606   4.343  21.013  0.00  0.00    +0.000 Cl
ATOM     19  N   UNL     1      48.719   5.860  18.925  0.00  0.00    +0.000 NA
ATOM     20  C   UNL     1      49.324   6.609  17.969  0.00  0.00    +0.000 A 
ATOM     21  C   UNL     1      50.721   6.766  17.959  0.00  0.00    +0.000 A 
ATOM     22  H   UNL     1      53.549   6.121  19.325  0.00  0.00    +0.000 HD
ENDBRANCH   9  12
ENDBRANCH   7  10
ENDBRANCH   1   7
BRANCH   4  23
ATOM     23  C   UNL     1      45.434   7.717  12.080  0.00  0.00    +0.000 C 
BRANCH  23  24
ATOM     24  O   UNL     1      45.364   6.840  10.948  0.00  0.00    +0.000 OA
BRANCH  24  25
ATOM     25  C   UNL     1      44.561   5.685  11.203  0.00  0.00    +0.000 C 
BRANCH  25  26
ATOM     26  C   UNL     1      44.901   4.599  10.218  0.00  0.00    +0.000 A 
ATOM     27  N   UNL     1      45.456   5.001   9.041  0.00  0.00    +0.000 NA
ATOM     28  C   UNL     1      45.762   4.040   8.149  0.00  0.00    +0.000 A 
ATOM     29  N   UNL     1      45.578   2.720   8.319  0.00  0.00    +0.000 NA
ATOM     30  C   UNL     1      45.025   2.352   9.495  0.00  0.00    +0.000 A 
ATOM     31  C   UNL     1      44.665   3.260  10.462  0.00  0.00    +0.000 A 
BRANCH  31  32
ATOM     32  N   UNL     1      44.004   2.793  11.644  0.00  0.00    +0.000 N 
ATOM     33  O   UNL     1      42.864   2.332  11.506  0.00  0.00    +0.000 OA
ATOM     34  O   UNL     1      44.650   2.814  12.700  0.00  0.00    +0.000 OA
ENDBRANCH  31  32
ENDBRANCH  25  26
ENDBRANCH  24  25
ENDBRANCH  23  24
ENDBRANCH   4  23
TORSDOF 8
ENDMDL
