MODEL 1
REMARK VINA RESULT:    -8.762      0.000      0.000
REMARK INTER + INTRA:         -12.518
REMARK INTER:                 -11.835
REMARK INTRA:                  -0.683
REMARK UNBOUND:                -0.683
REMARK  Name = 
REMARK  6 active torsions:
REMARK  status: ('A' for Active; 'I' for Inactive)
REMARK    1  A    between atoms: C_2  and  C_4
REMARK    2  A    between atoms: N_8  and  C_9
REMARK    3  A    between atoms: C_9  and  C_10
REMARK    4  A    between atoms: C_10  and  C_11
REMARK    5  A    between atoms: C_15  and  N_16
REMARK    6  A    between atoms: N_16  and  C_17
REMARK                            x       y       z     vdW  Elec       q    Type
REMARK                         _______ _______ _______ _____ _____    ______ ____
ROOT
ATOM      1  C   UNL     1      43.344   4.596  11.100  0.00  0.00    +0.000 C 
ENDROOT
BRANCH   1   6
ATOM      2  C   UNL     1      46.489   2.482   7.732  0.00  0.00    +0.000 A 
ATOM      3  C   UNL     1      45.633   1.869   8.639  0.00  0.00    +0.000 A 
ATOM      4  C   UNL     1      44.712   2.652   9.338  0.00  0.00    +0.000 A 
ATOM      5  C   UNL     1      44.681   4.029   9.137  0.00  0.00    +0.000 A 
ATOM      6  N   UNL     1      43.738   4.860   9.724  0.00  0.00    +0.000 N 
ATOM      7  N   UNL     1      45.534   4.637   8.290  0.00  0.00    +0.000 NA
ATOM      8  C   UNL     1      46.422   3.861   7.611  0.00  0.00    +0.000 A 
ATOM      9  H   UNL     1      44.031   5.814   9.518  0.00  0.00    +0.000 HD
BRANCH   2  11
ATOM     10  N   UNL     1      48.543   2.408   6.440  0.00  0.00    +0.000 N 
ATOM     11  C   UNL     1      47.449   1.727   6.903  0.00  0.00    +0.000 C 
ATOM     12  O   UNL     1      47.299   0.534   6.672  0.00  0.00    +0.000 OA
ATOM     13  H   UNL     1      49.253   1.854   5.976  0.00  0.00    +0.000 HD
ATOM     14  H   UNL     1      48.827   3.299   6.820  0.00  0.00    +0.000 HD
ENDBRANCH   2  11
ENDBRANCH   1   6
BRANCH   1  15
ATOM     15  C   UNL     1      43.652   5.805  11.989  0.00  0.00    +0.000 C 
BRANCH  15  16
ATOM     16  C   UNL     1      45.038   5.712  12.569  0.00  0.00    +0.000 A 
ATOM     17  C   UNL     1      46.034   6.604  12.178  0.00  0.00    +0.000 A 
ATOM     18  N   UNL     1      47.287   6.592  12.670  0.00  0.00    +0.000 NA
ATOM     19  C   UNL     1      47.563   5.644  13.598  0.00  0.00    +0.000 A 
ATOM     20  C   UNL     1      46.644   4.718  14.099  0.00  0.00    +0.000 A 
ATOM     21  C   UNL     1      45.363   4.760  13.546  0.00  0.00    +0.000 A 
BRANCH  20  22
ATOM     22  N   UNL     1      47.037   3.749  15.046  0.00  0.00    +0.000 N 
ATOM     23  H   UNL     1      47.262   2.858  14.604  0.00  0.00    +0.000 HD
BRANCH  22  24
ATOM     24  C   UNL     1      47.850   3.999  16.207  0.00  0.00    +0.000 C 
ATOM     25  C   UNL     1      48.211   2.719  16.995  0.00  0.00    +0.000 C 
ATOM     26  N   UNL     1      47.842   3.415  18.249  0.00  0.00    +0.000 NA
ATOM     27  C   UNL     1      47.022   4.362  17.459  0.00  0.00    +0.000 C 
ATOM     28  H   UNL     1      48.636   3.860  18.711  0.00  0.00    +0.000 HD
ENDBRANCH  22  24
ENDBRANCH  20  22
ENDBRANCH  15  16
ENDBRANCH   1  15
TORSDOF 6
ENDMDL
MODEL 2
REMARK VINA RESULT:    -8.350      1.677      2.846
REMARK INTER + INTRA:         -11.962
REMARK INTER:                 -11.202
REMARK INTRA:                  -0.759
REMARK UNBOUND:                -0.683
REMARK  Name = 
REMARK  6 active torsions:
REMARK  status: ('A' for Active; 'I' for Inactive)
REMARK    1  A    between atoms: C_2  and  C_4
REMARK    2  A    between atoms: N_8  and  C_9
REMARK    3  A    between atoms: C_9  and  C_10
REMARK    4  A    between atoms: C_10  and  C_11
REMARK    5  A    between atoms: C_15  and  N_16
REMARK    6  A    between atoms: N_16  and  C_17
REMARK                            x       y       z     vdW  Elec       q    Type
REMARK                         _______ _______ _______ _____ _____    ______ ____
ROOT
ATOM      1  C   UNL     1      43.229   4.430  10.879  0.00  0.00    +0.000 C 
ENDROOT
BRANCH   1   6
ATOM      2  C   UNL     1      46.656   2.533   7.660  0.00  0.00    +0.000 A 
ATOM      3  C   UNL     1      45.802   1.864   8.529  0.00  0.00    +0.000 A 
ATOM      4  C   UNL     1      44.802   2.583   9.184  0.00  0.00    +0.000 A 
ATOM      5  C   UNL     1      44.687   3.955   8.978  0.00  0.00    +0.000 A 
ATOM      6  N   UNL     1      43.666   4.721   9.521  0.00  0.00    +0.000 N 
ATOM      7  N   UNL     1      45.535   4.620   8.169  0.00  0.00    +0.000 NA
ATOM      8  C   UNL     1      46.501   3.904   7.532  0.00  0.00    +0.000 A 
ATOM      9  H   UNL     1      43.903   5.692   9.326  0.00  0.00    +0.000 HD
BRANCH   2  11
ATOM     10  N   UNL     1      48.633   2.630   6.256  0.00  0.00    +0.000 N 
ATOM     11  C   UNL     1      47.699   1.845   6.876  0.00  0.00    +0.000 C 
ATOM     12  O   UNL     1      47.756   0.623   6.815  0.00  0.00    +0.000 OA
ATOM     13  H   UNL     1      49.411   2.147   5.824  0.00  0.00    +0.000 HD
ATOM     14  H   UNL     1      48.769   3.602   6.495  0.00  0.00    +0.000 HD
ENDBRANCH   2  11
ENDBRANCH   1   6
BRANCH   1  15
ATOM     15  C   UNL     1      43.743   5.499  11.849  0.00  0.00    +0.000 C 
BRANCH  15  16
ATOM     16  C   UNL     1      44.936   5.002  12.620  0.00  0.00    +0.000 A 
ATOM     17  C   UNL     1      45.255   3.647  12.644  0.00  0.00    +0.000 A 
ATOM     18  N   UNL     1      46.318   3.136  13.294  0.00  0.00    +0.000 NA
ATOM     19  C   UNL     1      47.103   4.021  13.955  0.00  0.00    +0.000 A 
ATOM     20  C   UNL     1      46.912   5.405  13.978  0.00  0.00    +0.000 A 
ATOM     21  C   UNL     1      45.789   5.883  13.302  0.00  0.00    +0.000 A 
BRANCH  20  22
ATOM     22  N   UNL     1      47.771   6.241  14.721  0.00  0.00    +0.000 N 
ATOM     23  H   UNL     1      48.042   5.814  15.607  0.00  0.00    +0.000 HD
BRANCH  22  24
ATOM     24  C   UNL     1      48.819   7.062  14.172  0.00  0.00    +0.000 C 
ATOM     25  C   UNL     1      48.353   8.485  13.791  0.00  0.00    +0.000 C 
ATOM     26  N   UNL     1      49.054   8.343  12.494  0.00  0.00    +0.000 NA
ATOM     27  C   UNL     1      49.003   6.870  12.650  0.00  0.00    +0.000 C 
ATOM     28  H   UNL     1      50.005   8.715  12.508  0.00  0.00    +0.000 HD
ENDBRANCH  22  24
ENDBRANCH  20  22
ENDBRANCH  15  16
ENDBRANCH   1  15
TORSDOF 6
ENDMDL
MODEL 3
REMARK VINA RESULT:    -7.748      2.580      3.098
REMARK INTER + INTRA:         -11.148
REMARK INTER:                 -10.324
REMARK INTRA:                  -0.824
REMARK UNBOUND:                -0.683
REMARK  Name = 
REMARK  6 active torsions:
REMARK  status: ('A' for Active; 'I' for Inactive)
REMARK    1  A    between atoms: C_2  and  C_4
REMARK    2  A    between atoms: N_8  and  C_9
REMARK    3  A    between atoms: C_9  and  C_10
REMARK    4  A    between atoms: C_10  and  C_11
REMARK    5  A    between atoms: C_15  and  N_16
REMARK    6  A    between atoms: N_16  and  C_17
REMARK                            x       y       z     vdW  Elec       q    Type
REMARK                         _______ _______ _______ _____ _____    ______ ____
ROOT
ATOM      1  C   UNL     1      43.237   3.454  11.212  0.00  0.00    +0.000 C 
ENDROOT
BRANCH   1   6
ATOM      2  C   UNL     1      46.471   2.829   7.359  0.00  0.00    +0.000 A 
ATOM      3  C   UNL     1      45.946   4.004   7.883  0.00  0.00    +0.000 A 
ATOM      4  C   UNL     1      45.221   3.951   9.074  0.00  0.00    +0.000 A 
ATOM      5  C   UNL     1      45.015   2.727   9.705  0.00  0.00    +0.000 A 
ATOM      6  N   UNL     1      44.385   2.604  10.935  0.00  0.00    +0.000 N 
ATOM      7  N   UNL     1      45.486   1.577   9.184  0.00  0.00    +0.000 NA
ATOM      8  C   UNL     1      46.197   1.646   8.025  0.00  0.00    +0.000 A 
ATOM      9  H   UNL     1      44.251   1.606  11.088  0.00  0.00    +0.000 HD
BRANCH   2  11
ATOM     10  N   UNL     1      48.612   2.420   6.289  0.00  0.00    +0.000 N 
ATOM     11  C   UNL     1      47.305   2.799   6.141  0.00  0.00    +0.000 C 
ATOM     12  O   UNL     1      46.840   3.059   5.038  0.00  0.00    +0.000 OA
ATOM     13  H   UNL     1      49.140   2.285   5.436  0.00  0.00    +0.000 HD
ATOM     14  H   UNL     1      48.951   1.956   7.120  0.00  0.00    +0.000 HD
ENDBRANCH   2  11
ENDBRANCH   1   6
BRANCH   1  15
ATOM     15  C   UNL     1      43.407   4.167  12.557  0.00  0.00    +0.000 C 
BRANCH  15  16
ATOM     16  C   UNL     1      44.141   5.470  12.390  0.00  0.00    +0.000 A 
ATOM     17  C   UNL     1      43.721   6.408  11.450  0.00  0.00    +0.000 A 
ATOM     18  N   UNL     1      44.317   7.601  11.263  0.00  0.00    +0.000 NA
ATOM     19  C   UNL     1      45.385   7.874  12.050  0.00  0.00    +0.000 A 
ATOM     20  C   UNL     1      45.881   7.034  13.051  0.00  0.00    +0.000 A 
ATOM     21  C   UNL     1      45.240   5.803  13.197  0.00  0.00    +0.000 A 
BRANCH  20  22
ATOM     22  N   UNL     1      47.020   7.397  13.800  0.00  0.00    +0.000 N 
ATOM     23  H   UNL     1      46.770   7.734  14.729  0.00  0.00    +0.000 HD
BRANCH  22  24
ATOM     24  C   UNL     1      48.278   6.696  13.798  0.00  0.00    +0.000 C 
ATOM     25  C   UNL     1      49.357   7.362  14.682  0.00  0.00    +0.000 C 
ATOM     26  N   UNL     1      50.327   7.208  13.573  0.00  0.00    +0.000 NA
ATOM     27  C   UNL     1      49.195   7.103  12.623  0.00  0.00    +0.000 C 
ATOM     28  H   UNL     1      50.878   6.352  13.637  0.00  0.00    +0.000 HD
ENDBRANCH  22  24
ENDBRANCH  20  22
ENDBRANCH  15  16
ENDBRANCH   1  15
TORSDOF 6
ENDMDL
MODEL 4
REMARK VINA RESULT:    -7.607      2.294      4.021
REMARK INTER + INTRA:         -10.958
REMARK INTER:                 -10.261
REMARK INTRA:                  -0.697
REMARK UNBOUND:                -0.683
REMARK  Name = 
REMARK  6 active torsions:
REMARK  status: ('A' for Active; 'I' for Inactive)
REMARK    1  A    between atoms: C_2  and  C_4
REMARK    2  A    between atoms: N_8  and  C_9
REMARK    3  A    between atoms: C_9  and  C_10
REMARK    4  A    between atoms: C_10  and  C_11
REMARK    5  A    between atoms: C_15  and  N_16
REMARK    6  A    between atoms: N_16  and  C_17
REMARK                            x       y       z     vdW  Elec       q    Type
REMARK                         _______ _______ _______ _____ _____    ______ ____
ROOT
ATOM      1  C   UNL     1      43.971   4.791  11.413  0.00  0.00    +0.000 C 
ENDROOT
BRANCH   1   6
ATOM      2  C   UNL     1      46.522   2.540   7.655  0.00  0.00    +0.000 A 
ATOM      3  C   UNL     1      45.758   1.967   8.665  0.00  0.00    +0.000 A 
ATOM      4  C   UNL     1      44.984   2.792   9.481  0.00  0.00    +0.000 A 
ATOM      5  C   UNL     1      45.005   4.172   9.290  0.00  0.00    +0.000 A 
ATOM      6  N   UNL     1      44.195   5.048   9.998  0.00  0.00    +0.000 N 
ATOM      7  N   UNL     1      45.772   4.740   8.340  0.00  0.00    +0.000 NA
ATOM      8  C   UNL     1      46.517   3.922   7.547  0.00  0.00    +0.000 A 
ATOM      9  H   UNL     1      44.512   5.986   9.758  0.00  0.00    +0.000 HD
BRANCH   2  11
ATOM     10  N   UNL     1      48.342   2.381   6.057  0.00  0.00    +0.000 N 
ATOM     11  C   UNL     1      47.319   1.742   6.704  0.00  0.00    +0.000 C 
ATOM     12  O   UNL     1      47.107   0.548   6.531  0.00  0.00    +0.000 OA
ATOM     13  H   UNL     1      48.957   1.799   5.502  0.00  0.00    +0.000 HD
ATOM     14  H   UNL     1      48.704   3.273   6.364  0.00  0.00    +0.000 HD
ENDBRANCH   2  11
ENDBRANCH   1   6
BRANCH   1  15
ATOM     15  C   UNL     1      44.259   6.049  12.240  0.00  0.00    +0.000 C 
BRANCH  15  16
ATOM     16  C   UNL     1      45.730   6.181  12.532  0.00  0.00    +0.000 A 
ATOM     17  C   UNL     1      46.349   5.346  13.459  0.00  0.00    +0.000 A 
ATOM     18  N   UNL     1      47.662   5.394  13.753  0.00  0.00    +0.000 NA
ATOM     19  C   UNL     1      48.396   6.321  13.091  0.00  0.00    +0.000 A 
ATOM     20  C   UNL     1      47.902   7.190  12.115  0.00  0.00    +0.000 A 
ATOM     21  C   UNL     1      46.532   7.113  11.857  0.00  0.00    +0.000 A 
BRANCH  20  22
ATOM     22  N   UNL     1      48.743   8.143  11.503  0.00  0.00    +0.000 N 
ATOM     23  H   UNL     1      48.251   9.016  11.313  0.00  0.00    +0.000 HD
BRANCH  22  24
ATOM     24  C   UNL     1      50.130   8.361  11.823  0.00  0.00    +0.000 C 
ATOM     25  C   UNL     1      50.695   9.681  11.252  0.00  0.00    +0.000 C 
ATOM     26  N   UNL     1      51.882   8.937  10.771  0.00  0.00    +0.000 NA
ATOM     27  C   UNL     1      51.094   7.684  10.825  0.00  0.00    +0.000 C 
ATOM     28  H   UNL     1      52.660   8.951  11.431  0.00  0.00    +0.000 HD
ENDBRANCH  22  24
ENDBRANCH  20  22
ENDBRANCH  15  16
ENDBRANCH   1  15
TORSDOF 6
ENDMDL
MODEL 5
REMARK VINA RESULT:    -7.363      3.099      8.216
REMARK INTER + INTRA:         -10.629
REMARK INTER:                 -10.148
REMARK INTRA:                  -0.480
REMARK UNBOUND:                -0.683
REMARK  Name = 
REMARK  6 active torsions:
REMARK  status: ('A' for Active; 'I' for Inactive)
REMARK    1  A    between atoms: C_2  and  C_4
REMARK    2  A    between atoms: N_8  and  C_9
REMARK    3  A    between atoms: C_9  and  C_10
REMARK    4  A    between atoms: C_10  and  C_11
REMARK    5  A    between atoms: C_15  and  N_16
REMARK    6  A    between atoms: N_16  and  C_17
REMARK                            x       y       z     vdW  Elec       q    Type
REMARK                         _______ _______ _______ _____ _____    ______ ____
ROOT
ATOM      1  C   UNL     1      45.508   5.668  12.820  0.00  0.00    +0.000 C 
ENDROOT
BRANCH   1   6
ATOM      2  C   UNL     1      48.476   4.601  16.788  0.00  0.00    +0.000 A 
ATOM      3  C   UNL     1      47.429   3.861  16.250  0.00  0.00    +0.000 A 
ATOM      4  C   UNL     1      46.875   4.257  15.033  0.00  0.00    +0.000 A 
ATOM      5  C   UNL     1      47.359   5.394  14.389  0.00  0.00    +0.000 A 
ATOM      6  N   UNL     1      46.923   5.798  13.135  0.00  0.00    +0.000 N 
ATOM      7  N   UNL     1      48.345   6.139  14.922  0.00  0.00    +0.000 NA
ATOM      8  C   UNL     1      48.881   5.737  16.107  0.00  0.00    +0.000 A 
ATOM      9  H   UNL     1      47.335   6.716  12.973  0.00  0.00    +0.000 HD
BRANCH   2  11
ATOM     10  N   UNL     1      49.745   2.980  18.075  0.00  0.00    +0.000 N 
ATOM     11  C   UNL     1      49.165   4.220  18.037  0.00  0.00    +0.000 C 
ATOM     12  O   UNL     1      49.254   4.992  18.983  0.00  0.00    +0.000 OA
ATOM     13  H   UNL     1      50.317   2.777  18.886  0.00  0.00    +0.000 HD
ATOM     14  H   UNL     1      49.915   2.435  17.242  0.00  0.00    +0.000 HD
ENDBRANCH   2  11
ENDBRANCH   1   6
BRANCH   1  15
ATOM     15  C   UNL     1      45.250   6.021  11.351  0.00  0.00    +0.000 C 
BRANCH  15  16
ATOM     16  C   UNL     1      45.005   4.783  10.531  0.00  0.00    +0.000 A 
ATOM     17  C   UNL     1      44.224   3.742  11.029  0.00  0.00    +0.000 A 
ATOM     18  N   UNL     1      43.946   2.618  10.343  0.00  0.00    +0.000 NA
ATOM     19  C   UNL     1      44.473   2.523   9.098  0.00  0.00    +0.000 A 
ATOM     20  C   UNL     1      45.240   3.510   8.474  0.00  0.00    +0.000 A 
ATOM     21  C   UNL     1      45.514   4.650   9.230  0.00  0.00    +0.000 A 
BRANCH  20  22
ATOM     22  N   UNL     1      45.770   3.304   7.182  0.00  0.00    +0.000 N 
ATOM     23  H   UNL     1      45.296   3.876   6.483  0.00  0.00    +0.000 HD
BRANCH  22  24
ATOM     24  C   UNL     1      47.163   3.113   6.872  0.00  0.00    +0.000 C 
ATOM     25  C   UNL     1      47.427   2.818   5.378  0.00  0.00    +0.000 C 
ATOM     26  N   UNL     1      48.319   1.706   5.779  0.00  0.00    +0.000 NA
ATOM     27  C   UNL     1      47.638   1.661   7.094  0.00  0.00    +0.000 C 
ATOM     28  H   UNL     1      49.300   1.981   5.844  0.00  0.00    +0.000 HD
ENDBRANCH  22  24
ENDBRANCH  20  22
ENDBRANCH  15  16
ENDBRANCH   1  15
TORSDOF 6
ENDMDL
MODEL 6
REMARK VINA RESULT:    -6.884      3.797      7.591
REMARK INTER + INTRA:          -9.982
REMARK INTER:                  -9.353
REMARK INTRA:                  -0.629
REMARK UNBOUND:                -0.683
REMARK  Name = 
REMARK  6 active torsions:
REMARK  status: ('A' for Active; 'I' for Inactive)
REMARK    1  A    between atoms: C_2  and  C_4
REMARK    2  A    between atoms: N_8  and  C_9
REMARK    3  A    between atoms: C_9  and  C_10
REMARK    4  A    between atoms: C_10  and  C_11
REMARK    5  A    between atoms: C_15  and  N_16
REMARK    6  A    between atoms: N_16  and  C_17
REMARK                            x       y       z     vdW  Elec       q    Type
REMARK                         _______ _______ _______ _____ _____    ______ ____
ROOT
ATOM      1  C   UNL     1      44.699   6.022  12.650  0.00  0.00    +0.000 C 
ENDROOT
BRANCH   1   6
ATOM      2  C   UNL     1      49.225   8.305  12.613  0.00  0.00    +0.000 A 
ATOM      3  C   UNL     1      48.696   7.389  11.711  0.00  0.00    +0.000 A 
ATOM      4  C   UNL     1      47.349   7.038  11.813  0.00  0.00    +0.000 A 
ATOM      5  C   UNL     1      46.565   7.587  12.825  0.00  0.00    +0.000 A 
ATOM      6  N   UNL     1      45.202   7.358  12.936  0.00  0.00    +0.000 N 
ATOM      7  N   UNL     1      47.079   8.445  13.727  0.00  0.00    +0.000 NA
ATOM      8  C   UNL     1      48.392   8.783  13.611  0.00  0.00    +0.000 A 
ATOM      9  H   UNL     1      44.917   7.762  13.827  0.00  0.00    +0.000 HD
BRANCH   2  11
ATOM     10  N   UNL     1      51.569   8.038  13.186  0.00  0.00    +0.000 N 
ATOM     11  C   UNL     1      50.619   8.784  12.541  0.00  0.00    +0.000 C 
ATOM     12  O   UNL     1      50.924   9.780  11.897  0.00  0.00    +0.000 OA
ATOM     13  H   UNL     1      52.533   8.306  13.030  0.00  0.00    +0.000 HD
ATOM     14  H   UNL     1      51.397   7.093  13.497  0.00  0.00    +0.000 HD
ENDBRANCH   2  11
ENDBRANCH   1   6
BRANCH   1  15
ATOM     15  C   UNL     1      43.935   6.008  11.322  0.00  0.00    +0.000 C 
BRANCH  15  16
ATOM     16  C   UNL     1      44.265   4.779  10.519  0.00  0.00    +0.000 A 
ATOM     17  C   UNL     1      43.699   3.547  10.838  0.00  0.00    +0.000 A 
ATOM     18  N   UNL     1      43.933   2.413  10.152  0.00  0.00    +0.000 NA
ATOM     19  C   UNL     1      44.774   2.509   9.094  0.00  0.00    +0.000 A 
ATOM     20  C   UNL     1      45.376   3.690   8.651  0.00  0.00    +0.000 A 
ATOM     21  C   UNL     1      45.115   4.835   9.404  0.00  0.00    +0.000 A 
BRANCH  20  22
ATOM     22  N   UNL     1      46.262   3.682   7.554  0.00  0.00    +0.000 N 
ATOM     23  H   UNL     1      47.050   4.312   7.699  0.00  0.00    +0.000 HD
BRANCH  22  24
ATOM     24  C   UNL     1      46.632   2.520   6.787  0.00  0.00    +0.000 C 
ATOM     25  C   UNL     1      48.109   2.104   6.970  0.00  0.00    +0.000 C 
ATOM     26  N   UNL     1      48.228   1.966   5.500  0.00  0.00    +0.000 NA
ATOM     27  C   UNL     1      47.056   2.859   5.341  0.00  0.00    +0.000 C 
ATOM     28  H   UNL     1      48.055   1.016   5.170  0.00  0.00    +0.000 HD
ENDBRANCH  22  24
ENDBRANCH  20  22
ENDBRANCH  15  16
ENDBRANCH   1  15
TORSDOF 6
ENDMDL
MODEL 7
REMARK VINA RESULT:    -6.883      2.576      4.762
REMARK INTER + INTRA:          -9.980
REMARK INTER:                  -9.414
REMARK INTRA:                  -0.566
REMARK UNBOUND:                -0.683
REMARK  Name = 
REMARK  6 active torsions:
REMARK  status: ('A' for Active; 'I' for Inactive)
REMARK    1  A    between atoms: C_2  and  C_4
REMARK    2  A    between atoms: N_8  and  C_9
REMARK    3  A    between atoms: C_9  and  C_10
REMARK    4  A    between atoms: C_10  and  C_11
REMARK    5  A    between atoms: C_15  and  N_16
REMARK    6  A    between atoms: N_16  and  C_17
REMARK                            x       y       z     vdW  Elec       q    Type
REMARK                         _______ _______ _______ _____ _____    ______ ____
ROOT
ATOM      1  C   UNL     1      43.310   4.297  11.124  0.00  0.00    +0.000 C 
ENDROOT
BRANCH   1   6
ATOM      2  C   UNL     1      46.450   3.003   7.360  0.00  0.00    +0.000 A 
ATOM      3  C   UNL     1      46.127   4.267   7.839  0.00  0.00    +0.000 A 
ATOM      4  C   UNL     1      45.385   4.377   9.016  0.00  0.00    +0.000 A 
ATOM      5  C   UNL     1      44.960   3.227   9.676  0.00  0.00    +0.000 A 
ATOM      6  N   UNL     1      44.298   3.254  10.896  0.00  0.00    +0.000 N 
ATOM      7  N   UNL     1      45.234   1.998   9.198  0.00  0.00    +0.000 NA
ATOM      8  C   UNL     1      45.964   1.906   8.054  0.00  0.00    +0.000 A 
ATOM      9  H   UNL     1      43.991   2.299  11.074  0.00  0.00    +0.000 HD
BRANCH   2  11
ATOM     10  N   UNL     1      48.617   2.552   6.364  0.00  0.00    +0.000 N 
ATOM     11  C   UNL     1      47.285   2.791   6.162  0.00  0.00    +0.000 C 
ATOM     12  O   UNL     1      46.803   2.787   5.036  0.00  0.00    +0.000 OA
ATOM     13  H   UNL     1      49.156   2.288   5.548  0.00  0.00    +0.000 HD
ATOM     14  H   UNL     1      48.990   2.293   7.267  0.00  0.00    +0.000 HD
ENDBRANCH   2  11
ENDBRANCH   1   6
BRANCH   1  15
ATOM     15  C   UNL     1      43.367   4.784  12.575  0.00  0.00    +0.000 C 
BRANCH  15  16
ATOM     16  C   UNL     1      44.477   5.783  12.767  0.00  0.00    +0.000 A 
ATOM     17  C   UNL     1      45.772   5.362  13.055  0.00  0.00    +0.000 A 
ATOM     18  N   UNL     1      46.815   6.198  13.217  0.00  0.00    +0.000 NA
ATOM     19  C   UNL     1      46.554   7.521  13.089  0.00  0.00    +0.000 A 
ATOM     20  C   UNL     1      45.309   8.067  12.768  0.00  0.00    +0.000 A 
ATOM     21  C   UNL     1      44.257   7.161  12.624  0.00  0.00    +0.000 A 
BRANCH  20  22
ATOM     22  N   UNL     1      45.131   9.464  12.686  0.00  0.00    +0.000 N 
ATOM     23  H   UNL     1      45.399   9.932  13.551  0.00  0.00    +0.000 HD
BRANCH  22  24
ATOM     24  C   UNL     1      45.403  10.273  11.526  0.00  0.00    +0.000 C 
ATOM     25  C   UNL     1      46.174  11.574  11.847  0.00  0.00    +0.000 C 
ATOM     26  N   UNL     1      45.219  12.322  10.998  0.00  0.00    +0.000 NA
ATOM     27  C   UNL     1      44.240  11.223  11.164  0.00  0.00    +0.000 C 
ATOM     28  H   UNL     1      45.538  12.433  10.035  0.00  0.00    +0.000 HD
ENDBRANCH  22  24
ENDBRANCH  20  22
ENDBRANCH  15  16
ENDBRANCH   1  15
TORSDOF 6
ENDMDL
MODEL 8
REMARK VINA RESULT:    -6.772      3.572      8.646
REMARK INTER + INTRA:          -9.831
REMARK INTER:                  -9.346
REMARK INTRA:                  -0.485
REMARK UNBOUND:                -0.683
REMARK  Name = 
REMARK  6 active torsions:
REMARK  status: ('A' for Active; 'I' for Inactive)
REMARK    1  A    between atoms: C_2  and  C_4
REMARK    2  A    between atoms: N_8  and  C_9
REMARK    3  A    between atoms: C_9  and  C_10
REMARK    4  A    between atoms: C_10  and  C_11
REMARK    5  A    between atoms: C_15  and  N_16
REMARK    6  A    between atoms: N_16  and  C_17
REMARK                            x       y       z     vdW  Elec       q    Type
REMARK                         _______ _______ _______ _____ _____    ______ ____
ROOT
ATOM      1  C   UNL     1      47.290   4.724  13.939  0.00  0.00    +0.000 C 
ENDROOT
BRANCH   1   6
ATOM      2  C   UNL     1      48.608   4.334  18.819  0.00  0.00    +0.000 A 
ATOM      3  C   UNL     1      48.657   5.442  17.981  0.00  0.00    +0.000 A 
ATOM      4  C   UNL     1      48.059   5.368  16.723  0.00  0.00    +0.000 A 
ATOM      5  C   UNL     1      47.446   4.186  16.316  0.00  0.00    +0.000 A 
ATOM      6  N   UNL     1      46.754   4.064  15.120  0.00  0.00    +0.000 N 
ATOM      7  N   UNL     1      47.428   3.094  17.104  0.00  0.00    +0.000 NA
ATOM      8  C   UNL     1      48.009   3.183  18.332  0.00  0.00    +0.000 A 
ATOM      9  H   UNL     1      46.534   3.074  15.018  0.00  0.00    +0.000 HD
BRANCH   2  11
ATOM     10  N   UNL     1      50.509   4.498  20.319  0.00  0.00    +0.000 N 
ATOM     11  C   UNL     1      49.155   4.342  20.190  0.00  0.00    +0.000 C 
ATOM     12  O   UNL     1      48.428   4.257  21.171  0.00  0.00    +0.000 OA
ATOM     13  H   UNL     1      50.858   4.624  21.261  0.00  0.00    +0.000 HD
ATOM     14  H   UNL     1      51.091   4.827  19.563  0.00  0.00    +0.000 HD
ENDBRANCH   2  11
ENDBRANCH   1   6
BRANCH   1  15
ATOM     15  C   UNL     1      46.299   5.767  13.410  0.00  0.00    +0.000 C 
BRANCH  15  16
ATOM     16  C   UNL     1      45.142   5.108  12.710  0.00  0.00    +0.000 A 
ATOM     17  C   UNL     1      43.843   5.583  12.879  0.00  0.00    +0.000 A 
ATOM     18  N   UNL     1      42.766   5.056  12.268  0.00  0.00    +0.000 NA
ATOM     19  C   UNL     1      42.992   4.002  11.447  0.00  0.00    +0.000 A 
ATOM     20  C   UNL     1      44.247   3.457  11.166  0.00  0.00    +0.000 A 
ATOM     21  C   UNL     1      45.331   4.027  11.836  0.00  0.00    +0.000 A 
BRANCH  20  22
ATOM     22  N   UNL     1      44.376   2.337  10.318  0.00  0.00    +0.000 N 
ATOM     23  H   UNL     1      43.776   1.567  10.613  0.00  0.00    +0.000 HD
BRANCH  22  24
ATOM     24  C   UNL     1      44.528   2.387   8.887  0.00  0.00    +0.000 C 
ATOM     25  C   UNL     1      45.884   1.835   8.391  0.00  0.00    +0.000 C 
ATOM     26  N   UNL     1      46.022   3.022   7.517  0.00  0.00    +0.000 NA
ATOM     27  C   UNL     1      45.061   3.746   8.382  0.00  0.00    +0.000 C 
ATOM     28  H   UNL     1      45.672   2.868   6.570  0.00  0.00    +0.000 HD
ENDBRANCH  22  24
ENDBRANCH  20  22
ENDBRANCH  15  16
ENDBRANCH   1  15
TORSDOF 6
ENDMDL
MODEL 9
REMARK VINA RESULT:    -6.339      3.160      4.954
REMARK INTER + INTRA:          -9.245
REMARK INTER:                  -8.291
REMARK INTRA:                  -0.954
REMARK UNBOUND:                -0.683
REMARK  Name = 
REMARK  6 active torsions:
REMARK  status: ('A' for Active; 'I' for Inactive)
REMARK    1  A    between atoms: C_2  and  C_4
REMARK    2  A    between atoms: N_8  and  C_9
REMARK    3  A    between atoms: C_9  and  C_10
REMARK    4  A    between atoms: C_10  and  C_11
REMARK    5  A    between atoms: C_15  and  N_16
REMARK    6  A    between atoms: N_16  and  C_17
REMARK                            x       y       z     vdW  Elec       q    Type
REMARK                         _______ _______ _______ _____ _____    ______ ____
ROOT
ATOM      1  C   UNL     1      49.139   7.228  12.846  0.00  0.00    +0.000 C 
ENDROOT
BRANCH   1   6
ATOM      2  C   UNL     1      44.961   4.487  11.991  0.00  0.00    +0.000 A 
ATOM      3  C   UNL     1      45.681   4.646  13.169  0.00  0.00    +0.000 A 
ATOM      4  C   UNL     1      46.692   5.607  13.221  0.00  0.00    +0.000 A 
ATOM      5  C   UNL     1      46.980   6.370  12.093  0.00  0.00    +0.000 A 
ATOM      6  N   UNL     1      47.906   7.403  12.093  0.00  0.00    +0.000 N 
ATOM      7  N   UNL     1      46.315   6.195  10.935  0.00  0.00    +0.000 NA
ATOM      8  C   UNL     1      45.327   5.260  10.901  0.00  0.00    +0.000 A 
ATOM      9  H   UNL     1      48.013   7.690  11.121  0.00  0.00    +0.000 HD
BRANCH   2  11
ATOM     10  N   UNL     1      43.879   2.411  12.632  0.00  0.00    +0.000 N 
ATOM     11  C   UNL     1      43.833   3.544  11.865  0.00  0.00    +0.000 C 
ATOM     12  O   UNL     1      42.876   3.781  11.140  0.00  0.00    +0.000 OA
ATOM     13  H   UNL     1      43.048   1.833  12.630  0.00  0.00    +0.000 HD
ATOM     14  H   UNL     1      44.507   2.313  13.417  0.00  0.00    +0.000 HD
ENDBRANCH   2  11
ENDBRANCH   1   6
BRANCH   1  15
ATOM     15  C   UNL     1      49.393   8.437  13.752  0.00  0.00    +0.000 C 
BRANCH  15  16
ATOM     16  C   UNL     1      49.134   8.097  15.195  0.00  0.00    +0.000 A 
ATOM     17  C   UNL     1      48.692   9.070  16.088  0.00  0.00    +0.000 A 
ATOM     18  N   UNL     1      48.421   8.832  17.385  0.00  0.00    +0.000 NA
ATOM     19  C   UNL     1      48.601   7.560  17.816  0.00  0.00    +0.000 A 
ATOM     20  C   UNL     1      49.005   6.489  17.014  0.00  0.00    +0.000 A 
ATOM     21  C   UNL     1      49.288   6.790  15.681  0.00  0.00    +0.000 A 
BRANCH  20  22
ATOM     22  N   UNL     1      49.193   5.204  17.564  0.00  0.00    +0.000 N 
ATOM     23  H   UNL     1      49.278   5.236  18.580  0.00  0.00    +0.000 HD
BRANCH  22  24
ATOM     24  C   UNL     1      48.547   4.000  17.111  0.00  0.00    +0.000 C 
ATOM     25  C   UNL     1      47.029   4.167  16.869  0.00  0.00    +0.000 C 
ATOM     26  N   UNL     1      46.795   2.908  17.613  0.00  0.00    +0.000 NA
ATOM     27  C   UNL     1      48.113   3.073  18.268  0.00  0.00    +0.000 C 
ATOM     28  H   UNL     1      46.748   2.086  17.009  0.00  0.00    +0.000 HD
ENDBRANCH  22  24
ENDBRANCH  20  22
ENDBRANCH  15  16
ENDBRANCH   1  15
TORSDOF 6
ENDMDL
