MODEL 1
REMARK VINA RESULT:    -8.583      0.000      0.000
REMARK INTER + INTRA:         -12.411
REMARK INTER:                 -11.593
REMARK INTRA:                  -0.818
REMARK UNBOUND:                -0.818
REMARK  Name = 
REMARK  7 active torsions:
REMARK  status: ('A' for Active; 'I' for Inactive)
REMARK    1  A    between atoms: C_1  and  N_2
REMARK    2  A    between atoms: N_2  and  C_3
REMARK    3  A    between atoms: C_3  and  C_4
REMARK    4  A    between atoms: C_8  and  C_9
REMARK    5  A    between atoms: C_9  and  N_10
REMARK    6  A    between atoms: C_11  and  C_13
REMARK    7  A    between atoms: C_24  and  C_26
REMARK                            x       y       z     vdW  Elec       q    Type
REMARK                         _______ _______ _______ _____ _____    ______ ____
ROOT
ATOM      1  C   UNL     1      46.600   4.417  13.580  0.00  0.00    +0.000 A 
ATOM      2  C   UNL     1      47.216   5.640  13.349  0.00  0.00    +0.000 A 
ATOM      3  C   UNL     1      47.927   6.234  14.387  0.00  0.00    +0.000 A 
ATOM      4  C   UNL     1      48.003   5.596  15.624  0.00  0.00    +0.000 A 
ATOM      5  C   UNL     1      47.354   4.377  15.788  0.00  0.00    +0.000 A 
ATOM      6  N   UNL     1      46.662   3.787  14.783  0.00  0.00    +0.000 NA
ENDROOT
BRANCH   1   7
ATOM      7  C   UNL     1      45.840   3.706  12.482  0.00  0.00    +0.000 C 
BRANCH   7   9
ATOM      8  C   UNL     1      43.753   5.045  12.965  0.00  0.00    +0.000 C 
ATOM      9  N   UNL     1      44.563   4.278  12.023  0.00  0.00    +0.000 N 
ATOM     10  C   UNL     1      44.166   4.344  10.679  0.00  0.00    +0.000 C 
ATOM     11  O   UNL     1      43.205   5.029  10.321  0.00  0.00    +0.000 OA
BRANCH  10  12
ATOM     12  C   UNL     1      44.905   3.632   9.595  0.00  0.00    +0.000 A 
ATOM     13  C   UNL     1      44.926   2.247   9.449  0.00  0.00    +0.000 A 
ATOM     14  C   UNL     1      45.672   1.704   8.417  0.00  0.00    +0.000 A 
ATOM     15  N   UNL     1      46.331   2.438   7.499  0.00  0.00    +0.000 NA
ATOM     16  C   UNL     1      46.224   3.779   7.605  0.00  0.00    +0.000 A 
ATOM     17  C   UNL     1      45.541   4.415   8.625  0.00  0.00    +0.000 A 
ENDBRANCH  10  12
ENDBRANCH   7   9
ENDBRANCH   1   7
BRANCH   5  18
ATOM     18  C   UNL     1      47.433   3.635  17.100  0.00  0.00    +0.000 C 
BRANCH  18  19
ATOM     19  N   UNL     1      48.799   3.386  17.508  0.00  0.00    +0.000 N 
ATOM     20  C   UNL     1      49.584   2.437  16.913  0.00  0.00    +0.000 C 
ATOM     21  O   UNL     1      49.163   1.721  16.008  0.00  0.00    +0.000 OA
ATOM     22  H   UNL     1      49.086   3.810  18.386  0.00  0.00    +0.000 HD
BRANCH  20  23
ATOM     23  C   UNL     1      50.983   2.361  17.361  0.00  0.00    +0.000 A 
ATOM     24  C   UNL     1      51.603   1.120  17.448  0.00  0.00    +0.000 A 
ATOM     25  S   UNL     1      53.236   1.200  17.929  0.00  0.00    +0.000 S 
ATOM     26  C   UNL     1      53.162   2.893  18.087  0.00  0.00    +0.000 A 
ATOM     27  N   UNL     1      54.248   3.600  18.498  0.00  0.00    +0.000 NA
ATOM     28  C   UNL     1      54.047   4.874  18.605  0.00  0.00    +0.000 A 
ATOM     29  N   UNL     1      52.859   5.498  18.328  0.00  0.00    +0.000 N 
ATOM     30  C   UNL     1      51.751   4.831  17.861  0.00  0.00    +0.000 A 
ATOM     31  O   UNL     1      50.731   5.433  17.546  0.00  0.00    +0.000 OA
ATOM     32  C   UNL     1      51.915   3.392  17.753  0.00  0.00    +0.000 A 
ATOM     33  H   UNL     1      52.771   6.499  18.414  0.00  0.00    +0.000 HD
ENDBRANCH  20  23
ENDBRANCH  18  19
ENDBRANCH   5  18
TORSDOF 6
ENDMDL
MODEL 2
REMARK VINA RESULT:    -8.498      1.982      2.974
REMARK INTER + INTRA:         -12.297
REMARK INTER:                 -12.261
REMARK INTRA:                  -0.036
REMARK UNBOUND:                -0.818
REMARK  Name = 
REMARK  7 active torsions:
REMARK  status: ('A' for Active; 'I' for Inactive)
REMARK    1  A    between atoms: C_1  and  N_2
REMARK    2  A    between atoms: N_2  and  C_3
REMARK    3  A    between atoms: C_3  and  C_4
REMARK    4  A    between atoms: C_8  and  C_9
REMARK    5  A    between atoms: C_9  and  N_10
REMARK    6  A    between atoms: C_11  and  C_13
REMARK    7  A    between atoms: C_24  and  C_26
REMARK                            x       y       z     vdW  Elec       q    Type
REMARK                         _______ _______ _______ _____ _____    ______ ____
ROOT
ATOM      1  C   UNL     1      45.810   5.419  11.245  0.00  0.00    +0.000 A 
ATOM      2  C   UNL     1      46.598   6.556  11.123  0.00  0.00    +0.000 A 
ATOM      3  C   UNL     1      47.340   6.973  12.224  0.00  0.00    +0.000 A 
ATOM      4  C   UNL     1      47.276   6.249  13.413  0.00  0.00    +0.000 A 
ATOM      5  C   UNL     1      46.458   5.125  13.467  0.00  0.00    +0.000 A 
ATOM      6  N   UNL     1      45.733   4.707  12.401  0.00  0.00    +0.000 NA
ENDROOT
BRANCH   1   7
ATOM      7  C   UNL     1      45.005   4.898  10.074  0.00  0.00    +0.000 C 
BRANCH   7   9
ATOM      8  C   UNL     1      43.259   3.396  11.112  0.00  0.00    +0.000 C 
ATOM      9  N   UNL     1      44.374   3.572  10.187  0.00  0.00    +0.000 N 
ATOM     10  C   UNL     1      44.608   2.509   9.301  0.00  0.00    +0.000 C 
ATOM     11  O   UNL     1      43.895   1.502   9.295  0.00  0.00    +0.000 OA
BRANCH  10  12
ATOM     12  C   UNL     1      45.699   2.548   8.282  0.00  0.00    +0.000 A 
ATOM     13  C   UNL     1      46.096   3.702   7.613  0.00  0.00    +0.000 A 
ATOM     14  C   UNL     1      47.102   3.603   6.668  0.00  0.00    +0.000 A 
ATOM     15  N   UNL     1      47.772   2.465   6.400  0.00  0.00    +0.000 NA
ATOM     16  C   UNL     1      47.433   1.378   7.123  0.00  0.00    +0.000 A 
ATOM     17  C   UNL     1      46.412   1.366   8.055  0.00  0.00    +0.000 A 
ENDBRANCH  10  12
ENDBRANCH   7   9
ENDBRANCH   1   7
BRANCH   5  18
ATOM     18  C   UNL     1      46.378   4.293  14.723  0.00  0.00    +0.000 C 
BRANCH  18  19
ATOM     19  N   UNL     1      47.521   4.495  15.589  0.00  0.00    +0.000 N 
ATOM     20  C   UNL     1      47.582   3.987  16.857  0.00  0.00    +0.000 C 
ATOM     21  O   UNL     1      46.655   3.345  17.345  0.00  0.00    +0.000 OA
ATOM     22  H   UNL     1      48.190   5.197  15.287  0.00  0.00    +0.000 HD
BRANCH  20  23
ATOM     23  C   UNL     1      48.843   4.184  17.589  0.00  0.00    +0.000 A 
ATOM     24  C   UNL     1      48.987   5.295  18.410  0.00  0.00    +0.000 A 
ATOM     25  S   UNL     1      50.480   5.357  19.229  0.00  0.00    +0.000 S 
ATOM     26  C   UNL     1      51.012   3.925  18.476  0.00  0.00    +0.000 A 
ATOM     27  N   UNL     1      52.250   3.425  18.732  0.00  0.00    +0.000 NA
ATOM     28  C   UNL     1      52.539   2.351  18.071  0.00  0.00    +0.000 A 
ATOM     29  N   UNL     1      51.694   1.733  17.187  0.00  0.00    +0.000 N 
ATOM     30  C   UNL     1      50.416   2.172  16.938  0.00  0.00    +0.000 A 
ATOM     31  O   UNL     1      49.659   1.547  16.203  0.00  0.00    +0.000 OA
ATOM     32  C   UNL     1      50.052   3.395  17.632  0.00  0.00    +0.000 A 
ATOM     33  H   UNL     1      51.972   0.885  16.716  0.00  0.00    +0.000 HD
ENDBRANCH  20  23
ENDBRANCH  18  19
ENDBRANCH   5  18
TORSDOF 6
ENDMDL
MODEL 3
REMARK VINA RESULT:    -8.419      3.268      8.590
REMARK INTER + INTRA:         -12.190
REMARK INTER:                 -11.218
REMARK INTRA:                  -0.972
REMARK UNBOUND:                -0.818
REMARK  Name = 
REMARK  7 active torsions:
REMARK  status: ('A' for Active; 'I' for Inactive)
REMARK    1  A    between atoms: C_1  and  N_2
REMARK    2  A    between atoms: N_2  and  C_3
REMARK    3  A    between atoms: C_3  and  C_4
REMARK    4  A    between atoms: C_8  and  C_9
REMARK    5  A    between atoms: C_9  and  N_10
REMARK    6  A    between atoms: C_11  and  C_13
REMARK    7  A    between atoms: C_24  and  C_26
REMARK                            x       y       z     vdW  Elec       q    Type
REMARK                         _______ _______ _______ _____ _____    ______ ____
ROOT
ATOM      1  C   UNL     1      48.738   5.402  18.736  0.00  0.00    +0.000 A 
ATOM      2  C   UNL     1      48.297   6.234  19.757  0.00  0.00    +0.000 A 
ATOM      3  C   UNL     1      48.092   7.581  19.475  0.00  0.00    +0.000 A 
ATOM      4  C   UNL     1      48.333   8.061  18.190  0.00  0.00    +0.000 A 
ATOM      5  C   UNL     1      48.782   7.174  17.218  0.00  0.00    +0.000 A 
ATOM      6  N   UNL     1      48.982   5.859  17.479  0.00  0.00    +0.000 NA
ENDROOT
BRANCH   1   7
ATOM      7  C   UNL     1      48.948   3.922  18.970  0.00  0.00    +0.000 C 
BRANCH   7   9
ATOM      8  C   UNL     1      47.262   2.882  17.403  0.00  0.00    +0.000 C 
ATOM      9  N   UNL     1      48.638   2.984  17.878  0.00  0.00    +0.000 N 
ATOM     10  C   UNL     1      49.606   2.340  17.093  0.00  0.00    +0.000 C 
ATOM     11  O   UNL     1      49.306   1.747  16.053  0.00  0.00    +0.000 OA
BRANCH  10  12
ATOM     12  C   UNL     1      51.059   2.371  17.436  0.00  0.00    +0.000 A 
ATOM     13  C   UNL     1      51.765   3.536  17.720  0.00  0.00    +0.000 A 
ATOM     14  C   UNL     1      53.118   3.437  17.997  0.00  0.00    +0.000 A 
ATOM     15  N   UNL     1      53.785   2.268  18.075  0.00  0.00    +0.000 NA
ATOM     16  C   UNL     1      53.063   1.144  17.886  0.00  0.00    +0.000 A 
ATOM     17  C   UNL     1      51.719   1.143  17.559  0.00  0.00    +0.000 A 
ENDBRANCH  10  12
ENDBRANCH   7   9
ENDBRANCH   1   7
BRANCH   5  18
ATOM     18  C   UNL     1      49.028   7.642  15.805  0.00  0.00    +0.000 C 
BRANCH  18  19
ATOM     19  N   UNL     1      47.916   7.344  14.927  0.00  0.00    +0.000 N 
ATOM     20  C   UNL     1      48.084   6.783  13.691  0.00  0.00    +0.000 C 
ATOM     21  O   UNL     1      49.197   6.519  13.244  0.00  0.00    +0.000 OA
ATOM     22  H   UNL     1      47.023   7.751  15.186  0.00  0.00    +0.000 HD
BRANCH  20  23
ATOM     23  C   UNL     1      46.861   6.442  12.948  0.00  0.00    +0.000 A 
ATOM     24  C   UNL     1      46.150   7.450  12.308  0.00  0.00    +0.000 A 
ATOM     25  S   UNL     1      44.790   6.892  11.447  0.00  0.00    +0.000 S 
ATOM     26  C   UNL     1      45.071   5.287  11.940  0.00  0.00    +0.000 A 
ATOM     27  N   UNL     1      44.234   4.287  11.556  0.00  0.00    +0.000 NA
ATOM     28  C   UNL     1      44.544   3.121  12.025  0.00  0.00    +0.000 A 
ATOM     29  N   UNL     1      45.621   2.872  12.834  0.00  0.00    +0.000 N 
ATOM     30  C   UNL     1      46.523   3.841  13.204  0.00  0.00    +0.000 A 
ATOM     31  O   UNL     1      47.521   3.567  13.861  0.00  0.00    +0.000 OA
ATOM     32  C   UNL     1      46.202   5.176  12.729  0.00  0.00    +0.000 A 
ATOM     33  H   UNL     1      45.820   1.936  13.153  0.00  0.00    +0.000 HD
ENDBRANCH  20  23
ENDBRANCH  18  19
ENDBRANCH   5  18
TORSDOF 6
ENDMDL
MODEL 4
REMARK VINA RESULT:    -8.317      1.279      2.268
REMARK INTER + INTRA:         -12.052
REMARK INTER:                 -11.200
REMARK INTRA:                  -0.852
REMARK UNBOUND:                -0.818
REMARK  Name = 
REMARK  7 active torsions:
REMARK  status: ('A' for Active; 'I' for Inactive)
REMARK    1  A    between atoms: C_1  and  N_2
REMARK    2  A    between atoms: N_2  and  C_3
REMARK    3  A    between atoms: C_3  and  C_4
REMARK    4  A    between atoms: C_8  and  C_9
REMARK    5  A    between atoms: C_9  and  N_10
REMARK    6  A    between atoms: C_11  and  C_13
REMARK    7  A    between atoms: C_24  and  C_26
REMARK                            x       y       z     vdW  Elec       q    Type
REMARK                         _______ _______ _______ _____ _____    ______ ____
ROOT
ATOM      1  C   UNL     1      46.278   4.397  13.388  0.00  0.00    +0.000 A 
ATOM      2  C   UNL     1      46.847   5.556  12.875  0.00  0.00    +0.000 A 
ATOM      3  C   UNL     1      47.723   6.278  13.680  0.00  0.00    +0.000 A 
ATOM      4  C   UNL     1      48.007   5.829  14.968  0.00  0.00    +0.000 A 
ATOM      5  C   UNL     1      47.394   4.666  15.420  0.00  0.00    +0.000 A 
ATOM      6  N   UNL     1      46.541   3.951  14.645  0.00  0.00    +0.000 NA
ENDROOT
BRANCH   1   7
ATOM      7  C   UNL     1      45.343   3.551  12.552  0.00  0.00    +0.000 C 
BRANCH   7   9
ATOM      8  C   UNL     1      43.200   4.822  12.967  0.00  0.00    +0.000 C 
ATOM      9  N   UNL     1      44.109   4.165  12.033  0.00  0.00    +0.000 N 
ATOM     10  C   UNL     1      43.845   4.375  10.671  0.00  0.00    +0.000 C 
ATOM     11  O   UNL     1      42.913   5.092  10.296  0.00  0.00    +0.000 OA
BRANCH  10  12
ATOM     12  C   UNL     1      44.697   3.788   9.595  0.00  0.00    +0.000 A 
ATOM     13  C   UNL     1      45.499   4.541   8.742  0.00  0.00    +0.000 A 
ATOM     14  C   UNL     1      46.223   3.882   7.764  0.00  0.00    +0.000 A 
ATOM     15  N   UNL     1      46.253   2.542   7.627  0.00  0.00    +0.000 NA
ATOM     16  C   UNL     1      45.540   1.825   8.520  0.00  0.00    +0.000 A 
ATOM     17  C   UNL     1      44.750   2.393   9.503  0.00  0.00    +0.000 A 
ENDBRANCH  10  12
ENDBRANCH   7   9
ENDBRANCH   1   7
BRANCH   5  18
ATOM     18  C   UNL     1      47.692   4.124  16.796  0.00  0.00    +0.000 C 
BRANCH  18  19
ATOM     19  N   UNL     1      49.107   3.891  17.000  0.00  0.00    +0.000 N 
ATOM     20  C   UNL     1      49.789   4.394  18.073  0.00  0.00    +0.000 C 
ATOM     21  O   UNL     1      49.240   5.096  18.919  0.00  0.00    +0.000 OA
ATOM     22  H   UNL     1      49.613   3.504  16.208  0.00  0.00    +0.000 HD
BRANCH  20  23
ATOM     23  C   UNL     1      51.198   3.995  18.207  0.00  0.00    +0.000 A 
ATOM     24  C   UNL     1      52.119   4.908  18.706  0.00  0.00    +0.000 A 
ATOM     25  S   UNL     1      53.697   4.283  18.851  0.00  0.00    +0.000 S 
ATOM     26  C   UNL     1      53.219   2.782  18.205  0.00  0.00    +0.000 A 
ATOM     27  N   UNL     1      54.122   1.780  18.036  0.00  0.00    +0.000 NA
ATOM     28  C   UNL     1      53.633   0.705  17.507  0.00  0.00    +0.000 A 
ATOM     29  N   UNL     1      52.322   0.546  17.144  0.00  0.00    +0.000 N 
ATOM     30  C   UNL     1      51.365   1.511  17.344  0.00  0.00    +0.000 A 
ATOM     31  O   UNL     1      50.185   1.304  17.082  0.00  0.00    +0.000 OA
ATOM     32  C   UNL     1      51.868   2.752  17.907  0.00  0.00    +0.000 A 
ATOM     33  H   UNL     1      51.999  -0.326  16.752  0.00  0.00    +0.000 HD
ENDBRANCH  20  23
ENDBRANCH  18  19
ENDBRANCH   5  18
TORSDOF 6
ENDMDL
MODEL 5
REMARK VINA RESULT:    -8.015      3.738      4.736
REMARK INTER + INTRA:         -11.644
REMARK INTER:                 -10.498
REMARK INTRA:                  -1.146
REMARK UNBOUND:                -0.818
REMARK  Name = 
REMARK  7 active torsions:
REMARK  status: ('A' for Active; 'I' for Inactive)
REMARK    1  A    between atoms: C_1  and  N_2
REMARK    2  A    between atoms: N_2  and  C_3
REMARK    3  A    between atoms: C_3  and  C_4
REMARK    4  A    between atoms: C_8  and  C_9
REMARK    5  A    between atoms: C_9  and  N_10
REMARK    6  A    between atoms: C_11  and  C_13
REMARK    7  A    between atoms: C_24  and  C_26
REMARK                            x       y       z     vdW  Elec       q    Type
REMARK                         _______ _______ _______ _____ _____    ______ ____
ROOT
ATOM      1  C   UNL     1      46.349   4.535  13.323  0.00  0.00    +0.000 A 
ATOM      2  C   UNL     1      46.959   5.595  12.664  0.00  0.00    +0.000 A 
ATOM      3  C   UNL     1      47.858   6.389  13.371  0.00  0.00    +0.000 A 
ATOM      4  C   UNL     1      48.123   6.106  14.709  0.00  0.00    +0.000 A 
ATOM      5  C   UNL     1      47.469   5.035  15.308  0.00  0.00    +0.000 A 
ATOM      6  N   UNL     1      46.594   4.253  14.630  0.00  0.00    +0.000 NA
ENDROOT
BRANCH   1   7
ATOM      7  C   UNL     1      45.387   3.618  12.601  0.00  0.00    +0.000 C 
BRANCH   7   9
ATOM      8  C   UNL     1      43.236   4.903  12.924  0.00  0.00    +0.000 C 
ATOM      9  N   UNL     1      44.153   4.191  12.039  0.00  0.00    +0.000 N 
ATOM     10  C   UNL     1      43.894   4.311  10.665  0.00  0.00    +0.000 C 
ATOM     11  O   UNL     1      42.961   4.997  10.239  0.00  0.00    +0.000 OA
BRANCH  10  12
ATOM     12  C   UNL     1      44.753   3.659   9.632  0.00  0.00    +0.000 A 
ATOM     13  C   UNL     1      44.819   2.283   9.433  0.00  0.00    +0.000 A 
ATOM     14  C   UNL     1      45.677   1.798   8.461  0.00  0.00    +0.000 A 
ATOM     15  N   UNL     1      46.408   2.582   7.644  0.00  0.00    +0.000 NA
ATOM     16  C   UNL     1      46.261   3.915   7.794  0.00  0.00    +0.000 A 
ATOM     17  C   UNL     1      45.465   4.494   8.765  0.00  0.00    +0.000 A 
ENDBRANCH  10  12
ENDBRANCH   7   9
ENDBRANCH   1   7
BRANCH   5  18
ATOM     18  C   UNL     1      47.746   4.673  16.747  0.00  0.00    +0.000 C 
BRANCH  18  19
ATOM     19  N   UNL     1      47.440   5.759  17.655  0.00  0.00    +0.000 N 
ATOM     20  C   UNL     1      48.287   6.140  18.658  0.00  0.00    +0.000 C 
ATOM     21  O   UNL     1      49.353   5.565  18.861  0.00  0.00    +0.000 OA
ATOM     22  H   UNL     1      46.481   6.095  17.639  0.00  0.00    +0.000 HD
BRANCH  20  23
ATOM     23  C   UNL     1      47.896   7.323  19.440  0.00  0.00    +0.000 A 
ATOM     24  C   UNL     1      47.627   7.182  20.796  0.00  0.00    +0.000 A 
ATOM     25  S   UNL     1      47.239   8.647  21.575  0.00  0.00    +0.000 S 
ATOM     26  C   UNL     1      47.366   9.518  20.117  0.00  0.00    +0.000 A 
ATOM     27  N   UNL     1      47.129  10.856  20.085  0.00  0.00    +0.000 NA
ATOM     28  C   UNL     1      47.229  11.387  18.909  0.00  0.00    +0.000 A 
ATOM     29  N   UNL     1      47.555  10.698  17.772  0.00  0.00    +0.000 N 
ATOM     30  C   UNL     1      47.854   9.357  17.765  0.00  0.00    +0.000 A 
ATOM     31  O   UNL     1      48.221   8.789  16.742  0.00  0.00    +0.000 OA
ATOM     32  C   UNL     1      47.725   8.704  19.057  0.00  0.00    +0.000 A 
ATOM     33  H   UNL     1      47.635  11.175  16.886  0.00  0.00    +0.000 HD
ENDBRANCH  20  23
ENDBRANCH  18  19
ENDBRANCH   5  18
TORSDOF 6
ENDMDL
MODEL 6
REMARK VINA RESULT:    -7.992      2.711      4.069
REMARK INTER + INTRA:         -11.614
REMARK INTER:                 -10.661
REMARK INTRA:                  -0.953
REMARK UNBOUND:                -0.818
REMARK  Name = 
REMARK  7 active torsions:
REMARK  status: ('A' for Active; 'I' for Inactive)
REMARK    1  A    between atoms: C_1  and  N_2
REMARK    2  A    between atoms: N_2  and  C_3
REMARK    3  A    between atoms: C_3  and  C_4
REMARK    4  A    between atoms: C_8  and  C_9
REMARK    5  A    between atoms: C_9  and  N_10
REMARK    6  A    between atoms: C_11  and  C_13
REMARK    7  A    between atoms: C_24  and  C_26
REMARK                            x       y       z     vdW  Elec       q    Type
REMARK                         _______ _______ _______ _____ _____    ______ ____
ROOT
ATOM      1  C   UNL     1      45.854   6.837  12.048  0.00  0.00    +0.000 A 
ATOM      2  C   UNL     1      45.005   7.737  11.418  0.00  0.00    +0.000 A 
ATOM      3  C   UNL     1      45.092   9.084  11.758  0.00  0.00    +0.000 A 
ATOM      4  C   UNL     1      46.018   9.495  12.714  0.00  0.00    +0.000 A 
ATOM      5  C   UNL     1      46.831   8.539  13.312  0.00  0.00    +0.000 A 
ATOM      6  N   UNL     1      46.758   7.225  12.987  0.00  0.00    +0.000 NA
ENDROOT
BRANCH   1   7
ATOM      7  C   UNL     1      45.830   5.365  11.699  0.00  0.00    +0.000 C 
BRANCH   7   9
ATOM      8  C   UNL     1      43.672   4.975  12.951  0.00  0.00    +0.000 C 
ATOM      9  N   UNL     1      44.568   4.624  11.854  0.00  0.00    +0.000 N 
ATOM     10  C   UNL     1      44.041   3.753  10.888  0.00  0.00    +0.000 C 
ATOM     11  O   UNL     1      42.882   3.334  10.957  0.00  0.00    +0.000 OA
BRANCH  10  12
ATOM     12  C   UNL     1      44.826   3.318   9.695  0.00  0.00    +0.000 A 
ATOM     13  C   UNL     1      45.165   1.994   9.429  0.00  0.00    +0.000 A 
ATOM     14  C   UNL     1      45.922   1.721   8.303  0.00  0.00    +0.000 A 
ATOM     15  N   UNL     1      46.297   2.653   7.405  0.00  0.00    +0.000 NA
ATOM     16  C   UNL     1      45.881   3.916   7.633  0.00  0.00    +0.000 A 
ATOM     17  C   UNL     1      45.162   4.295   8.752  0.00  0.00    +0.000 A 
ENDBRANCH  10  12
ENDBRANCH   7   9
ENDBRANCH   1   7
BRANCH   5  18
ATOM     18  C   UNL     1      47.869   8.940  14.332  0.00  0.00    +0.000 C 
BRANCH  18  19
ATOM     19  N   UNL     1      48.069   7.922  15.341  0.00  0.00    +0.000 N 
ATOM     20  C   UNL     1      49.248   7.243  15.478  0.00  0.00    +0.000 C 
ATOM     21  O   UNL     1      50.204   7.445  14.733  0.00  0.00    +0.000 OA
ATOM     22  H   UNL     1      47.232   7.593  15.814  0.00  0.00    +0.000 HD
BRANCH  20  23
ATOM     23  C   UNL     1      49.346   6.308  16.609  0.00  0.00    +0.000 A 
ATOM     24  C   UNL     1      50.266   6.556  17.620  0.00  0.00    +0.000 A 
ATOM     25  S   UNL     1      50.223   5.414  18.884  0.00  0.00    +0.000 S 
ATOM     26  C   UNL     1      49.006   4.516  18.103  0.00  0.00    +0.000 A 
ATOM     27  N   UNL     1      48.520   3.374  18.659  0.00  0.00    +0.000 NA
ATOM     28  C   UNL     1      47.622   2.774  17.946  0.00  0.00    +0.000 A 
ATOM     29  N   UNL     1      47.164   3.223  16.736  0.00  0.00    +0.000 N 
ATOM     30  C   UNL     1      47.587   4.397  16.161  0.00  0.00    +0.000 A 
ATOM     31  O   UNL     1      47.096   4.809  15.116  0.00  0.00    +0.000 OA
ATOM     32  C   UNL     1      48.621   5.095  16.906  0.00  0.00    +0.000 A 
ATOM     33  H   UNL     1      46.448   2.717  16.237  0.00  0.00    +0.000 HD
ENDBRANCH  20  23
ENDBRANCH  18  19
ENDBRANCH   5  18
TORSDOF 6
ENDMDL
MODEL 7
REMARK VINA RESULT:    -7.658      1.936      3.249
REMARK INTER + INTRA:         -11.163
REMARK INTER:                  -9.891
REMARK INTRA:                  -1.272
REMARK UNBOUND:                -0.818
REMARK  Name = 
REMARK  7 active torsions:
REMARK  status: ('A' for Active; 'I' for Inactive)
REMARK    1  A    between atoms: C_1  and  N_2
REMARK    2  A    between atoms: N_2  and  C_3
REMARK    3  A    between atoms: C_3  and  C_4
REMARK    4  A    between atoms: C_8  and  C_9
REMARK    5  A    between atoms: C_9  and  N_10
REMARK    6  A    between atoms: C_11  and  C_13
REMARK    7  A    between atoms: C_24  and  C_26
REMARK                            x       y       z     vdW  Elec       q    Type
REMARK                         _______ _______ _______ _____ _____    ______ ____
ROOT
ATOM      1  C   UNL     1      47.410   5.665  13.875  0.00  0.00    +0.000 A 
ATOM      2  C   UNL     1      46.669   4.621  14.414  0.00  0.00    +0.000 A 
ATOM      3  C   UNL     1      46.961   4.195  15.705  0.00  0.00    +0.000 A 
ATOM      4  C   UNL     1      47.980   4.818  16.423  0.00  0.00    +0.000 A 
ATOM      5  C   UNL     1      48.688   5.851  15.819  0.00  0.00    +0.000 A 
ATOM      6  N   UNL     1      48.411   6.277  14.562  0.00  0.00    +0.000 NA
ENDROOT
BRANCH   1   7
ATOM      7  C   UNL     1      47.119   6.194  12.488  0.00  0.00    +0.000 C 
BRANCH   7   9
ATOM      8  C   UNL     1      46.207   8.546  12.625  0.00  0.00    +0.000 C 
ATOM      9  N   UNL     1      46.000   7.135  12.312  0.00  0.00    +0.000 N 
ATOM     10  C   UNL     1      44.807   6.825  11.642  0.00  0.00    +0.000 C 
ATOM     11  O   UNL     1      43.999   7.700  11.320  0.00  0.00    +0.000 OA
BRANCH  10  12
ATOM     12  C   UNL     1      44.462   5.431  11.234  0.00  0.00    +0.000 A 
ATOM     13  C   UNL     1      44.925   4.826  10.069  0.00  0.00    +0.000 A 
ATOM     14  C   UNL     1      44.511   3.535   9.787  0.00  0.00    +0.000 A 
ATOM     15  N   UNL     1      43.737   2.798  10.607  0.00  0.00    +0.000 NA
ATOM     16  C   UNL     1      43.373   3.371  11.773  0.00  0.00    +0.000 A 
ATOM     17  C   UNL     1      43.698   4.669  12.124  0.00  0.00    +0.000 A 
ENDBRANCH  10  12
ENDBRANCH   7   9
ENDBRANCH   1   7
BRANCH   5  18
ATOM     18  C   UNL     1      49.781   6.575  16.566  0.00  0.00    +0.000 C 
BRANCH  18  19
ATOM     19  N   UNL     1      50.828   5.679  17.011  0.00  0.00    +0.000 N 
ATOM     20  C   UNL     1      51.017   5.365  18.329  0.00  0.00    +0.000 C 
ATOM     21  O   UNL     1      50.320   5.848  19.218  0.00  0.00    +0.000 OA
ATOM     22  H   UNL     1      51.539   5.449  16.324  0.00  0.00    +0.000 HD
BRANCH  20  23
ATOM     23  C   UNL     1      52.053   4.365  18.628  0.00  0.00    +0.000 A 
ATOM     24  C   UNL     1      53.135   4.723  19.422  0.00  0.00    +0.000 A 
ATOM     25  S   UNL     1      54.220   3.444  19.722  0.00  0.00    +0.000 S 
ATOM     26  C   UNL     1      53.309   2.375  18.760  0.00  0.00    +0.000 A 
ATOM     27  N   UNL     1      53.713   1.090  18.577  0.00  0.00    +0.000 NA
ATOM     28  C   UNL     1      52.947   0.395  17.799  0.00  0.00    +0.000 A 
ATOM     29  N   UNL     1      51.813   0.873  17.199  0.00  0.00    +0.000 N 
ATOM     30  C   UNL     1      51.338   2.148  17.396  0.00  0.00    +0.000 A 
ATOM     31  O   UNL     1      50.275   2.516  16.908  0.00  0.00    +0.000 OA
ATOM     32  C   UNL     1      52.180   2.980  18.238  0.00  0.00    +0.000 A 
ATOM     33  H   UNL     1      51.247   0.274  16.616  0.00  0.00    +0.000 HD
ENDBRANCH  20  23
ENDBRANCH  18  19
ENDBRANCH   5  18
TORSDOF 6
ENDMDL
MODEL 8
REMARK VINA RESULT:    -7.649      3.633      9.099
REMARK INTER + INTRA:         -11.150
REMARK INTER:                  -9.951
REMARK INTRA:                  -1.199
REMARK UNBOUND:                -0.818
REMARK  Name = 
REMARK  7 active torsions:
REMARK  status: ('A' for Active; 'I' for Inactive)
REMARK    1  A    between atoms: C_1  and  N_2
REMARK    2  A    between atoms: N_2  and  C_3
REMARK    3  A    between atoms: C_3  and  C_4
REMARK    4  A    between atoms: C_8  and  C_9
REMARK    5  A    between atoms: C_9  and  N_10
REMARK    6  A    between atoms: C_11  and  C_13
REMARK    7  A    between atoms: C_24  and  C_26
REMARK                            x       y       z     vdW  Elec       q    Type
REMARK                         _______ _______ _______ _____ _____    ______ ____
ROOT
ATOM      1  C   UNL     1      50.493   5.341  17.178  0.00  0.00    +0.000 A 
ATOM      2  C   UNL     1      51.388   4.375  17.620  0.00  0.00    +0.000 A 
ATOM      3  C   UNL     1      50.948   3.060  17.729  0.00  0.00    +0.000 A 
ATOM      4  C   UNL     1      49.632   2.744  17.396  0.00  0.00    +0.000 A 
ATOM      5  C   UNL     1      48.787   3.762  16.970  0.00  0.00    +0.000 A 
ATOM      6  N   UNL     1      49.205   5.047  16.857  0.00  0.00    +0.000 NA
ENDROOT
BRANCH   1   7
ATOM      7  C   UNL     1      50.921   6.782  17.009  0.00  0.00    +0.000 C 
BRANCH   7   9
ATOM      8  C   UNL     1      50.232   7.659  14.742  0.00  0.00    +0.000 C 
ATOM      9  N   UNL     1      50.081   7.676  16.194  0.00  0.00    +0.000 N 
ATOM     10  C   UNL     1      48.973   8.383  16.686  0.00  0.00    +0.000 C 
ATOM     11  O   UNL     1      48.169   8.934  15.930  0.00  0.00    +0.000 OA
BRANCH  10  12
ATOM     12  C   UNL     1      48.671   8.474  18.146  0.00  0.00    +0.000 A 
ATOM     13  C   UNL     1      47.853   7.578  18.827  0.00  0.00    +0.000 A 
ATOM     14  C   UNL     1      47.627   7.785  20.176  0.00  0.00    +0.000 A 
ATOM     15  N   UNL     1      48.206   8.769  20.893  0.00  0.00    +0.000 NA
ATOM     16  C   UNL     1      49.066   9.573  20.233  0.00  0.00    +0.000 A 
ATOM     17  C   UNL     1      49.321   9.473  18.878  0.00  0.00    +0.000 A 
ENDBRANCH  10  12
ENDBRANCH   7   9
ENDBRANCH   1   7
BRANCH   5  18
ATOM     18  C   UNL     1      47.363   3.464  16.571  0.00  0.00    +0.000 C 
BRANCH  18  19
ATOM     19  N   UNL     1      46.836   4.443  15.644  0.00  0.00    +0.000 N 
ATOM     20  C   UNL     1      46.786   4.227  14.295  0.00  0.00    +0.000 C 
ATOM     21  O   UNL     1      47.210   3.192  13.787  0.00  0.00    +0.000 OA
ATOM     22  H   UNL     1      46.687   5.376  16.018  0.00  0.00    +0.000 HD
BRANCH  20  23
ATOM     23  C   UNL     1      46.134   5.265  13.482  0.00  0.00    +0.000 A 
ATOM     24  C   UNL     1      46.793   6.467  13.257  0.00  0.00    +0.000 A 
ATOM     25  S   UNL     1      45.935   7.546  12.256  0.00  0.00    +0.000 S 
ATOM     26  C   UNL     1      44.625   6.466  12.127  0.00  0.00    +0.000 A 
ATOM     27  N   UNL     1      43.520   6.797  11.406  0.00  0.00    +0.000 NA
ATOM     28  C   UNL     1      42.588   5.900  11.416  0.00  0.00    +0.000 A 
ATOM     29  N   UNL     1      42.671   4.702  12.074  0.00  0.00    +0.000 N 
ATOM     30  C   UNL     1      43.786   4.303  12.771  0.00  0.00    +0.000 A 
ATOM     31  O   UNL     1      43.857   3.189  13.279  0.00  0.00    +0.000 OA
ATOM     32  C   UNL     1      44.852   5.288  12.817  0.00  0.00    +0.000 A 
ATOM     33  H   UNL     1      41.914   4.036  12.028  0.00  0.00    +0.000 HD
ENDBRANCH  20  23
ENDBRANCH  18  19
ENDBRANCH   5  18
TORSDOF 6
ENDMDL
MODEL 9
REMARK VINA RESULT:    -7.561      3.370      9.641
REMARK INTER + INTRA:         -11.031
REMARK INTER:                  -9.804
REMARK INTRA:                  -1.227
REMARK UNBOUND:                -0.818
REMARK  Name = 
REMARK  7 active torsions:
REMARK  status: ('A' for Active; 'I' for Inactive)
REMARK    1  A    between atoms: C_1  and  N_2
REMARK    2  A    between atoms: N_2  and  C_3
REMARK    3  A    between atoms: C_3  and  C_4
REMARK    4  A    between atoms: C_8  and  C_9
REMARK    5  A    between atoms: C_9  and  N_10
REMARK    6  A    between atoms: C_11  and  C_13
REMARK    7  A    between atoms: C_24  and  C_26
REMARK                            x       y       z     vdW  Elec       q    Type
REMARK                         _______ _______ _______ _____ _____    ______ ____
ROOT
ATOM      1  C   UNL     1      50.691   4.798  17.408  0.00  0.00    +0.000 A 
ATOM      2  C   UNL     1      51.486   3.665  17.527  0.00  0.00    +0.000 A 
ATOM      3  C   UNL     1      50.884   2.416  17.413  0.00  0.00    +0.000 A 
ATOM      4  C   UNL     1      49.513   2.329  17.184  0.00  0.00    +0.000 A 
ATOM      5  C   UNL     1      48.776   3.503  17.085  0.00  0.00    +0.000 A 
ATOM      6  N   UNL     1      49.350   4.727  17.191  0.00  0.00    +0.000 NA
ENDROOT
BRANCH   1   7
ATOM      7  C   UNL     1      51.290   6.185  17.491  0.00  0.00    +0.000 C 
BRANCH   7   9
ATOM      8  C   UNL     1      53.488   6.930  18.488  0.00  0.00    +0.000 C 
ATOM      9  N   UNL     1      52.095   6.535  18.673  0.00  0.00    +0.000 N 
ATOM     10  C   UNL     1      51.565   6.746  19.955  0.00  0.00    +0.000 C 
ATOM     11  O   UNL     1      52.234   7.257  20.857  0.00  0.00    +0.000 OA
BRANCH  10  12
ATOM     12  C   UNL     1      50.149   6.414  20.295  0.00  0.00    +0.000 A 
ATOM     13  C   UNL     1      49.744   5.192  20.824  0.00  0.00    +0.000 A 
ATOM     14  C   UNL     1      48.397   4.994  21.072  0.00  0.00    +0.000 A 
ATOM     15  N   UNL     1      47.454   5.941  20.896  0.00  0.00    +0.000 NA
ATOM     16  C   UNL     1      47.879   7.148  20.468  0.00  0.00    +0.000 A 
ATOM     17  C   UNL     1      49.196   7.427  20.150  0.00  0.00    +0.000 A 
ENDBRANCH  10  12
ENDBRANCH   7   9
ENDBRANCH   1   7
BRANCH   5  18
ATOM     18  C   UNL     1      47.293   3.460  16.809  0.00  0.00    +0.000 C 
BRANCH  18  19
ATOM     19  N   UNL     1      46.887   4.449  15.833  0.00  0.00    +0.000 N 
ATOM     20  C   UNL     1      46.872   4.194  14.489  0.00  0.00    +0.000 C 
ATOM     21  O   UNL     1      47.226   3.111  14.030  0.00  0.00    +0.000 OA
ATOM     22  H   UNL     1      46.804   5.403  16.173  0.00  0.00    +0.000 HD
BRANCH  20  23
ATOM     23  C   UNL     1      46.343   5.256  13.620  0.00  0.00    +0.000 A 
ATOM     24  C   UNL     1      47.100   6.401  13.407  0.00  0.00    +0.000 A 
ATOM     25  S   UNL     1      46.377   7.514  12.337  0.00  0.00    +0.000 S 
ATOM     26  C   UNL     1      45.001   6.528  12.158  0.00  0.00    +0.000 A 
ATOM     27  N   UNL     1      43.964   6.920  11.370  0.00  0.00    +0.000 NA
ATOM     28  C   UNL     1      42.969   6.093  11.347  0.00  0.00    +0.000 A 
ATOM     29  N   UNL     1      42.929   4.908  12.034  0.00  0.00    +0.000 N 
ATOM     30  C   UNL     1      43.973   4.447  12.799  0.00  0.00    +0.000 A 
ATOM     31  O   UNL     1      43.934   3.345  13.334  0.00  0.00    +0.000 OA
ATOM     32  C   UNL     1      45.104   5.355  12.885  0.00  0.00    +0.000 A 
ATOM     33  H   UNL     1      42.129   4.297  11.960  0.00  0.00    +0.000 HD
ENDBRANCH  20  23
ENDBRANCH  18  19
ENDBRANCH   5  18
TORSDOF 6
ENDMDL
