MODEL 1
REMARK VINA RESULT:    -6.884      0.000      0.000
REMARK INTER + INTRA:          -9.132
REMARK INTER:                  -8.695
REMARK INTRA:                  -0.437
REMARK UNBOUND:                -0.437
REMARK  Name = 
REMARK  5 active torsions:
REMARK  status: ('A' for Active; 'I' for Inactive)
REMARK    1  A    between atoms: N_1  and  C_2
REMARK    2  A    between atoms: C_2  and  C_3
REMARK    3  A    between atoms: C_7  and  C_8
REMARK    4  A    between atoms: C_9  and  C_10
REMARK    5  A    between atoms: C_14  and  C_15
REMARK                            x       y       z     vdW  Elec       q    Type
REMARK                         _______ _______ _______ _____ _____    ______ ____
ROOT
ATOM      1  C   UNL     1      45.478   5.348   9.529  0.00  0.00    +0.000 C 
ATOM      2  C   UNL     1      45.528   5.554  10.858  0.00  0.00    +0.000 C 
ENDROOT
BRANCH   1   7
ATOM      3  C   UNL     1      46.654   2.799   7.019  0.00  0.00    +0.000 A 
ATOM      4  C   UNL     1      46.192   1.609   7.598  0.00  0.00    +0.000 A 
ATOM      5  C   UNL     1      45.452   1.636   8.779  0.00  0.00    +0.000 A 
ATOM      6  C   UNL     1      45.181   2.852   9.408  0.00  0.00    +0.000 A 
ATOM      7  C   UNL     1      45.627   4.055   8.851  0.00  0.00    +0.000 A 
ATOM      8  C   UNL     1      46.355   4.015   7.652  0.00  0.00    +0.000 A 
BRANCH   3   9
ATOM      9  C   UNL     1      47.514   2.772   5.783  0.00  0.00    +0.000 C 
BRANCH   9  10
ATOM     10  N   UNL     1      48.449   1.654   5.794  0.00  0.00    +0.000 NA
ATOM     11  H   UNL     1      49.368   1.990   5.511  0.00  0.00    +0.000 HD
ATOM     12  H   UNL     1      48.158   0.982   5.085  0.00  0.00    +0.000 HD
ENDBRANCH   9  10
ENDBRANCH   3   9
ENDBRANCH   1   7
BRANCH   2  13
ATOM     13  C   UNL     1      45.424   6.891  11.456  0.00  0.00    +0.000 A 
ATOM     14  C   UNL     1      46.247   7.263  12.510  0.00  0.00    +0.000 A 
ATOM     15  C   UNL     1      46.122   8.544  13.039  0.00  0.00    +0.000 A 
ATOM     16  C   UNL     1      45.187   9.421  12.499  0.00  0.00    +0.000 A 
ATOM     17  C   UNL     1      44.392   8.993  11.435  0.00  0.00    +0.000 A 
ATOM     18  N   UNL     1      44.512   7.738  10.920  0.00  0.00    +0.000 NA
BRANCH  17  19
ATOM     19  C   UNL     1      43.365   9.931  10.819  0.00  0.00    +0.000 C 
ATOM     20  F   UNL     1      42.136   9.354  10.657  0.00  0.00    +0.000 F 
ATOM     21  F   UNL     1      43.142  11.049  11.568  0.00  0.00    +0.000 F 
ATOM     22  F   UNL     1      43.722  10.373   9.579  0.00  0.00    +0.000 F 
ENDBRANCH  17  19
ENDBRANCH   2  13
TORSDOF 5
ENDMDL
MODEL 2
REMARK VINA RESULT:    -6.402      2.680      3.199
REMARK INTER + INTRA:          -8.523
REMARK INTER:                  -8.094
REMARK INTRA:                  -0.429
REMARK UNBOUND:                -0.437
REMARK  Name = 
REMARK  5 active torsions:
REMARK  status: ('A' for Active; 'I' for Inactive)
REMARK    1  A    between atoms: N_1  and  C_2
REMARK    2  A    between atoms: C_2  and  C_3
REMARK    3  A    between atoms: C_7  and  C_8
REMARK    4  A    between atoms: C_9  and  C_10
REMARK    5  A    between atoms: C_14  and  C_15
REMARK                            x       y       z     vdW  Elec       q    Type
REMARK                         _______ _______ _______ _____ _____    ______ ____
ROOT
ATOM      1  C   UNL     1      45.653   5.284   9.601  0.00  0.00    +0.000 C 
ATOM      2  C   UNL     1      45.694   5.431  10.938  0.00  0.00    +0.000 C 
ENDROOT
BRANCH   1   7
ATOM      3  C   UNL     1      46.570   2.770   6.952  0.00  0.00    +0.000 A 
ATOM      4  C   UNL     1      46.066   1.587   7.509  0.00  0.00    +0.000 A 
ATOM      5  C   UNL     1      45.382   1.610   8.722  0.00  0.00    +0.000 A 
ATOM      6  C   UNL     1      45.208   2.815   9.406  0.00  0.00    +0.000 A 
ATOM      7  C   UNL     1      45.698   4.012   8.871  0.00  0.00    +0.000 A 
ATOM      8  C   UNL     1      46.370   3.976   7.639  0.00  0.00    +0.000 A 
BRANCH   3   9
ATOM      9  C   UNL     1      47.373   2.742   5.677  0.00  0.00    +0.000 C 
BRANCH   9  10
ATOM     10  N   UNL     1      48.480   1.796   5.751  0.00  0.00    +0.000 NA
ATOM     11  H   UNL     1      49.351   2.296   5.585  0.00  0.00    +0.000 HD
ATOM     12  H   UNL     1      48.383   1.126   4.989  0.00  0.00    +0.000 HD
ENDBRANCH   9  10
ENDBRANCH   3   9
ENDBRANCH   1   7
BRANCH   2  13
ATOM     13  C   UNL     1      45.700   6.747  11.590  0.00  0.00    +0.000 A 
ATOM     14  C   UNL     1      44.714   7.683  11.308  0.00  0.00    +0.000 A 
ATOM     15  C   UNL     1      44.753   8.913  11.957  0.00  0.00    +0.000 A 
ATOM     16  C   UNL     1      45.766   9.174  12.874  0.00  0.00    +0.000 A 
ATOM     17  C   UNL     1      46.725   8.191  13.121  0.00  0.00    +0.000 A 
ATOM     18  N   UNL     1      46.690   6.988  12.482  0.00  0.00    +0.000 NA
BRANCH  17  19
ATOM     19  C   UNL     1      47.842   8.444  14.123  0.00  0.00    +0.000 C 
ATOM     20  F   UNL     1      48.389   7.294  14.622  0.00  0.00    +0.000 F 
ATOM     21  F   UNL     1      48.889   9.140  13.595  0.00  0.00    +0.000 F 
ATOM     22  F   UNL     1      47.431   9.151  15.215  0.00  0.00    +0.000 F 
ENDBRANCH  17  19
ENDBRANCH   2  13
TORSDOF 5
ENDMDL
MODEL 3
REMARK VINA RESULT:    -6.251      4.347      6.929
REMARK INTER + INTRA:          -8.332
REMARK INTER:                  -7.889
REMARK INTRA:                  -0.443
REMARK UNBOUND:                -0.437
REMARK  Name = 
REMARK  5 active torsions:
REMARK  status: ('A' for Active; 'I' for Inactive)
REMARK    1  A    between atoms: N_1  and  C_2
REMARK    2  A    between atoms: C_2  and  C_3
REMARK    3  A    between atoms: C_7  and  C_8
REMARK    4  A    between atoms: C_9  and  C_10
REMARK    5  A    between atoms: C_14  and  C_15
REMARK                            x       y       z     vdW  Elec       q    Type
REMARK                         _______ _______ _______ _____ _____    ______ ____
ROOT
ATOM      1  C   UNL     1      47.078   6.560  11.926  0.00  0.00    +0.000 C 
ATOM      2  C   UNL     1      45.777   6.494  11.588  0.00  0.00    +0.000 C 
ENDROOT
BRANCH   1   7
ATOM      3  C   UNL     1      50.073   8.802  11.496  0.00  0.00    +0.000 A 
ATOM      4  C   UNL     1      49.509  10.063  11.735  0.00  0.00    +0.000 A 
ATOM      5  C   UNL     1      48.167  10.184  12.087  0.00  0.00    +0.000 A 
ATOM      6  C   UNL     1      47.363   9.047  12.186  0.00  0.00    +0.000 A 
ATOM      7  C   UNL     1      47.900   7.776  11.956  0.00  0.00    +0.000 A 
ATOM      8  C   UNL     1      49.258   7.667  11.620  0.00  0.00    +0.000 A 
BRANCH   3   9
ATOM      9  C   UNL     1      51.504   8.669  11.046  0.00  0.00    +0.000 C 
BRANCH   9  10
ATOM     10  N   UNL     1      51.923   7.275  10.967  0.00  0.00    +0.000 NA
ATOM     11  H   UNL     1      51.923   6.878  11.905  0.00  0.00    +0.000 HD
ATOM     12  H   UNL     1      52.888   7.245  10.641  0.00  0.00    +0.000 HD
ENDBRANCH   9  10
ENDBRANCH   3   9
ENDBRANCH   1   7
BRANCH   2  13
ATOM     13  C   UNL     1      45.039   5.226  11.529  0.00  0.00    +0.000 A 
ATOM     14  C   UNL     1      44.169   4.864  12.549  0.00  0.00    +0.000 A 
ATOM     15  C   UNL     1      43.481   3.659  12.447  0.00  0.00    +0.000 A 
ATOM     16  C   UNL     1      43.673   2.851  11.330  0.00  0.00    +0.000 A 
ATOM     17  C   UNL     1      44.555   3.272  10.335  0.00  0.00    +0.000 A 
ATOM     18  N   UNL     1      45.232   4.449  10.436  0.00  0.00    +0.000 NA
BRANCH  17  19
ATOM     19  C   UNL     1      44.782   2.414   9.098  0.00  0.00    +0.000 C 
ATOM     20  F   UNL     1      44.056   1.254   9.106  0.00  0.00    +0.000 F 
ATOM     21  F   UNL     1      44.440   3.044   7.938  0.00  0.00    +0.000 F 
ATOM     22  F   UNL     1      46.081   2.025   8.948  0.00  0.00    +0.000 F 
ENDBRANCH  17  19
ENDBRANCH   2  13
TORSDOF 5
ENDMDL
MODEL 4
REMARK VINA RESULT:    -6.148      4.136      7.850
REMARK INTER + INTRA:          -8.203
REMARK INTER:                  -7.770
REMARK INTRA:                  -0.433
REMARK UNBOUND:                -0.437
REMARK  Name = 
REMARK  5 active torsions:
REMARK  status: ('A' for Active; 'I' for Inactive)
REMARK    1  A    between atoms: N_1  and  C_2
REMARK    2  A    between atoms: C_2  and  C_3
REMARK    3  A    between atoms: C_7  and  C_8
REMARK    4  A    between atoms: C_9  and  C_10
REMARK    5  A    between atoms: C_14  and  C_15
REMARK                            x       y       z     vdW  Elec       q    Type
REMARK                         _______ _______ _______ _____ _____    ______ ____
ROOT
ATOM      1  C   UNL     1      45.700   6.008  11.035  0.00  0.00    +0.000 C 
ATOM      2  C   UNL     1      45.366   5.661   9.778  0.00  0.00    +0.000 C 
ENDROOT
BRANCH   1   7
ATOM      3  C   UNL     1      47.142   9.164  12.498  0.00  0.00    +0.000 A 
ATOM      4  C   UNL     1      46.059  10.045  12.375  0.00  0.00    +0.000 A 
ATOM      5  C   UNL     1      44.841   9.603  11.863  0.00  0.00    +0.000 A 
ATOM      6  C   UNL     1      44.694   8.277  11.449  0.00  0.00    +0.000 A 
ATOM      7  C   UNL     1      45.758   7.376  11.564  0.00  0.00    +0.000 A 
ATOM      8  C   UNL     1      46.973   7.830  12.099  0.00  0.00    +0.000 A 
BRANCH   3   9
ATOM      9  C   UNL     1      48.482   9.651  12.983  0.00  0.00    +0.000 C 
BRANCH   9  10
ATOM     10  N   UNL     1      48.353  10.558  14.119  0.00  0.00    +0.000 NA
ATOM     11  H   UNL     1      48.896  11.399  13.931  0.00  0.00    +0.000 HD
ATOM     12  H   UNL     1      48.779  10.117  14.933  0.00  0.00    +0.000 HD
ENDBRANCH   9  10
ENDBRANCH   3   9
ENDBRANCH   1   7
BRANCH   2  13
ATOM     13  C   UNL     1      45.386   4.269   9.311  0.00  0.00    +0.000 A 
ATOM     14  C   UNL     1      44.608   3.300   9.931  0.00  0.00    +0.000 A 
ATOM     15  C   UNL     1      44.650   1.996   9.447  0.00  0.00    +0.000 A 
ATOM     16  C   UNL     1      45.459   1.694   8.355  0.00  0.00    +0.000 A 
ATOM     17  C   UNL     1      46.213   2.712   7.770  0.00  0.00    +0.000 A 
ATOM     18  N   UNL     1      46.175   3.987   8.246  0.00  0.00    +0.000 NA
BRANCH  17  19
ATOM     19  C   UNL     1      47.102   2.414   6.572  0.00  0.00    +0.000 C 
ATOM     20  F   UNL     1      47.093   1.096   6.207  0.00  0.00    +0.000 F 
ATOM     21  F   UNL     1      46.738   3.099   5.450  0.00  0.00    +0.000 F 
ATOM     22  F   UNL     1      48.414   2.719   6.791  0.00  0.00    +0.000 F 
ENDBRANCH  17  19
ENDBRANCH   2  13
TORSDOF 5
ENDMDL
MODEL 5
REMARK VINA RESULT:    -6.124      6.401      7.822
REMARK INTER + INTRA:          -8.172
REMARK INTER:                  -7.694
REMARK INTRA:                  -0.479
REMARK UNBOUND:                -0.437
REMARK  Name = 
REMARK  5 active torsions:
REMARK  status: ('A' for Active; 'I' for Inactive)
REMARK    1  A    between atoms: N_1  and  C_2
REMARK    2  A    between atoms: C_2  and  C_3
REMARK    3  A    between atoms: C_7  and  C_8
REMARK    4  A    between atoms: C_9  and  C_10
REMARK    5  A    between atoms: C_14  and  C_15
REMARK                            x       y       z     vdW  Elec       q    Type
REMARK                         _______ _______ _______ _____ _____    ______ ____
ROOT
ATOM      1  C   UNL     1      47.106   4.988  14.188  0.00  0.00    +0.000 C 
ATOM      2  C   UNL     1      46.960   4.066  15.157  0.00  0.00    +0.000 C 
ENDROOT
BRANCH   1   7
ATOM      3  C   UNL     1      44.437   4.215  11.646  0.00  0.00    +0.000 A 
ATOM      4  C   UNL     1      44.622   5.257  10.727  0.00  0.00    +0.000 A 
ATOM      5  C   UNL     1      45.647   6.184  10.903  0.00  0.00    +0.000 A 
ATOM      6  C   UNL     1      46.491   6.094  12.012  0.00  0.00    +0.000 A 
ATOM      7  C   UNL     1      46.331   5.062  12.944  0.00  0.00    +0.000 A 
ATOM      8  C   UNL     1      45.306   4.125  12.744  0.00  0.00    +0.000 A 
BRANCH   3   9
ATOM      9  C   UNL     1      43.288   3.253  11.501  0.00  0.00    +0.000 C 
BRANCH   9  10
ATOM     10  N   UNL     1      43.490   2.041  12.286  0.00  0.00    +0.000 NA
ATOM     11  H   UNL     1      43.479   1.238  11.659  0.00  0.00    +0.000 HD
ATOM     12  H   UNL     1      42.695   1.927  12.914  0.00  0.00    +0.000 HD
ENDBRANCH   9  10
ENDBRANCH   3   9
ENDBRANCH   1   7
BRANCH   2  13
ATOM     13  C   UNL     1      47.816   4.029  16.349  0.00  0.00    +0.000 A 
ATOM     14  C   UNL     1      47.452   3.281  17.461  0.00  0.00    +0.000 A 
ATOM     15  C   UNL     1      48.299   3.265  18.565  0.00  0.00    +0.000 A 
ATOM     16  C   UNL     1      49.487   3.989  18.529  0.00  0.00    +0.000 A 
ATOM     17  C   UNL     1      49.802   4.717  17.381  0.00  0.00    +0.000 A 
ATOM     18  N   UNL     1      48.971   4.736  16.302  0.00  0.00    +0.000 NA
BRANCH  17  19
ATOM     19  C   UNL     1      51.096   5.513  17.309  0.00  0.00    +0.000 C 
ATOM     20  F   UNL     1      52.215   4.726  17.306  0.00  0.00    +0.000 F 
ATOM     21  F   UNL     1      51.194   6.279  16.184  0.00  0.00    +0.000 F 
ATOM     22  F   UNL     1      51.259   6.366  18.362  0.00  0.00    +0.000 F 
ENDBRANCH  17  19
ENDBRANCH   2  13
TORSDOF 5
ENDMDL
MODEL 6
REMARK VINA RESULT:    -6.060      5.718      7.928
REMARK INTER + INTRA:          -8.091
REMARK INTER:                  -7.629
REMARK INTRA:                  -0.462
REMARK UNBOUND:                -0.437
REMARK  Name = 
REMARK  5 active torsions:
REMARK  status: ('A' for Active; 'I' for Inactive)
REMARK    1  A    between atoms: N_1  and  C_2
REMARK    2  A    between atoms: C_2  and  C_3
REMARK    3  A    between atoms: C_7  and  C_8
REMARK    4  A    between atoms: C_9  and  C_10
REMARK    5  A    between atoms: C_14  and  C_15
REMARK                            x       y       z     vdW  Elec       q    Type
REMARK                         _______ _______ _______ _____ _____    ______ ____
ROOT
ATOM      1  C   UNL     1      46.965   4.292  15.345  0.00  0.00    +0.000 C 
ATOM      2  C   UNL     1      47.243   5.181  14.373  0.00  0.00    +0.000 C 
ENDROOT
BRANCH   1   7
ATOM      3  C   UNL     1      49.669   3.290  17.767  0.00  0.00    +0.000 A 
ATOM      4  C   UNL     1      49.290   4.003  18.913  0.00  0.00    +0.000 A 
ATOM      5  C   UNL     1      48.128   4.771  18.917  0.00  0.00    +0.000 A 
ATOM      6  C   UNL     1      47.337   4.853  17.770  0.00  0.00    +0.000 A 
ATOM      7  C   UNL     1      47.689   4.148  16.613  0.00  0.00    +0.000 A 
ATOM      8  C   UNL     1      48.852   3.364  16.628  0.00  0.00    +0.000 A 
BRANCH   3   9
ATOM      9  C   UNL     1      50.960   2.515  17.731  0.00  0.00    +0.000 C 
BRANCH   9  10
ATOM     10  N   UNL     1      50.871   1.348  16.862  0.00  0.00    +0.000 NA
ATOM     11  H   UNL     1      49.940   1.314  16.451  0.00  0.00    +0.000 HD
ATOM     12  H   UNL     1      50.964   0.511  17.435  0.00  0.00    +0.000 HD
ENDBRANCH   9  10
ENDBRANCH   3   9
ENDBRANCH   1   7
BRANCH   2  13
ATOM     13  C   UNL     1      46.503   5.224  13.105  0.00  0.00    +0.000 A 
ATOM     14  C   UNL     1      46.823   6.157  12.128  0.00  0.00    +0.000 A 
ATOM     15  C   UNL     1      46.103   6.154  10.937  0.00  0.00    +0.000 A 
ATOM     16  C   UNL     1      45.090   5.219  10.750  0.00  0.00    +0.000 A 
ATOM     17  C   UNL     1      44.818   4.303  11.766  0.00  0.00    +0.000 A 
ATOM     18  N   UNL     1      45.520   4.307  12.933  0.00  0.00    +0.000 NA
BRANCH  17  19
ATOM     19  C   UNL     1      43.721   3.264  11.588  0.00  0.00    +0.000 C 
ATOM     20  F   UNL     1      42.484   3.814  11.394  0.00  0.00    +0.000 F 
ATOM     21  F   UNL     1      43.924   2.447  10.515  0.00  0.00    +0.000 F 
ATOM     22  F   UNL     1      43.583   2.441  12.668  0.00  0.00    +0.000 F 
ENDBRANCH  17  19
ENDBRANCH   2  13
TORSDOF 5
ENDMDL
MODEL 7
REMARK VINA RESULT:    -6.042      4.042      7.368
REMARK INTER + INTRA:          -8.068
REMARK INTER:                  -7.610
REMARK INTRA:                  -0.458
REMARK UNBOUND:                -0.437
REMARK  Name = 
REMARK  5 active torsions:
REMARK  status: ('A' for Active; 'I' for Inactive)
REMARK    1  A    between atoms: N_1  and  C_2
REMARK    2  A    between atoms: C_2  and  C_3
REMARK    3  A    between atoms: C_7  and  C_8
REMARK    4  A    between atoms: C_9  and  C_10
REMARK    5  A    between atoms: C_14  and  C_15
REMARK                            x       y       z     vdW  Elec       q    Type
REMARK                         _______ _______ _______ _____ _____    ______ ____
ROOT
ATOM      1  C   UNL     1      47.195   6.530  11.803  0.00  0.00    +0.000 C 
ATOM      2  C   UNL     1      45.875   6.489  11.542  0.00  0.00    +0.000 C 
ENDROOT
BRANCH   1   7
ATOM      3  C   UNL     1      48.155  10.164  12.037  0.00  0.00    +0.000 A 
ATOM      4  C   UNL     1      49.554  10.079  12.048  0.00  0.00    +0.000 A 
ATOM      5  C   UNL     1      50.190   8.845  11.928  0.00  0.00    +0.000 A 
ATOM      6  C   UNL     1      49.436   7.675  11.814  0.00  0.00    +0.000 A 
ATOM      7  C   UNL     1      48.038   7.732  11.797  0.00  0.00    +0.000 A 
ATOM      8  C   UNL     1      47.410   8.982  11.901  0.00  0.00    +0.000 A 
BRANCH   3   9
ATOM      9  C   UNL     1      47.460  11.485  12.239  0.00  0.00    +0.000 C 
BRANCH   9  10
ATOM     10  N   UNL     1      46.009  11.349  12.196  0.00  0.00    +0.000 NA
ATOM     11  H   UNL     1      45.758  10.745  11.416  0.00  0.00    +0.000 HD
ATOM     12  H   UNL     1      45.605  12.263  11.993  0.00  0.00    +0.000 HD
ENDBRANCH   9  10
ENDBRANCH   3   9
ENDBRANCH   1   7
BRANCH   2  13
ATOM     13  C   UNL     1      45.113   5.234  11.514  0.00  0.00    +0.000 A 
ATOM     14  C   UNL     1      44.257   4.900  12.554  0.00  0.00    +0.000 A 
ATOM     15  C   UNL     1      43.546   3.706  12.480  0.00  0.00    +0.000 A 
ATOM     16  C   UNL     1      43.702   2.882  11.370  0.00  0.00    +0.000 A 
ATOM     17  C   UNL     1      44.572   3.274  10.353  0.00  0.00    +0.000 A 
ATOM     18  N   UNL     1      45.271   4.441  10.427  0.00  0.00    +0.000 NA
BRANCH  17  19
ATOM     19  C   UNL     1      44.759   2.398   9.123  0.00  0.00    +0.000 C 
ATOM     20  F   UNL     1      46.055   2.004   8.933  0.00  0.00    +0.000 F 
ATOM     21  F   UNL     1      44.036   1.242   9.173  0.00  0.00    +0.000 F 
ATOM     22  F   UNL     1      44.398   3.019   7.964  0.00  0.00    +0.000 F 
ENDBRANCH  17  19
ENDBRANCH   2  13
TORSDOF 5
ENDMDL
MODEL 8
REMARK VINA RESULT:    -5.992      5.645      8.429
REMARK INTER + INTRA:          -8.005
REMARK INTER:                  -7.563
REMARK INTRA:                  -0.442
REMARK UNBOUND:                -0.437
REMARK  Name = 
REMARK  5 active torsions:
REMARK  status: ('A' for Active; 'I' for Inactive)
REMARK    1  A    between atoms: N_1  and  C_2
REMARK    2  A    between atoms: C_2  and  C_3
REMARK    3  A    between atoms: C_7  and  C_8
REMARK    4  A    between atoms: C_9  and  C_10
REMARK    5  A    between atoms: C_14  and  C_15
REMARK                            x       y       z     vdW  Elec       q    Type
REMARK                         _______ _______ _______ _____ _____    ______ ____
ROOT
ATOM      1  C   UNL     1      46.973   4.308  15.251  0.00  0.00    +0.000 C 
ATOM      2  C   UNL     1      47.230   5.232  14.308  0.00  0.00    +0.000 C 
ENDROOT
BRANCH   1   7
ATOM      3  C   UNL     1      47.958   4.939  18.830  0.00  0.00    +0.000 A 
ATOM      4  C   UNL     1      48.783   3.836  19.088  0.00  0.00    +0.000 A 
ATOM      5  C   UNL     1      49.063   2.911  18.084  0.00  0.00    +0.000 A 
ATOM      6  C   UNL     1      48.507   3.066  16.813  0.00  0.00    +0.000 A 
ATOM      7  C   UNL     1      47.682   4.160  16.528  0.00  0.00    +0.000 A 
ATOM      8  C   UNL     1      47.423   5.094  17.543  0.00  0.00    +0.000 A 
BRANCH   3   9
ATOM      9  C   UNL     1      47.594   5.903  19.929  0.00  0.00    +0.000 C 
BRANCH   9  10
ATOM     10  N   UNL     1      47.545   5.251  21.232  0.00  0.00    +0.000 NA
ATOM     11  H   UNL     1      46.573   5.165  21.521  0.00  0.00    +0.000 HD
ATOM     12  H   UNL     1      47.995   5.859  21.915  0.00  0.00    +0.000 HD
ENDBRANCH   9  10
ENDBRANCH   3   9
ENDBRANCH   1   7
BRANCH   2  13
ATOM     13  C   UNL     1      46.509   5.279  13.029  0.00  0.00    +0.000 A 
ATOM     14  C   UNL     1      46.844   6.214  12.059  0.00  0.00    +0.000 A 
ATOM     15  C   UNL     1      46.142   6.215  10.858  0.00  0.00    +0.000 A 
ATOM     16  C   UNL     1      45.131   5.280  10.653  0.00  0.00    +0.000 A 
ATOM     17  C   UNL     1      44.844   4.362  11.663  0.00  0.00    +0.000 A 
ATOM     18  N   UNL     1      45.528   4.363  12.840  0.00  0.00    +0.000 NA
BRANCH  17  19
ATOM     19  C   UNL     1      43.748   3.324  11.466  0.00  0.00    +0.000 C 
ATOM     20  F   UNL     1      43.632   2.457  12.517  0.00  0.00    +0.000 F 
ATOM     21  F   UNL     1      42.510   3.874  11.314  0.00  0.00    +0.000 F 
ATOM     22  F   UNL     1      43.949   2.536  10.370  0.00  0.00    +0.000 F 
ENDBRANCH  17  19
ENDBRANCH   2  13
TORSDOF 5
ENDMDL
MODEL 9
REMARK VINA RESULT:    -5.983      5.952      7.131
REMARK INTER + INTRA:          -7.994
REMARK INTER:                  -7.552
REMARK INTRA:                  -0.442
REMARK UNBOUND:                -0.437
REMARK  Name = 
REMARK  5 active torsions:
REMARK  status: ('A' for Active; 'I' for Inactive)
REMARK    1  A    between atoms: N_1  and  C_2
REMARK    2  A    between atoms: C_2  and  C_3
REMARK    3  A    between atoms: C_7  and  C_8
REMARK    4  A    between atoms: C_9  and  C_10
REMARK    5  A    between atoms: C_14  and  C_15
REMARK                            x       y       z     vdW  Elec       q    Type
REMARK                         _______ _______ _______ _____ _____    ______ ____
ROOT
ATOM      1  C   UNL     1      46.199   4.922  13.728  0.00  0.00    +0.000 C 
ATOM      2  C   UNL     1      47.100   5.866  14.057  0.00  0.00    +0.000 C 
ENDROOT
BRANCH   1   7
ATOM      3  C   UNL     1      44.556   4.661  10.350  0.00  0.00    +0.000 A 
ATOM      4  C   UNL     1      43.227   4.980  10.665  0.00  0.00    +0.000 A 
ATOM      5  C   UNL     1      42.872   5.330  11.965  0.00  0.00    +0.000 A 
ATOM      6  C   UNL     1      43.836   5.348  12.975  0.00  0.00    +0.000 A 
ATOM      7  C   UNL     1      45.170   5.038  12.688  0.00  0.00    +0.000 A 
ATOM      8  C   UNL     1      45.518   4.705  11.371  0.00  0.00    +0.000 A 
BRANCH   3   9
ATOM      9  C   UNL     1      44.934   4.213   8.963  0.00  0.00    +0.000 C 
BRANCH   9  10
ATOM     10  N   UNL     1      45.969   5.058   8.381  0.00  0.00    +0.000 NA
ATOM     11  H   UNL     1      46.376   5.634   9.116  0.00  0.00    +0.000 HD
ATOM     12  H   UNL     1      45.530   5.700   7.723  0.00  0.00    +0.000 HD
ENDBRANCH   9  10
ENDBRANCH   3   9
ENDBRANCH   1   7
BRANCH   2  13
ATOM     13  C   UNL     1      48.064   5.692  15.151  0.00  0.00    +0.000 A 
ATOM     14  C   UNL     1      49.072   6.623  15.363  0.00  0.00    +0.000 A 
ATOM     15  C   UNL     1      49.957   6.424  16.419  0.00  0.00    +0.000 A 
ATOM     16  C   UNL     1      49.809   5.309  17.238  0.00  0.00    +0.000 A 
ATOM     17  C   UNL     1      48.772   4.412  16.979  0.00  0.00    +0.000 A 
ATOM     18  N   UNL     1      47.909   4.604  15.943  0.00  0.00    +0.000 NA
BRANCH  17  19
ATOM     19  C   UNL     1      48.581   3.187  17.861  0.00  0.00    +0.000 C 
ATOM     20  F   UNL     1      47.417   2.515  17.606  0.00  0.00    +0.000 F 
ATOM     21  F   UNL     1      49.571   2.260  17.713  0.00  0.00    +0.000 F 
ATOM     22  F   UNL     1      48.540   3.487  19.191  0.00  0.00    +0.000 F 
ENDBRANCH  17  19
ENDBRANCH   2  13
TORSDOF 5
ENDMDL
