MODEL 1
REMARK VINA RESULT:    -8.433      0.000      0.000
REMARK INTER + INTRA:         -12.751
REMARK INTER:                 -11.390
REMARK INTRA:                  -1.361
REMARK UNBOUND:                -1.361
REMARK  Name = 
REMARK  7 active torsions:
REMARK  status: ('A' for Active; 'I' for Inactive)
REMARK    1  A    between atoms: C_1  and  S_2
REMARK    2  A    between atoms: S_2  and  C_5
REMARK    3  A    between atoms: C_8  and  N_9
REMARK    4  A    between atoms: N_9  and  C_10
REMARK    5  A    between atoms: C_10  and  C_11
REMARK    6  A    between atoms: C_15  and  C_16
REMARK    7  A    between atoms: C_24  and  C_25
REMARK                            x       y       z     vdW  Elec       q    Type
REMARK                         _______ _______ _______ _____ _____    ______ ____
ROOT
ATOM      1  N   UNL     1      44.384   6.903  12.577  0.00  0.00    +0.000 N 
ATOM      2  H   UNL     1      43.976   6.918  13.506  0.00  0.00    +0.000 HD
ENDROOT
BRANCH   1   6
ATOM      3  C   UNL     1      48.440   7.764  12.537  0.00  0.00    +0.000 A 
ATOM      4  C   UNL     1      47.461   8.650  12.154  0.00  0.00    +0.000 A 
ATOM      5  N   UNL     1      46.134   8.336  12.178  0.00  0.00    +0.000 NA
ATOM      6  C   UNL     1      45.749   7.085  12.550  0.00  0.00    +0.000 A 
ATOM      7  C   UNL     1      46.723   6.121  12.865  0.00  0.00    +0.000 A 
ATOM      8  C   UNL     1      48.074   6.473  12.866  0.00  0.00    +0.000 A 
BRANCH   3  10
ATOM      9  C   UNL     1      50.075   9.998  12.475  0.00  0.00    +0.000 C 
ATOM     10  S   UNL     1      50.134   8.228  12.613  0.00  0.00    +0.000 S 
ATOM     11  O   UNL     1      50.786   7.694  11.433  0.00  0.00    +0.000 OA
ATOM     12  O   UNL     1      50.606   7.902  13.941  0.00  0.00    +0.000 OA
ENDBRANCH   3  10
BRANCH   7  13
ATOM     13  C   UNL     1      46.435   4.775  13.230  0.00  0.00    +0.000 C 
ATOM     14  N   UNL     1      46.213   3.668  13.505  0.00  0.00    +0.000 NA
ENDBRANCH   7  13
ENDBRANCH   1   6
BRANCH   1  15
ATOM     15  C   UNL     1      43.571   6.547  11.434  0.00  0.00    +0.000 C 
BRANCH  15  16
ATOM     16  C   UNL     1      43.639   5.094  11.053  0.00  0.00    +0.000 A 
ATOM     17  C   UNL     1      43.027   4.103  11.824  0.00  0.00    +0.000 A 
ATOM     18  C   UNL     1      43.230   2.777  11.480  0.00  0.00    +0.000 A 
ATOM     19  N   UNL     1      44.005   2.380  10.449  0.00  0.00    +0.000 NA
ATOM     20  C   UNL     1      44.623   3.342   9.718  0.00  0.00    +0.000 A 
ATOM     21  C   UNL     1      44.448   4.696   9.989  0.00  0.00    +0.000 A 
BRANCH  20  22
ATOM     22  C   UNL     1      45.492   2.877   8.626  0.00  0.00    +0.000 A 
ATOM     23  C   UNL     1      45.964   3.759   7.632  0.00  0.00    +0.000 A 
ATOM     24  C   UNL     1      46.752   3.310   6.571  0.00  0.00    +0.000 A 
ATOM     25  C   UNL     1      47.092   1.965   6.489  0.00  0.00    +0.000 A 
ATOM     26  C   UNL     1      46.650   1.087   7.471  0.00  0.00    +0.000 A 
ATOM     27  F   UNL     1      46.979  -0.209   7.390  0.00  0.00    +0.000 F 
ATOM     28  C   UNL     1      45.866   1.528   8.530  0.00  0.00    +0.000 A 
ENDBRANCH  20  22
ENDBRANCH  15  16
ENDBRANCH   1  15
TORSDOF 6
ENDMDL
MODEL 2
REMARK VINA RESULT:    -7.961      1.155      2.173
REMARK INTER + INTRA:         -12.114
REMARK INTER:                 -11.133
REMARK INTRA:                  -0.981
REMARK UNBOUND:                -1.361
REMARK  Name = 
REMARK  7 active torsions:
REMARK  status: ('A' for Active; 'I' for Inactive)
REMARK    1  A    between atoms: C_1  and  S_2
REMARK    2  A    between atoms: S_2  and  C_5
REMARK    3  A    between atoms: C_8  and  N_9
REMARK    4  A    between atoms: N_9  and  C_10
REMARK    5  A    between atoms: C_10  and  C_11
REMARK    6  A    between atoms: C_15  and  C_16
REMARK    7  A    between atoms: C_24  and  C_25
REMARK                            x       y       z     vdW  Elec       q    Type
REMARK                         _______ _______ _______ _____ _____    ______ ____
ROOT
ATOM      1  N   UNL     1      44.325   6.933  12.531  0.00  0.00    +0.000 N 
ATOM      2  H   UNL     1      44.000   6.735  13.471  0.00  0.00    +0.000 HD
ENDROOT
BRANCH   1   6
ATOM      3  C   UNL     1      48.288   8.117  12.232  0.00  0.00    +0.000 A 
ATOM      4  C   UNL     1      47.887   6.833  12.518  0.00  0.00    +0.000 A 
ATOM      5  N   UNL     1      46.574   6.476  12.610  0.00  0.00    +0.000 NA
ATOM      6  C   UNL     1      45.611   7.424  12.461  0.00  0.00    +0.000 A 
ATOM      7  C   UNL     1      45.979   8.765  12.255  0.00  0.00    +0.000 A 
ATOM      8  C   UNL     1      47.327   9.105  12.132  0.00  0.00    +0.000 A 
BRANCH   3  10
ATOM      9  C   UNL     1      50.687   8.262  13.607  0.00  0.00    +0.000 C 
ATOM     10  S   UNL     1      49.980   8.532  12.000  0.00  0.00    +0.000 S 
ATOM     11  O   UNL     1      50.045   9.948  11.698  0.00  0.00    +0.000 OA
ATOM     12  O   UNL     1      50.540   7.548  11.098  0.00  0.00    +0.000 OA
ENDBRANCH   3  10
BRANCH   7  13
ATOM     13  C   UNL     1      45.055   9.842  12.124  0.00  0.00    +0.000 C 
ATOM     14  N   UNL     1      44.322  10.737  12.009  0.00  0.00    +0.000 NA
ENDBRANCH   7  13
ENDBRANCH   1   6
BRANCH   1  15
ATOM     15  C   UNL     1      43.520   6.550  11.391  0.00  0.00    +0.000 C 
BRANCH  15  16
ATOM     16  C   UNL     1      43.604   5.091  11.034  0.00  0.00    +0.000 A 
ATOM     17  C   UNL     1      43.011   4.106  11.827  0.00  0.00    +0.000 A 
ATOM     18  C   UNL     1      43.229   2.777  11.504  0.00  0.00    +0.000 A 
ATOM     19  N   UNL     1      44.000   2.373  10.473  0.00  0.00    +0.000 NA
ATOM     20  C   UNL     1      44.600   3.329   9.720  0.00  0.00    +0.000 A 
ATOM     21  C   UNL     1      44.409   4.686   9.970  0.00  0.00    +0.000 A 
BRANCH  20  22
ATOM     22  C   UNL     1      45.466   2.857   8.629  0.00  0.00    +0.000 A 
ATOM     23  C   UNL     1      45.912   3.727   7.612  0.00  0.00    +0.000 A 
ATOM     24  C   UNL     1      46.697   3.269   6.552  0.00  0.00    +0.000 A 
ATOM     25  C   UNL     1      47.060   1.929   6.495  0.00  0.00    +0.000 A 
ATOM     26  C   UNL     1      46.644   1.064   7.500  0.00  0.00    +0.000 A 
ATOM     27  F   UNL     1      46.996  -0.227   7.443  0.00  0.00    +0.000 F 
ATOM     28  C   UNL     1      45.863   1.513   8.558  0.00  0.00    +0.000 A 
ENDBRANCH  20  22
ENDBRANCH  15  16
ENDBRANCH   1  15
TORSDOF 6
ENDMDL
MODEL 3
REMARK VINA RESULT:    -7.943      2.721      3.467
REMARK INTER + INTRA:         -12.090
REMARK INTER:                 -11.016
REMARK INTRA:                  -1.075
REMARK UNBOUND:                -1.361
REMARK  Name = 
REMARK  7 active torsions:
REMARK  status: ('A' for Active; 'I' for Inactive)
REMARK    1  A    between atoms: C_1  and  S_2
REMARK    2  A    between atoms: S_2  and  C_5
REMARK    3  A    between atoms: C_8  and  N_9
REMARK    4  A    between atoms: N_9  and  C_10
REMARK    5  A    between atoms: C_10  and  C_11
REMARK    6  A    between atoms: C_15  and  C_16
REMARK    7  A    between atoms: C_24  and  C_25
REMARK                            x       y       z     vdW  Elec       q    Type
REMARK                         _______ _______ _______ _____ _____    ______ ____
ROOT
ATOM      1  N   UNL     1      47.364   6.518  12.374  0.00  0.00    +0.000 N 
ATOM      2  H   UNL     1      48.178   6.568  11.770  0.00  0.00    +0.000 HD
ENDROOT
BRANCH   1   6
ATOM      3  C   UNL     1      48.181   5.445  16.295  0.00  0.00    +0.000 A 
ATOM      4  C   UNL     1      48.662   6.584  15.691  0.00  0.00    +0.000 A 
ATOM      5  N   UNL     1      48.375   6.908  14.398  0.00  0.00    +0.000 NA
ATOM      6  C   UNL     1      47.622   6.060  13.647  0.00  0.00    +0.000 A 
ATOM      7  C   UNL     1      47.184   4.843  14.198  0.00  0.00    +0.000 A 
ATOM      8  C   UNL     1      47.461   4.545  15.533  0.00  0.00    +0.000 A 
BRANCH   3  10
ATOM      9  C   UNL     1      48.796   3.362  18.012  0.00  0.00    +0.000 C 
ATOM     10  S   UNL     1      48.464   5.107  17.996  0.00  0.00    +0.000 S 
ATOM     11  O   UNL     1      47.220   5.348  18.702  0.00  0.00    +0.000 OA
ATOM     12  O   UNL     1      49.682   5.794  18.370  0.00  0.00    +0.000 OA
ENDBRANCH   3  10
BRANCH   7  13
ATOM     13  C   UNL     1      46.424   3.867  13.492  0.00  0.00    +0.000 C 
ATOM     14  N   UNL     1      45.802   3.087  12.894  0.00  0.00    +0.000 NA
ENDBRANCH   7  13
ENDBRANCH   1   6
BRANCH   1  15
ATOM     15  C   UNL     1      46.098   7.058  11.926  0.00  0.00    +0.000 C 
BRANCH  15  16
ATOM     16  C   UNL     1      45.273   6.108  11.104  0.00  0.00    +0.000 A 
ATOM     17  C   UNL     1      43.922   5.884  11.374  0.00  0.00    +0.000 A 
ATOM     18  C   UNL     1      43.255   4.908  10.653  0.00  0.00    +0.000 A 
ATOM     19  N   UNL     1      43.840   4.141   9.709  0.00  0.00    +0.000 NA
ATOM     20  C   UNL     1      45.161   4.339   9.467  0.00  0.00    +0.000 A 
ATOM     21  C   UNL     1      45.892   5.317  10.136  0.00  0.00    +0.000 A 
BRANCH  20  22
ATOM     22  C   UNL     1      45.780   3.461   8.462  0.00  0.00    +0.000 A 
ATOM     23  C   UNL     1      46.276   3.970   7.243  0.00  0.00    +0.000 A 
ATOM     24  C   UNL     1      46.823   3.131   6.270  0.00  0.00    +0.000 A 
ATOM     25  C   UNL     1      46.893   1.763   6.504  0.00  0.00    +0.000 A 
ATOM     26  C   UNL     1      46.427   1.249   7.708  0.00  0.00    +0.000 A 
ATOM     27  F   UNL     1      46.496  -0.070   7.931  0.00  0.00    +0.000 F 
ATOM     28  C   UNL     1      45.882   2.079   8.681  0.00  0.00    +0.000 A 
ENDBRANCH  20  22
ENDBRANCH  15  16
ENDBRANCH   1  15
TORSDOF 6
ENDMDL
MODEL 4
REMARK VINA RESULT:    -7.914      2.827      3.694
REMARK INTER + INTRA:         -12.051
REMARK INTER:                 -11.429
REMARK INTRA:                  -0.622
REMARK UNBOUND:                -1.361
REMARK  Name = 
REMARK  7 active torsions:
REMARK  status: ('A' for Active; 'I' for Inactive)
REMARK    1  A    between atoms: C_1  and  S_2
REMARK    2  A    between atoms: S_2  and  C_5
REMARK    3  A    between atoms: C_8  and  N_9
REMARK    4  A    between atoms: N_9  and  C_10
REMARK    5  A    between atoms: C_10  and  C_11
REMARK    6  A    between atoms: C_15  and  C_16
REMARK    7  A    between atoms: C_24  and  C_25
REMARK                            x       y       z     vdW  Elec       q    Type
REMARK                         _______ _______ _______ _____ _____    ______ ____
ROOT
ATOM      1  N   UNL     1      46.972   6.864  12.150  0.00  0.00    +0.000 N 
ATOM      2  H   UNL     1      47.801   7.238  11.699  0.00  0.00    +0.000 HD
ENDROOT
BRANCH   1   6
ATOM      3  C   UNL     1      47.593   4.650  15.600  0.00  0.00    +0.000 A 
ATOM      4  C   UNL     1      46.667   4.329  14.634  0.00  0.00    +0.000 A 
ATOM      5  N   UNL     1      46.487   5.079  13.510  0.00  0.00    +0.000 NA
ATOM      6  C   UNL     1      47.211   6.218  13.343  0.00  0.00    +0.000 A 
ATOM      7  C   UNL     1      48.105   6.630  14.347  0.00  0.00    +0.000 A 
ATOM      8  C   UNL     1      48.299   5.831  15.475  0.00  0.00    +0.000 A 
BRANCH   3  10
ATOM      9  C   UNL     1      48.392   4.745  18.249  0.00  0.00    +0.000 C 
ATOM     10  S   UNL     1      47.893   3.605  16.981  0.00  0.00    +0.000 S 
ATOM     11  O   UNL     1      49.022   2.757  16.650  0.00  0.00    +0.000 OA
ATOM     12  O   UNL     1      46.620   3.037  17.371  0.00  0.00    +0.000 OA
ENDBRANCH   3  10
BRANCH   7  13
ATOM     13  C   UNL     1      48.883   7.822  14.292  0.00  0.00    +0.000 C 
ATOM     14  N   UNL     1      49.517   8.793  14.220  0.00  0.00    +0.000 NA
ENDBRANCH   7  13
ENDBRANCH   1   6
BRANCH   1  15
ATOM     15  C   UNL     1      45.661   7.168  11.618  0.00  0.00    +0.000 C 
BRANCH  15  16
ATOM     16  C   UNL     1      44.974   6.004  10.958  0.00  0.00    +0.000 A 
ATOM     17  C   UNL     1      43.726   5.549  11.386  0.00  0.00    +0.000 A 
ATOM     18  C   UNL     1      43.207   4.400  10.812  0.00  0.00    +0.000 A 
ATOM     19  N   UNL     1      43.848   3.678   9.869  0.00  0.00    +0.000 NA
ATOM     20  C   UNL     1      45.074   4.105   9.474  0.00  0.00    +0.000 A 
ATOM     21  C   UNL     1      45.650   5.263   9.989  0.00  0.00    +0.000 A 
BRANCH  20  22
ATOM     22  C   UNL     1      45.765   3.275   8.475  0.00  0.00    +0.000 A 
ATOM     23  C   UNL     1      46.306   3.834   7.298  0.00  0.00    +0.000 A 
ATOM     24  C   UNL     1      46.922   3.040   6.329  0.00  0.00    +0.000 A 
ATOM     25  C   UNL     1      47.017   1.668   6.524  0.00  0.00    +0.000 A 
ATOM     26  C   UNL     1      46.506   1.105   7.686  0.00  0.00    +0.000 A 
ATOM     27  F   UNL     1      46.599  -0.218   7.872  0.00  0.00    +0.000 F 
ATOM     28  C   UNL     1      45.892   1.889   8.656  0.00  0.00    +0.000 A 
ENDBRANCH  20  22
ENDBRANCH  15  16
ENDBRANCH   1  15
TORSDOF 6
ENDMDL
MODEL 5
REMARK VINA RESULT:    -7.365      2.393      2.825
REMARK INTER + INTRA:         -11.309
REMARK INTER:                 -10.602
REMARK INTRA:                  -0.707
REMARK UNBOUND:                -1.361
REMARK  Name = 
REMARK  7 active torsions:
REMARK  status: ('A' for Active; 'I' for Inactive)
REMARK    1  A    between atoms: C_1  and  S_2
REMARK    2  A    between atoms: S_2  and  C_5
REMARK    3  A    between atoms: C_8  and  N_9
REMARK    4  A    between atoms: N_9  and  C_10
REMARK    5  A    between atoms: C_10  and  C_11
REMARK    6  A    between atoms: C_15  and  C_16
REMARK    7  A    between atoms: C_24  and  C_25
REMARK                            x       y       z     vdW  Elec       q    Type
REMARK                         _______ _______ _______ _____ _____    ______ ____
ROOT
ATOM      1  N   UNL     1      46.210   4.559  14.204  0.00  0.00    +0.000 N 
ATOM      2  H   UNL     1      46.097   3.564  14.366  0.00  0.00    +0.000 HD
ENDROOT
BRANCH   1   6
ATOM      3  C   UNL     1      49.398   6.527  15.981  0.00  0.00    +0.000 A 
ATOM      4  C   UNL     1      48.955   6.775  14.703  0.00  0.00    +0.000 A 
ATOM      5  N   UNL     1      47.903   6.109  14.147  0.00  0.00    +0.000 NA
ATOM      6  C   UNL     1      47.285   5.126  14.854  0.00  0.00    +0.000 A 
ATOM      7  C   UNL     1      47.761   4.780  16.131  0.00  0.00    +0.000 A 
ATOM      8  C   UNL     1      48.819   5.496  16.695  0.00  0.00    +0.000 A 
BRANCH   3  10
ATOM      9  C   UNL     1      50.776   8.909  15.673  0.00  0.00    +0.000 C 
ATOM     10  S   UNL     1      50.677   7.479  16.721  0.00  0.00    +0.000 S 
ATOM     11  O   UNL     1      51.910   6.726  16.594  0.00  0.00    +0.000 OA
ATOM     12  O   UNL     1      50.194   7.909  18.016  0.00  0.00    +0.000 OA
ENDBRANCH   3  10
BRANCH   7  13
ATOM     13  C   UNL     1      47.214   3.744  16.941  0.00  0.00    +0.000 C 
ATOM     14  N   UNL     1      46.770   2.881  17.580  0.00  0.00    +0.000 NA
ENDBRANCH   7  13
ENDBRANCH   1   6
BRANCH   1  15
ATOM     15  C   UNL     1      45.382   5.232  13.227  0.00  0.00    +0.000 C 
BRANCH  15  16
ATOM     16  C   UNL     1      44.777   4.322  12.194  0.00  0.00    +0.000 A 
ATOM     17  C   UNL     1      43.631   3.570  12.458  0.00  0.00    +0.000 A 
ATOM     18  C   UNL     1      43.199   2.665  11.504  0.00  0.00    +0.000 A 
ATOM     19  N   UNL     1      43.833   2.451  10.331  0.00  0.00    +0.000 NA
ATOM     20  C   UNL     1      44.963   3.161  10.087  0.00  0.00    +0.000 A 
ATOM     21  C   UNL     1      45.446   4.105  10.990  0.00  0.00    +0.000 A 
BRANCH  20  22
ATOM     22  C   UNL     1      45.654   2.876   8.820  0.00  0.00    +0.000 A 
ATOM     23  C   UNL     1      45.966   3.902   7.904  0.00  0.00    +0.000 A 
ATOM     24  C   UNL     1      46.582   3.626   6.681  0.00  0.00    +0.000 A 
ATOM     25  C   UNL     1      46.907   2.314   6.356  0.00  0.00    +0.000 A 
ATOM     26  C   UNL     1      46.623   1.296   7.257  0.00  0.00    +0.000 A 
ATOM     27  F   UNL     1      46.937   0.032   6.941  0.00  0.00    +0.000 F 
ATOM     28  C   UNL     1      46.011   1.563   8.476  0.00  0.00    +0.000 A 
ENDBRANCH  20  22
ENDBRANCH  15  16
ENDBRANCH   1  15
TORSDOF 6
ENDMDL
MODEL 6
REMARK VINA RESULT:    -7.209      3.890      7.130
REMARK INTER + INTRA:         -11.099
REMARK INTER:                 -10.102
REMARK INTRA:                  -0.997
REMARK UNBOUND:                -1.361
REMARK  Name = 
REMARK  7 active torsions:
REMARK  status: ('A' for Active; 'I' for Inactive)
REMARK    1  A    between atoms: C_1  and  S_2
REMARK    2  A    between atoms: S_2  and  C_5
REMARK    3  A    between atoms: C_8  and  N_9
REMARK    4  A    between atoms: N_9  and  C_10
REMARK    5  A    between atoms: C_10  and  C_11
REMARK    6  A    between atoms: C_15  and  C_16
REMARK    7  A    between atoms: C_24  and  C_25
REMARK                            x       y       z     vdW  Elec       q    Type
REMARK                         _______ _______ _______ _____ _____    ______ ____
ROOT
ATOM      1  N   UNL     1      44.300   5.527  10.365  0.00  0.00    +0.000 N 
ATOM      2  H   UNL     1      43.287   5.480  10.402  0.00  0.00    +0.000 HD
ENDROOT
BRANCH   1   6
ATOM      3  C   UNL     1      46.302   2.885   7.875  0.00  0.00    +0.000 A 
ATOM      4  C   UNL     1      46.360   4.254   7.752  0.00  0.00    +0.000 A 
ATOM      5  N   UNL     1      45.688   5.096   8.588  0.00  0.00    +0.000 NA
ATOM      6  C   UNL     1      44.888   4.578   9.559  0.00  0.00    +0.000 A 
ATOM      7  C   UNL     1      44.732   3.185   9.663  0.00  0.00    +0.000 A 
ATOM      8  C   UNL     1      45.453   2.339   8.819  0.00  0.00    +0.000 A 
BRANCH   3  10
ATOM      9  C   UNL     1      46.703   2.198   5.223  0.00  0.00    +0.000 C 
ATOM     10  S   UNL     1      47.268   1.821   6.864  0.00  0.00    +0.000 S 
ATOM     11  O   UNL     1      46.892   0.457   7.181  0.00  0.00    +0.000 OA
ATOM     12  O   UNL     1      48.643   2.262   6.973  0.00  0.00    +0.000 OA
ENDBRANCH   3  10
BRANCH   7  13
ATOM     13  C   UNL     1      43.893   2.539  10.616  0.00  0.00    +0.000 C 
ATOM     14  N   UNL     1      43.197   1.996  11.373  0.00  0.00    +0.000 NA
ENDBRANCH   7  13
ENDBRANCH   1   6
BRANCH   1  15
ATOM     15  C   UNL     1      44.996   6.629  10.995  0.00  0.00    +0.000 C 
BRANCH  15  16
ATOM     16  C   UNL     1      46.117   6.215  11.907  0.00  0.00    +0.000 A 
ATOM     17  C   UNL     1      45.943   5.237  12.889  0.00  0.00    +0.000 A 
ATOM     18  C   UNL     1      46.982   4.990  13.769  0.00  0.00    +0.000 A 
ATOM     19  N   UNL     1      48.157   5.655  13.748  0.00  0.00    +0.000 NA
ATOM     20  C   UNL     1      48.316   6.625  12.813  0.00  0.00    +0.000 A 
ATOM     21  C   UNL     1      47.324   6.913  11.879  0.00  0.00    +0.000 A 
BRANCH  20  22
ATOM     22  C   UNL     1      49.590   7.358  12.840  0.00  0.00    +0.000 A 
ATOM     23  C   UNL     1      50.222   7.693  14.056  0.00  0.00    +0.000 A 
ATOM     24  C   UNL     1      51.409   8.429  14.083  0.00  0.00    +0.000 A 
ATOM     25  C   UNL     1      51.992   8.836  12.890  0.00  0.00    +0.000 A 
ATOM     26  C   UNL     1      51.392   8.497  11.684  0.00  0.00    +0.000 A 
ATOM     27  F   UNL     1      51.957   8.891  10.535  0.00  0.00    +0.000 F 
ATOM     28  C   UNL     1      50.211   7.765  11.649  0.00  0.00    +0.000 A 
ENDBRANCH  20  22
ENDBRANCH  15  16
ENDBRANCH   1  15
TORSDOF 6
ENDMDL
MODEL 7
REMARK VINA RESULT:    -7.194      1.852      2.841
REMARK INTER + INTRA:         -11.079
REMARK INTER:                 -10.249
REMARK INTRA:                  -0.830
REMARK UNBOUND:                -1.361
REMARK  Name = 
REMARK  7 active torsions:
REMARK  status: ('A' for Active; 'I' for Inactive)
REMARK    1  A    between atoms: C_1  and  S_2
REMARK    2  A    between atoms: S_2  and  C_5
REMARK    3  A    between atoms: C_8  and  N_9
REMARK    4  A    between atoms: N_9  and  C_10
REMARK    5  A    between atoms: C_10  and  C_11
REMARK    6  A    between atoms: C_15  and  C_16
REMARK    7  A    between atoms: C_24  and  C_25
REMARK                            x       y       z     vdW  Elec       q    Type
REMARK                         _______ _______ _______ _____ _____    ______ ____
ROOT
ATOM      1  N   UNL     1      46.113   6.922  11.731  0.00  0.00    +0.000 N 
ATOM      2  H   UNL     1      46.573   7.173  10.863  0.00  0.00    +0.000 HD
ENDROOT
BRANCH   1   6
ATOM      3  C   UNL     1      48.540   7.037  15.091  0.00  0.00    +0.000 A 
ATOM      4  C   UNL     1      47.872   5.915  14.661  0.00  0.00    +0.000 A 
ATOM      5  N   UNL     1      47.080   5.910  13.551  0.00  0.00    +0.000 NA
ATOM      6  C   UNL     1      46.896   7.064  12.856  0.00  0.00    +0.000 A 
ATOM      7  C   UNL     1      47.490   8.254  13.311  0.00  0.00    +0.000 A 
ATOM      8  C   UNL     1      48.323   8.231  14.430  0.00  0.00    +0.000 A 
BRANCH   3  10
ATOM      9  C   UNL     1      48.571   6.772  17.847  0.00  0.00    +0.000 C 
ATOM     10  S   UNL     1      49.650   6.993  16.453  0.00  0.00    +0.000 S 
ATOM     11  O   UNL     1      50.272   8.299  16.552  0.00  0.00    +0.000 OA
ATOM     12  O   UNL     1      50.447   5.793  16.314  0.00  0.00    +0.000 OA
ENDBRANCH   3  10
BRANCH   7  13
ATOM     13  C   UNL     1      47.333   9.523  12.682  0.00  0.00    +0.000 C 
ATOM     14  N   UNL     1      47.218  10.549  12.147  0.00  0.00    +0.000 NA
ENDBRANCH   7  13
ENDBRANCH   1   6
BRANCH   1  15
ATOM     15  C   UNL     1      44.699   6.612  11.738  0.00  0.00    +0.000 C 
BRANCH  15  16
ATOM     16  C   UNL     1      44.359   5.256  11.184  0.00  0.00    +0.000 A 
ATOM     17  C   UNL     1      43.417   4.427  11.797  0.00  0.00    +0.000 A 
ATOM     18  C   UNL     1      43.240   3.146  11.302  0.00  0.00    +0.000 A 
ATOM     19  N   UNL     1      43.941   2.639  10.266  0.00  0.00    +0.000 NA
ATOM     20  C   UNL     1      44.877   3.435   9.689  0.00  0.00    +0.000 A 
ATOM     21  C   UNL     1      45.095   4.742  10.117  0.00  0.00    +0.000 A 
BRANCH  20  22
ATOM     22  C   UNL     1      45.652   2.841   8.589  0.00  0.00    +0.000 A 
ATOM     23  C   UNL     1      46.119   3.621   7.511  0.00  0.00    +0.000 A 
ATOM     24  C   UNL     1      46.817   3.049   6.444  0.00  0.00    +0.000 A 
ATOM     25  C   UNL     1      47.069   1.683   6.442  0.00  0.00    +0.000 A 
ATOM     26  C   UNL     1      46.633   0.905   7.507  0.00  0.00    +0.000 A 
ATOM     27  F   UNL     1      46.878  -0.412   7.503  0.00  0.00    +0.000 F 
ATOM     28  C   UNL     1      45.938   1.467   8.572  0.00  0.00    +0.000 A 
ENDBRANCH  20  22
ENDBRANCH  15  16
ENDBRANCH   1  15
TORSDOF 6
ENDMDL
MODEL 8
REMARK VINA RESULT:    -6.821      1.935      2.204
REMARK INTER + INTRA:         -10.575
REMARK INTER:                  -9.781
REMARK INTRA:                  -0.793
REMARK UNBOUND:                -1.361
REMARK  Name = 
REMARK  7 active torsions:
REMARK  status: ('A' for Active; 'I' for Inactive)
REMARK    1  A    between atoms: C_1  and  S_2
REMARK    2  A    between atoms: S_2  and  C_5
REMARK    3  A    between atoms: C_8  and  N_9
REMARK    4  A    between atoms: N_9  and  C_10
REMARK    5  A    between atoms: C_10  and  C_11
REMARK    6  A    between atoms: C_15  and  C_16
REMARK    7  A    between atoms: C_24  and  C_25
REMARK                            x       y       z     vdW  Elec       q    Type
REMARK                         _______ _______ _______ _____ _____    ______ ____
ROOT
ATOM      1  N   UNL     1      46.737   6.970  11.730  0.00  0.00    +0.000 N 
ATOM      2  H   UNL     1      47.287   6.652  10.939  0.00  0.00    +0.000 HD
ENDROOT
BRANCH   1   6
ATOM      3  C   UNL     1      48.830   9.052  14.641  0.00  0.00    +0.000 A 
ATOM      4  C   UNL     1      48.497   9.571  13.412  0.00  0.00    +0.000 A 
ATOM      5  N   UNL     1      47.807   8.860  12.476  0.00  0.00    +0.000 NA
ATOM      6  C   UNL     1      47.468   7.568  12.733  0.00  0.00    +0.000 A 
ATOM      7  C   UNL     1      47.866   6.970  13.942  0.00  0.00    +0.000 A 
ATOM      8  C   UNL     1      48.543   7.726  14.901  0.00  0.00    +0.000 A 
BRANCH   3  10
ATOM      9  C   UNL     1      49.191   9.181  17.384  0.00  0.00    +0.000 C 
ATOM     10  S   UNL     1      49.613  10.024  15.878  0.00  0.00    +0.000 S 
ATOM     11  O   UNL     1      48.973  11.325  15.881  0.00  0.00    +0.000 OA
ATOM     12  O   UNL     1      51.041   9.895  15.682  0.00  0.00    +0.000 OA
ENDBRANCH   3  10
BRANCH   7  13
ATOM     13  C   UNL     1      47.597   5.617  14.297  0.00  0.00    +0.000 C 
ATOM     14  N   UNL     1      47.394   4.505  14.566  0.00  0.00    +0.000 NA
ENDBRANCH   7  13
ENDBRANCH   1   6
BRANCH   1  15
ATOM     15  C   UNL     1      45.291   6.923  11.672  0.00  0.00    +0.000 C 
BRANCH  15  16
ATOM     16  C   UNL     1      44.735   5.666  11.064  0.00  0.00    +0.000 A 
ATOM     17  C   UNL     1      43.618   5.022  11.601  0.00  0.00    +0.000 A 
ATOM     18  C   UNL     1      43.233   3.806  11.064  0.00  0.00    +0.000 A 
ATOM     19  N   UNL     1      43.887   3.190  10.056  0.00  0.00    +0.000 NA
ATOM     20  C   UNL     1      44.989   3.801   9.554  0.00  0.00    +0.000 A 
ATOM     21  C   UNL     1      45.424   5.037  10.028  0.00  0.00    +0.000 A 
BRANCH  20  22
ATOM     22  C   UNL     1      45.704   3.087   8.485  0.00  0.00    +0.000 A 
ATOM     23  C   UNL     1      46.139   3.750   7.318  0.00  0.00    +0.000 A 
ATOM     24  C   UNL     1      46.777   3.063   6.284  0.00  0.00    +0.000 A 
ATOM     25  C   UNL     1      47.002   1.697   6.402  0.00  0.00    +0.000 A 
ATOM     26  C   UNL     1      46.596   1.034   7.554  0.00  0.00    +0.000 A 
ATOM     27  F   UNL     1      46.815  -0.283   7.666  0.00  0.00    +0.000 F 
ATOM     28  C   UNL     1      45.961   1.711   8.588  0.00  0.00    +0.000 A 
ENDBRANCH  20  22
ENDBRANCH  15  16
ENDBRANCH   1  15
TORSDOF 6
ENDMDL
MODEL 9
REMARK VINA RESULT:    -6.543      3.977      5.313
REMARK INTER + INTRA:         -10.199
REMARK INTER:                  -9.482
REMARK INTRA:                  -0.716
REMARK UNBOUND:                -1.361
REMARK  Name = 
REMARK  7 active torsions:
REMARK  status: ('A' for Active; 'I' for Inactive)
REMARK    1  A    between atoms: C_1  and  S_2
REMARK    2  A    between atoms: S_2  and  C_5
REMARK    3  A    between atoms: C_8  and  N_9
REMARK    4  A    between atoms: N_9  and  C_10
REMARK    5  A    between atoms: C_10  and  C_11
REMARK    6  A    between atoms: C_15  and  C_16
REMARK    7  A    between atoms: C_24  and  C_25
REMARK                            x       y       z     vdW  Elec       q    Type
REMARK                         _______ _______ _______ _____ _____    ______ ____
ROOT
ATOM      1  N   UNL     1      48.036   6.574  15.164  0.00  0.00    +0.000 N 
ATOM      2  H   UNL     1      47.078   6.396  15.447  0.00  0.00    +0.000 HD
ENDROOT
BRANCH   1   6
ATOM      3  C   UNL     1      51.059   5.080  17.576  0.00  0.00    +0.000 A 
ATOM      4  C   UNL     1      51.225   6.112  16.683  0.00  0.00    +0.000 A 
ATOM      5  N   UNL     1      50.210   6.581  15.903  0.00  0.00    +0.000 NA
ATOM      6  C   UNL     1      48.989   5.985  15.964  0.00  0.00    +0.000 A 
ATOM      7  C   UNL     1      48.799   4.869  16.800  0.00  0.00    +0.000 A 
ATOM      8  C   UNL     1      49.842   4.426  17.614  0.00  0.00    +0.000 A 
BRANCH   3  10
ATOM      9  C   UNL     1      52.656   2.894  18.158  0.00  0.00    +0.000 C 
ATOM     10  S   UNL     1      52.348   4.571  18.657  0.00  0.00    +0.000 S 
ATOM     11  O   UNL     1      51.810   4.561  20.004  0.00  0.00    +0.000 OA
ATOM     12  O   UNL     1      53.517   5.355  18.324  0.00  0.00    +0.000 OA
ENDBRANCH   3  10
BRANCH   7  13
ATOM     13  C   UNL     1      47.576   4.148  16.913  0.00  0.00    +0.000 C 
ATOM     14  N   UNL     1      46.567   3.576  16.988  0.00  0.00    +0.000 NA
ENDBRANCH   7  13
ENDBRANCH   1   6
BRANCH   1  15
ATOM     15  C   UNL     1      48.306   7.257  13.916  0.00  0.00    +0.000 C 
BRANCH  15  16
ATOM     16  C   UNL     1      47.133   7.321  12.977  0.00  0.00    +0.000 A 
ATOM     17  C   UNL     1      46.243   8.397  12.986  0.00  0.00    +0.000 A 
ATOM     18  C   UNL     1      45.121   8.334  12.178  0.00  0.00    +0.000 A 
ATOM     19  N   UNL     1      44.822   7.280  11.389  0.00  0.00    +0.000 NA
ATOM     20  C   UNL     1      45.672   6.222  11.403  0.00  0.00    +0.000 A 
ATOM     21  C   UNL     1      46.833   6.223  12.173  0.00  0.00    +0.000 A 
BRANCH  20  22
ATOM     22  C   UNL     1      45.300   5.072  10.565  0.00  0.00    +0.000 A 
ATOM     23  C   UNL     1      44.585   3.976  11.092  0.00  0.00    +0.000 A 
ATOM     24  C   UNL     1      44.271   2.864  10.308  0.00  0.00    +0.000 A 
ATOM     25  C   UNL     1      44.658   2.833   8.974  0.00  0.00    +0.000 A 
ATOM     26  C   UNL     1      45.346   3.914   8.435  0.00  0.00    +0.000 A 
ATOM     27  F   UNL     1      45.718   3.881   7.149  0.00  0.00    +0.000 F 
ATOM     28  C   UNL     1      45.661   5.024   9.210  0.00  0.00    +0.000 A 
ENDBRANCH  20  22
ENDBRANCH  15  16
ENDBRANCH   1  15
TORSDOF 6
ENDMDL
