MODEL 1
REMARK VINA RESULT:    -8.284      0.000      0.000
REMARK INTER + INTRA:         -13.368
REMARK INTER:                 -12.400
REMARK INTRA:                  -0.969
REMARK UNBOUND:                -0.969
REMARK  Name = 
REMARK  10 active torsions:
REMARK  status: ('A' for Active; 'I' for Inactive)
REMARK    1  A    between atoms: C_1  and  C_2
REMARK    2  A    between atoms: C_2  and  C_3
REMARK    3  A    between atoms: C_3  and  O_4
REMARK    4  A    between atoms: C_3  and  C_5
REMARK    5  A    between atoms: C_3  and  C_16
REMARK    6  A    between atoms: C_5  and  O_6
REMARK    7  A    between atoms: O_6  and  C_7
REMARK    8  A    between atoms: C_10  and  C_11
REMARK    9  A    between atoms: C_20  and  O_21
REMARK   10  A    between atoms: O_21  and  C_22
REMARK                            x       y       z     vdW  Elec       q    Type
REMARK                         _______ _______ _______ _____ _____    ______ ____
ROOT
ATOM      1  C   UNL     1      44.539   4.697  12.016  0.00  0.00    +0.000 C 
ENDROOT
BRANCH   1   2
ATOM      2  C   UNL     1      45.708   4.967  12.971  0.00  0.00    +0.000 A 
ATOM      3  C   UNL     1      46.654   5.961  12.653  0.00  0.00    +0.000 A 
ATOM      4  C   UNL     1      47.748   6.211  13.478  0.00  0.00    +0.000 A 
ATOM      5  C   UNL     1      47.907   5.493  14.658  0.00  0.00    +0.000 A 
ATOM      6  C   UNL     1      46.948   4.556  15.038  0.00  0.00    +0.000 A 
ATOM      7  C   UNL     1      45.875   4.269  14.184  0.00  0.00    +0.000 A 
BRANCH   6   8
ATOM      8  O   UNL     1      47.025   3.841  16.211  0.00  0.00    +0.000 OA
BRANCH   8   9
ATOM      9  C   UNL     1      48.151   3.161  16.524  0.00  0.00    +0.000 A 
ATOM     10  C   UNL     1      49.083   3.367  17.562  0.00  0.00    +0.000 A 
ATOM     11  C   UNL     1      50.087   2.466  17.298  0.00  0.00    +0.000 A 
ATOM     12  N   UNL     1      49.672   1.750  16.212  0.00  0.00    +0.000 N 
ATOM     13  N   UNL     1      48.480   2.141  15.730  0.00  0.00    +0.000 NA
ATOM     14  H   UNL     1      50.157   0.995  15.737  0.00  0.00    +0.000 HD
ENDBRANCH   8   9
ENDBRANCH   6   8
ENDBRANCH   1   2
BRANCH   1  16
ATOM     15  C   UNL     1      42.161   5.759  11.751  0.00  0.00    +0.000 C 
ATOM     16  C   UNL     1      43.191   5.103  12.658  0.00  0.00    +0.000 C 
ENDBRANCH   1  16
BRANCH   1  17
ATOM     17  O   UNL     1      44.684   5.590  10.882  0.00  0.00    +0.000 OA
ATOM     18  H   UNL     1      45.278   5.132  10.260  0.00  0.00    +0.000 HD
ENDBRANCH   1  17
BRANCH   1  19
ATOM     19  C   UNL     1      44.509   3.258  11.440  0.00  0.00    +0.000 C 
BRANCH  19  20
ATOM     20  O   UNL     1      43.905   3.305  10.127  0.00  0.00    +0.000 OA
BRANCH  20  21
ATOM     21  C   UNL     1      44.803   3.053   9.112  0.00  0.00    +0.000 A 
ATOM     22  C   UNL     1      45.268   1.751   8.990  0.00  0.00    +0.000 A 
ATOM     23  C   UNL     1      46.187   1.465   7.976  0.00  0.00    +0.000 A 
ATOM     24  C   UNL     1      46.603   2.491   7.126  0.00  0.00    +0.000 A 
ATOM     25  C   UNL     1      46.085   3.761   7.337  0.00  0.00    +0.000 A 
ATOM     26  N   UNL     1      45.190   4.064   8.309  0.00  0.00    +0.000 NA
BRANCH  24  27
ATOM     27  C   UNL     1      47.586   2.305   6.037  0.00  0.00    +0.000 C 
ATOM     28  N   UNL     1      47.521   3.161   4.973  0.00  0.00    +0.000 N 
ATOM     29  O   UNL     1      48.445   1.436   6.097  0.00  0.00    +0.000 OA
ATOM     30  H   UNL     1      46.984   4.016   4.984  0.00  0.00    +0.000 HD
ATOM     31  H   UNL     1      48.259   3.080   4.285  0.00  0.00    +0.000 HD
ENDBRANCH  24  27
ENDBRANCH  20  21
ENDBRANCH  19  20
ENDBRANCH   1  19
TORSDOF 9
ENDMDL
MODEL 2
REMARK VINA RESULT:    -8.279      1.312      1.479
REMARK INTER + INTRA:         -13.361
REMARK INTER:                 -12.712
REMARK INTRA:                  -0.649
REMARK UNBOUND:                -0.969
REMARK  Name = 
REMARK  10 active torsions:
REMARK  status: ('A' for Active; 'I' for Inactive)
REMARK    1  A    between atoms: C_1  and  C_2
REMARK    2  A    between atoms: C_2  and  C_3
REMARK    3  A    between atoms: C_3  and  O_4
REMARK    4  A    between atoms: C_3  and  C_5
REMARK    5  A    between atoms: C_3  and  C_16
REMARK    6  A    between atoms: C_5  and  O_6
REMARK    7  A    between atoms: O_6  and  C_7
REMARK    8  A    between atoms: C_10  and  C_11
REMARK    9  A    between atoms: C_20  and  O_21
REMARK   10  A    between atoms: O_21  and  C_22
REMARK                            x       y       z     vdW  Elec       q    Type
REMARK                         _______ _______ _______ _____ _____    ______ ____
ROOT
ATOM      1  C   UNL     1      44.666   6.244  11.996  0.00  0.00    +0.000 C 
ENDROOT
BRANCH   1   2
ATOM      2  C   UNL     1      45.857   6.044  12.942  0.00  0.00    +0.000 A 
ATOM      3  C   UNL     1      46.725   7.121  13.208  0.00  0.00    +0.000 A 
ATOM      4  C   UNL     1      47.836   6.970  14.033  0.00  0.00    +0.000 A 
ATOM      5  C   UNL     1      48.090   5.744  14.639  0.00  0.00    +0.000 A 
ATOM      6  C   UNL     1      47.207   4.681  14.456  0.00  0.00    +0.000 A 
ATOM      7  C   UNL     1      46.118   4.819  13.586  0.00  0.00    +0.000 A 
BRANCH   6   8
ATOM      8  O   UNL     1      47.379   3.455  15.058  0.00  0.00    +0.000 OA
BRANCH   8   9
ATOM      9  C   UNL     1      47.735   3.376  16.360  0.00  0.00    +0.000 A 
ATOM     10  C   UNL     1      49.010   3.410  16.961  0.00  0.00    +0.000 A 
ATOM     11  C   UNL     1      48.765   3.145  18.287  0.00  0.00    +0.000 A 
ATOM     12  N   UNL     1      47.408   3.056  18.408  0.00  0.00    +0.000 N 
ATOM     13  N   UNL     1      46.751   3.214  17.246  0.00  0.00    +0.000 NA
ATOM     14  H   UNL     1      46.864   2.873  19.245  0.00  0.00    +0.000 HD
ENDBRANCH   8   9
ENDBRANCH   6   8
ENDBRANCH   1   2
BRANCH   1  16
ATOM     15  C   UNL     1      42.089   5.797  11.887  0.00  0.00    +0.000 C 
ATOM     16  C   UNL     1      43.447   5.407  12.452  0.00  0.00    +0.000 C 
ENDBRANCH   1  16
BRANCH   1  17
ATOM     17  O   UNL     1      44.229   7.621  12.125  0.00  0.00    +0.000 OA
ATOM     18  H   UNL     1      43.389   7.587  12.618  0.00  0.00    +0.000 HD
ENDBRANCH   1  17
BRANCH   1  19
ATOM     19  C   UNL     1      45.002   6.029  10.498  0.00  0.00    +0.000 C 
BRANCH  19  20
ATOM     20  O   UNL     1      44.280   4.866  10.032  0.00  0.00    +0.000 OA
BRANCH  20  21
ATOM     21  C   UNL     1      45.030   4.066   9.197  0.00  0.00    +0.000 A 
ATOM     22  C   UNL     1      44.925   2.694   9.375  0.00  0.00    +0.000 A 
ATOM     23  C   UNL     1      45.681   1.856   8.550  0.00  0.00    +0.000 A 
ATOM     24  C   UNL     1      46.509   2.423   7.580  0.00  0.00    +0.000 A 
ATOM     25  C   UNL     1      46.549   3.808   7.487  0.00  0.00    +0.000 A 
ATOM     26  N   UNL     1      45.824   4.642   8.272  0.00  0.00    +0.000 NA
BRANCH  24  27
ATOM     27  C   UNL     1      47.366   1.633   6.671  0.00  0.00    +0.000 C 
ATOM     28  N   UNL     1      48.422   2.272   6.081  0.00  0.00    +0.000 N 
ATOM     29  O   UNL     1      47.158   0.444   6.472  0.00  0.00    +0.000 OA
ATOM     30  H   UNL     1      48.758   3.175   6.383  0.00  0.00    +0.000 HD
ATOM     31  H   UNL     1      49.051   1.694   5.539  0.00  0.00    +0.000 HD
ENDBRANCH  24  27
ENDBRANCH  20  21
ENDBRANCH  19  20
ENDBRANCH   1  19
TORSDOF 9
ENDMDL
MODEL 3
REMARK VINA RESULT:    -8.180      1.827      2.348
REMARK INTER + INTRA:         -13.214
REMARK INTER:                 -12.228
REMARK INTRA:                  -0.986
REMARK UNBOUND:                -0.969
REMARK  Name = 
REMARK  10 active torsions:
REMARK  status: ('A' for Active; 'I' for Inactive)
REMARK    1  A    between atoms: C_1  and  C_2
REMARK    2  A    between atoms: C_2  and  C_3
REMARK    3  A    between atoms: C_3  and  O_4
REMARK    4  A    between atoms: C_3  and  C_5
REMARK    5  A    between atoms: C_3  and  C_16
REMARK    6  A    between atoms: C_5  and  O_6
REMARK    7  A    between atoms: O_6  and  C_7
REMARK    8  A    between atoms: C_10  and  C_11
REMARK    9  A    between atoms: C_20  and  O_21
REMARK   10  A    between atoms: O_21  and  C_22
REMARK                            x       y       z     vdW  Elec       q    Type
REMARK                         _______ _______ _______ _____ _____    ______ ____
ROOT
ATOM      1  C   UNL     1      43.532   5.273  11.978  0.00  0.00    +0.000 C 
ENDROOT
BRANCH   1   2
ATOM      2  C   UNL     1      44.780   6.096  12.318  0.00  0.00    +0.000 A 
ATOM      3  C   UNL     1      44.827   7.463  11.983  0.00  0.00    +0.000 A 
ATOM      4  C   UNL     1      45.956   8.235  12.245  0.00  0.00    +0.000 A 
ATOM      5  C   UNL     1      47.057   7.665  12.877  0.00  0.00    +0.000 A 
ATOM      6  C   UNL     1      47.011   6.335  13.289  0.00  0.00    +0.000 A 
ATOM      7  C   UNL     1      45.896   5.546  12.981  0.00  0.00    +0.000 A 
BRANCH   6   8
ATOM      8  O   UNL     1      48.050   5.723  13.954  0.00  0.00    +0.000 OA
BRANCH   8   9
ATOM      9  C   UNL     1      47.899   5.323  15.237  0.00  0.00    +0.000 A 
ATOM     10  C   UNL     1      47.257   4.187  15.768  0.00  0.00    +0.000 A 
ATOM     11  C   UNL     1      47.297   4.382  17.129  0.00  0.00    +0.000 A 
ATOM     12  N   UNL     1      48.005   5.534  17.322  0.00  0.00    +0.000 N 
ATOM     13  N   UNL     1      48.403   6.120  16.179  0.00  0.00    +0.000 NA
ATOM     14  H   UNL     1      48.238   5.986  18.200  0.00  0.00    +0.000 HD
ENDBRANCH   8   9
ENDBRANCH   6   8
ENDBRANCH   1   2
BRANCH   1  16
ATOM     15  C   UNL     1      43.487   2.712  12.522  0.00  0.00    +0.000 C 
ATOM     16  C   UNL     1      43.312   4.143  13.012  0.00  0.00    +0.000 C 
ENDBRANCH   1  16
BRANCH   1  17
ATOM     17  O   UNL     1      42.379   6.139  12.135  0.00  0.00    +0.000 OA
ATOM     18  H   UNL     1      42.469   6.825  11.449  0.00  0.00    +0.000 HD
ENDBRANCH   1  17
BRANCH   1  19
ATOM     19  C   UNL     1      43.493   4.752  10.518  0.00  0.00    +0.000 C 
BRANCH  19  20
ATOM     20  O   UNL     1      44.627   5.300   9.809  0.00  0.00    +0.000 OA
BRANCH  20  21
ATOM     21  C   UNL     1      45.282   4.366   9.035  0.00  0.00    +0.000 A 
ATOM     22  C   UNL     1      45.047   3.029   9.326  0.00  0.00    +0.000 A 
ATOM     23  C   UNL     1      45.703   2.057   8.565  0.00  0.00    +0.000 A 
ATOM     24  C   UNL     1      46.566   2.461   7.545  0.00  0.00    +0.000 A 
ATOM     25  C   UNL     1      46.739   3.823   7.339  0.00  0.00    +0.000 A 
ATOM     26  N   UNL     1      46.112   4.785   8.060  0.00  0.00    +0.000 NA
BRANCH  24  27
ATOM     27  C   UNL     1      47.327   1.520   6.695  0.00  0.00    +0.000 C 
ATOM     28  N   UNL     1      48.380   2.022   5.981  0.00  0.00    +0.000 N 
ATOM     29  O   UNL     1      47.044   0.331   6.651  0.00  0.00    +0.000 OA
ATOM     30  H   UNL     1      48.781   2.932   6.155  0.00  0.00    +0.000 HD
ATOM     31  H   UNL     1      48.946   1.348   5.481  0.00  0.00    +0.000 HD
ENDBRANCH  24  27
ENDBRANCH  20  21
ENDBRANCH  19  20
ENDBRANCH   1  19
TORSDOF 9
ENDMDL
MODEL 4
REMARK VINA RESULT:    -7.727      2.000      8.536
REMARK INTER + INTRA:         -12.536
REMARK INTER:                 -11.671
REMARK INTRA:                  -0.865
REMARK UNBOUND:                -0.969
REMARK  Name = 
REMARK  10 active torsions:
REMARK  status: ('A' for Active; 'I' for Inactive)
REMARK    1  A    between atoms: C_1  and  C_2
REMARK    2  A    between atoms: C_2  and  C_3
REMARK    3  A    between atoms: C_3  and  O_4
REMARK    4  A    between atoms: C_3  and  C_5
REMARK    5  A    between atoms: C_3  and  C_16
REMARK    6  A    between atoms: C_5  and  O_6
REMARK    7  A    between atoms: O_6  and  C_7
REMARK    8  A    between atoms: C_10  and  C_11
REMARK    9  A    between atoms: C_20  and  O_21
REMARK   10  A    between atoms: O_21  and  C_22
REMARK                            x       y       z     vdW  Elec       q    Type
REMARK                         _______ _______ _______ _____ _____    ______ ____
ROOT
ATOM      1  C   UNL     1      46.051   5.690  12.678  0.00  0.00    +0.000 C 
ENDROOT
BRANCH   1   2
ATOM      2  C   UNL     1      45.301   4.689  11.790  0.00  0.00    +0.000 A 
ATOM      3  C   UNL     1      44.437   3.745  12.379  0.00  0.00    +0.000 A 
ATOM      4  C   UNL     1      43.766   2.799  11.609  0.00  0.00    +0.000 A 
ATOM      5  C   UNL     1      43.917   2.792  10.226  0.00  0.00    +0.000 A 
ATOM      6  C   UNL     1      44.704   3.762   9.608  0.00  0.00    +0.000 A 
ATOM      7  C   UNL     1      45.419   4.682  10.386  0.00  0.00    +0.000 A 
BRANCH   6   8
ATOM      8  O   UNL     1      44.863   3.836   8.242  0.00  0.00    +0.000 OA
BRANCH   8   9
ATOM      9  C   UNL     1      45.929   3.257   7.646  0.00  0.00    +0.000 A 
ATOM     10  C   UNL     1      46.455   1.957   7.782  0.00  0.00    +0.000 A 
ATOM     11  C   UNL     1      47.618   1.985   7.049  0.00  0.00    +0.000 A 
ATOM     12  N   UNL     1      47.671   3.223   6.477  0.00  0.00    +0.000 N 
ATOM     13  N   UNL     1      46.638   4.016   6.810  0.00  0.00    +0.000 NA
ATOM     14  H   UNL     1      48.388   3.600   5.865  0.00  0.00    +0.000 HD
ENDBRANCH   8   9
ENDBRANCH   6   8
ENDBRANCH   1   2
BRANCH   1  16
ATOM     15  C   UNL     1      48.010   7.293  12.011  0.00  0.00    +0.000 C 
ATOM     16  C   UNL     1      46.548   6.902  11.853  0.00  0.00    +0.000 C 
ENDBRANCH   1  16
BRANCH   1  17
ATOM     17  O   UNL     1      45.094   6.253  13.610  0.00  0.00    +0.000 OA
ATOM     18  H   UNL     1      44.652   6.977  13.129  0.00  0.00    +0.000 HD
ENDBRANCH   1  17
BRANCH   1  19
ATOM     19  C   UNL     1      47.177   5.058  13.534  0.00  0.00    +0.000 C 
BRANCH  19  20
ATOM     20  O   UNL     1      46.568   4.225  14.546  0.00  0.00    +0.000 OA
BRANCH  20  21
ATOM     21  C   UNL     1      47.222   4.283  15.758  0.00  0.00    +0.000 A 
ATOM     22  C   UNL     1      48.066   5.364  15.968  0.00  0.00    +0.000 A 
ATOM     23  C   UNL     1      48.752   5.447  17.184  0.00  0.00    +0.000 A 
ATOM     24  C   UNL     1      48.564   4.448  18.140  0.00  0.00    +0.000 A 
ATOM     25  C   UNL     1      47.703   3.403  17.830  0.00  0.00    +0.000 A 
ATOM     26  N   UNL     1      47.024   3.302  16.661  0.00  0.00    +0.000 NA
BRANCH  24  27
ATOM     27  C   UNL     1      49.253   4.424  19.448  0.00  0.00    +0.000 C 
ATOM     28  N   UNL     1      48.565   3.923  20.517  0.00  0.00    +0.000 N 
ATOM     29  O   UNL     1      50.408   4.812  19.565  0.00  0.00    +0.000 OA
ATOM     30  H   UNL     1      47.709   3.396  20.425  0.00  0.00    +0.000 HD
ATOM     31  H   UNL     1      49.084   3.827  21.381  0.00  0.00    +0.000 HD
ENDBRANCH  24  27
ENDBRANCH  20  21
ENDBRANCH  19  20
ENDBRANCH   1  19
TORSDOF 9
ENDMDL
MODEL 5
REMARK VINA RESULT:    -7.612      3.540      6.284
REMARK INTER + INTRA:         -12.363
REMARK INTER:                 -11.442
REMARK INTRA:                  -0.920
REMARK UNBOUND:                -0.969
REMARK  Name = 
REMARK  10 active torsions:
REMARK  status: ('A' for Active; 'I' for Inactive)
REMARK    1  A    between atoms: C_1  and  C_2
REMARK    2  A    between atoms: C_2  and  C_3
REMARK    3  A    between atoms: C_3  and  O_4
REMARK    4  A    between atoms: C_3  and  C_5
REMARK    5  A    between atoms: C_3  and  C_16
REMARK    6  A    between atoms: C_5  and  O_6
REMARK    7  A    between atoms: O_6  and  C_7
REMARK    8  A    between atoms: C_10  and  C_11
REMARK    9  A    between atoms: C_20  and  O_21
REMARK   10  A    between atoms: O_21  and  C_22
REMARK                            x       y       z     vdW  Elec       q    Type
REMARK                         _______ _______ _______ _____ _____    ______ ____
ROOT
ATOM      1  C   UNL     1      43.775   5.117  12.397  0.00  0.00    +0.000 C 
ENDROOT
BRANCH   1   2
ATOM      2  C   UNL     1      44.230   6.529  12.005  0.00  0.00    +0.000 A 
ATOM      3  C   UNL     1      45.560   6.925  12.246  0.00  0.00    +0.000 A 
ATOM      4  C   UNL     1      46.001   8.209  11.935  0.00  0.00    +0.000 A 
ATOM      5  C   UNL     1      45.130   9.120  11.347  0.00  0.00    +0.000 A 
ATOM      6  C   UNL     1      43.831   8.733  11.026  0.00  0.00    +0.000 A 
ATOM      7  C   UNL     1      43.372   7.458  11.384  0.00  0.00    +0.000 A 
BRANCH   6   8
ATOM      8  O   UNL     1      42.932   9.573  10.408  0.00  0.00    +0.000 OA
BRANCH   8   9
ATOM      9  C   UNL     1      42.040  10.277  11.139  0.00  0.00    +0.000 A 
ATOM     10  C   UNL     1      40.631  10.282  11.102  0.00  0.00    +0.000 A 
ATOM     11  C   UNL     1      40.274  11.292  11.963  0.00  0.00    +0.000 A 
ATOM     12  N   UNL     1      41.440  11.754  12.503  0.00  0.00    +0.000 N 
ATOM     13  N   UNL     1      42.536  11.136  12.031  0.00  0.00    +0.000 NA
ATOM     14  H   UNL     1      41.563  12.497  13.183  0.00  0.00    +0.000 HD
ENDBRANCH   8   9
ENDBRANCH   6   8
ENDBRANCH   1   2
BRANCH   1  16
ATOM     15  C   UNL     1      45.647   3.305  12.648  0.00  0.00    +0.000 C 
ATOM     16  C   UNL     1      44.831   4.419  13.287  0.00  0.00    +0.000 C 
ENDBRANCH   1  16
BRANCH   1  17
ATOM     17  O   UNL     1      42.612   5.253  13.252  0.00  0.00    +0.000 OA
ATOM     18  H   UNL     1      42.125   6.027  12.914  0.00  0.00    +0.000 HD
ENDBRANCH   1  17
BRANCH   1  19
ATOM     19  C   UNL     1      43.338   4.236  11.199  0.00  0.00    +0.000 C 
BRANCH  19  20
ATOM     20  O   UNL     1      43.831   4.842   9.983  0.00  0.00    +0.000 OA
BRANCH  20  21
ATOM     21  C   UNL     1      44.686   4.020   9.280  0.00  0.00    +0.000 A 
ATOM     22  C   UNL     1      45.587   4.633   8.421  0.00  0.00    +0.000 A 
ATOM     23  C   UNL     1      46.461   3.827   7.687  0.00  0.00    +0.000 A 
ATOM     24  C   UNL     1      46.399   2.440   7.841  0.00  0.00    +0.000 A 
ATOM     25  C   UNL     1      45.456   1.925   8.720  0.00  0.00    +0.000 A 
ATOM     26  N   UNL     1      44.600   2.686   9.446  0.00  0.00    +0.000 NA
BRANCH  24  27
ATOM     27  C   UNL     1      47.258   1.493   7.099  0.00  0.00    +0.000 C 
ATOM     28  N   UNL     1      48.406   1.984   6.541  0.00  0.00    +0.000 N 
ATOM     29  O   UNL     1      46.969   0.308   7.010  0.00  0.00    +0.000 OA
ATOM     30  H   UNL     1      48.791   2.887   6.774  0.00  0.00    +0.000 HD
ATOM     31  H   UNL     1      49.027   1.304   6.120  0.00  0.00    +0.000 HD
ENDBRANCH  24  27
ENDBRANCH  20  21
ENDBRANCH  19  20
ENDBRANCH   1  19
TORSDOF 9
ENDMDL
MODEL 6
REMARK VINA RESULT:    -7.608      2.044      8.355
REMARK INTER + INTRA:         -12.357
REMARK INTER:                 -11.408
REMARK INTRA:                  -0.949
REMARK UNBOUND:                -0.969
REMARK  Name = 
REMARK  10 active torsions:
REMARK  status: ('A' for Active; 'I' for Inactive)
REMARK    1  A    between atoms: C_1  and  C_2
REMARK    2  A    between atoms: C_2  and  C_3
REMARK    3  A    between atoms: C_3  and  O_4
REMARK    4  A    between atoms: C_3  and  C_5
REMARK    5  A    between atoms: C_3  and  C_16
REMARK    6  A    between atoms: C_5  and  O_6
REMARK    7  A    between atoms: O_6  and  C_7
REMARK    8  A    between atoms: C_10  and  C_11
REMARK    9  A    between atoms: C_20  and  O_21
REMARK   10  A    between atoms: O_21  and  C_22
REMARK                            x       y       z     vdW  Elec       q    Type
REMARK                         _______ _______ _______ _____ _____    ______ ____
ROOT
ATOM      1  C   UNL     1      46.625   6.449  12.632  0.00  0.00    +0.000 C 
ENDROOT
BRANCH   1   2
ATOM      2  C   UNL     1      45.340   5.796  12.107  0.00  0.00    +0.000 A 
ATOM      3  C   UNL     1      44.226   5.665  12.959  0.00  0.00    +0.000 A 
ATOM      4  C   UNL     1      43.054   5.046  12.529  0.00  0.00    +0.000 A 
ATOM      5  C   UNL     1      42.957   4.570  11.226  0.00  0.00    +0.000 A 
ATOM      6  C   UNL     1      44.014   4.754  10.337  0.00  0.00    +0.000 A 
ATOM      7  C   UNL     1      45.211   5.330  10.783  0.00  0.00    +0.000 A 
BRANCH   6   8
ATOM      8  O   UNL     1      43.967   4.342   9.024  0.00  0.00    +0.000 OA
BRANCH   8   9
ATOM      9  C   UNL     1      44.847   3.426   8.562  0.00  0.00    +0.000 A 
ATOM     10  C   UNL     1      45.067   2.091   8.960  0.00  0.00    +0.000 A 
ATOM     11  C   UNL     1      46.174   1.704   8.243  0.00  0.00    +0.000 A 
ATOM     12  N   UNL     1      46.485   2.758   7.433  0.00  0.00    +0.000 N 
ATOM     13  N   UNL     1      45.676   3.819   7.594  0.00  0.00    +0.000 NA
ATOM     14  H   UNL     1      47.243   2.831   6.762  0.00  0.00    +0.000 HD
ENDBRANCH   8   9
ENDBRANCH   6   8
ENDBRANCH   1   2
BRANCH   1  16
ATOM     15  C   UNL     1      48.774   7.668  11.767  0.00  0.00    +0.000 C 
ATOM     16  C   UNL     1      47.326   7.268  11.522  0.00  0.00    +0.000 C 
ENDBRANCH   1  16
BRANCH   1  17
ATOM     17  O   UNL     1      46.242   7.435  13.624  0.00  0.00    +0.000 OA
ATOM     18  H   UNL     1      47.006   8.034  13.710  0.00  0.00    +0.000 HD
ENDBRANCH   1  17
BRANCH   1  19
ATOM     19  C   UNL     1      47.592   5.467  13.340  0.00  0.00    +0.000 C 
BRANCH  19  20
ATOM     20  O   UNL     1      46.818   4.615  14.215  0.00  0.00    +0.000 OA
BRANCH  20  21
ATOM     21  C   UNL     1      47.327   4.553  15.494  0.00  0.00    +0.000 A 
ATOM     22  C   UNL     1      48.225   5.543  15.866  0.00  0.00    +0.000 A 
ATOM     23  C   UNL     1      48.766   5.502  17.154  0.00  0.00    +0.000 A 
ATOM     24  C   UNL     1      48.386   4.474  18.019  0.00  0.00    +0.000 A 
ATOM     25  C   UNL     1      47.485   3.527  17.549  0.00  0.00    +0.000 A 
ATOM     26  N   UNL     1      46.944   3.547  16.306  0.00  0.00    +0.000 NA
BRANCH  24  27
ATOM     27  C   UNL     1      48.911   4.321  19.392  0.00  0.00    +0.000 C 
ATOM     28  N   UNL     1      48.372   3.336  20.171  0.00  0.00    +0.000 N 
ATOM     29  O   UNL     1      49.815   5.032  19.810  0.00  0.00    +0.000 OA
ATOM     30  H   UNL     1      47.793   2.595  19.802  0.00  0.00    +0.000 HD
ATOM     31  H   UNL     1      48.808   3.185  21.072  0.00  0.00    +0.000 HD
ENDBRANCH  24  27
ENDBRANCH  20  21
ENDBRANCH  19  20
ENDBRANCH   1  19
TORSDOF 9
ENDMDL
MODEL 7
REMARK VINA RESULT:    -7.419      2.727      3.819
REMARK INTER + INTRA:         -12.075
REMARK INTER:                 -11.360
REMARK INTRA:                  -0.714
REMARK UNBOUND:                -0.969
REMARK  Name = 
REMARK  10 active torsions:
REMARK  status: ('A' for Active; 'I' for Inactive)
REMARK    1  A    between atoms: C_1  and  C_2
REMARK    2  A    between atoms: C_2  and  C_3
REMARK    3  A    between atoms: C_3  and  O_4
REMARK    4  A    between atoms: C_3  and  C_5
REMARK    5  A    between atoms: C_3  and  C_16
REMARK    6  A    between atoms: C_5  and  O_6
REMARK    7  A    between atoms: O_6  and  C_7
REMARK    8  A    between atoms: C_10  and  C_11
REMARK    9  A    between atoms: C_20  and  O_21
REMARK   10  A    between atoms: O_21  and  C_22
REMARK                            x       y       z     vdW  Elec       q    Type
REMARK                         _______ _______ _______ _____ _____    ______ ____
ROOT
ATOM      1  C   UNL     1      44.288   5.374  12.148  0.00  0.00    +0.000 C 
ENDROOT
BRANCH   1   2
ATOM      2  C   UNL     1      45.250   6.568  12.167  0.00  0.00    +0.000 A 
ATOM      3  C   UNL     1      44.779   7.838  12.553  0.00  0.00    +0.000 A 
ATOM      4  C   UNL     1      45.613   8.953  12.550  0.00  0.00    +0.000 A 
ATOM      5  C   UNL     1      46.950   8.819  12.189  0.00  0.00    +0.000 A 
ATOM      6  C   UNL     1      47.464   7.563  11.876  0.00  0.00    +0.000 A 
ATOM      7  C   UNL     1      46.613   6.451  11.830  0.00  0.00    +0.000 A 
BRANCH   6   8
ATOM      8  O   UNL     1      48.786   7.356  11.549  0.00  0.00    +0.000 OA
BRANCH   8   9
ATOM      9  C   UNL     1      49.766   7.710  12.410  0.00  0.00    +0.000 A 
ATOM     10  C   UNL     1      50.855   8.588  12.241  0.00  0.00    +0.000 A 
ATOM     11  C   UNL     1      51.589   8.442  13.394  0.00  0.00    +0.000 A 
ATOM     12  N   UNL     1      50.879   7.583  14.184  0.00  0.00    +0.000 N 
ATOM     13  N   UNL     1      49.747   7.136  13.614  0.00  0.00    +0.000 NA
ATOM     14  H   UNL     1      51.114   7.247  15.113  0.00  0.00    +0.000 HD
ENDBRANCH   8   9
ENDBRANCH   6   8
ENDBRANCH   1   2
BRANCH   1  16
ATOM     15  C   UNL     1      45.939   4.367  13.912  0.00  0.00    +0.000 C 
ATOM     16  C   UNL     1      44.937   4.126  12.792  0.00  0.00    +0.000 C 
ENDBRANCH   1  16
BRANCH   1  17
ATOM     17  O   UNL     1      43.173   5.695  13.019  0.00  0.00    +0.000 OA
ATOM     18  H   UNL     1      42.885   6.589  12.761  0.00  0.00    +0.000 HD
ENDBRANCH   1  17
BRANCH   1  19
ATOM     19  C   UNL     1      43.681   5.070  10.754  0.00  0.00    +0.000 C 
BRANCH  19  20
ATOM     20  O   UNL     1      43.774   3.647  10.517  0.00  0.00    +0.000 OA
BRANCH  20  21
ATOM     21  C   UNL     1      44.676   3.324   9.526  0.00  0.00    +0.000 A 
ATOM     22  C   UNL     1      45.160   4.366   8.748  0.00  0.00    +0.000 A 
ATOM     23  C   UNL     1      46.069   4.070   7.729  0.00  0.00    +0.000 A 
ATOM     24  C   UNL     1      46.458   2.744   7.530  0.00  0.00    +0.000 A 
ATOM     25  C   UNL     1      45.910   1.773   8.357  0.00  0.00    +0.000 A 
ATOM     26  N   UNL     1      45.030   2.035   9.355  0.00  0.00    +0.000 NA
BRANCH  24  27
ATOM     27  C   UNL     1      47.395   2.315   6.469  0.00  0.00    +0.000 C 
ATOM     28  N   UNL     1      47.457   3.075   5.334  0.00  0.00    +0.000 N 
ATOM     29  O   UNL     1      48.109   1.331   6.610  0.00  0.00    +0.000 OA
ATOM     30  H   UNL     1      47.060   4.000   5.267  0.00  0.00    +0.000 HD
ATOM     31  H   UNL     1      48.170   2.821   4.662  0.00  0.00    +0.000 HD
ENDBRANCH  24  27
ENDBRANCH  20  21
ENDBRANCH  19  20
ENDBRANCH   1  19
TORSDOF 9
ENDMDL
MODEL 8
REMARK VINA RESULT:    -7.236      2.039      8.355
REMARK INTER + INTRA:         -11.800
REMARK INTER:                 -10.986
REMARK INTRA:                  -0.814
REMARK UNBOUND:                -0.969
REMARK  Name = 
REMARK  10 active torsions:
REMARK  status: ('A' for Active; 'I' for Inactive)
REMARK    1  A    between atoms: C_1  and  C_2
REMARK    2  A    between atoms: C_2  and  C_3
REMARK    3  A    between atoms: C_3  and  O_4
REMARK    4  A    between atoms: C_3  and  C_5
REMARK    5  A    between atoms: C_3  and  C_16
REMARK    6  A    between atoms: C_5  and  O_6
REMARK    7  A    between atoms: O_6  and  C_7
REMARK    8  A    between atoms: C_10  and  C_11
REMARK    9  A    between atoms: C_20  and  O_21
REMARK   10  A    between atoms: O_21  and  C_22
REMARK                            x       y       z     vdW  Elec       q    Type
REMARK                         _______ _______ _______ _____ _____    ______ ____
ROOT
ATOM      1  C   UNL     1      44.967   3.865  12.682  0.00  0.00    +0.000 C 
ENDROOT
BRANCH   1   2
ATOM      2  C   UNL     1      45.282   4.327  11.253  0.00  0.00    +0.000 A 
ATOM      3  C   UNL     1      45.790   5.622  11.035  0.00  0.00    +0.000 A 
ATOM      4  C   UNL     1      46.056   6.090   9.751  0.00  0.00    +0.000 A 
ATOM      5  C   UNL     1      45.849   5.261   8.653  0.00  0.00    +0.000 A 
ATOM      6  C   UNL     1      45.420   3.949   8.842  0.00  0.00    +0.000 A 
ATOM      7  C   UNL     1      45.105   3.496  10.130  0.00  0.00    +0.000 A 
BRANCH   6   8
ATOM      8  O   UNL     1      45.234   3.066   7.802  0.00  0.00    +0.000 OA
BRANCH   8   9
ATOM      9  C   UNL     1      46.288   2.643   7.068  0.00  0.00    +0.000 A 
ATOM     10  C   UNL     1      46.719   3.029   5.783  0.00  0.00    +0.000 A 
ATOM     11  C   UNL     1      47.749   2.165   5.498  0.00  0.00    +0.000 A 
ATOM     12  N   UNL     1      47.918   1.401   6.618  0.00  0.00    +0.000 N 
ATOM     13  N   UNL     1      47.049   1.687   7.602  0.00  0.00    +0.000 NA
ATOM     14  H   UNL     1      48.592   0.658   6.773  0.00  0.00    +0.000 HD
ENDBRANCH   8   9
ENDBRANCH   6   8
ENDBRANCH   1   2
BRANCH   1  16
ATOM     15  C   UNL     1      42.787   5.259  12.288  0.00  0.00    +0.000 C 
ATOM     16  C   UNL     1      43.487   4.137  13.041  0.00  0.00    +0.000 C 
ENDBRANCH   1  16
BRANCH   1  17
ATOM     17  O   UNL     1      45.088   2.420  12.712  0.00  0.00    +0.000 OA
ATOM     18  H   UNL     1      45.391   2.162  11.822  0.00  0.00    +0.000 HD
ENDBRANCH   1  17
BRANCH   1  19
ATOM     19  C   UNL     1      45.944   4.409  13.755  0.00  0.00    +0.000 C 
BRANCH  19  20
ATOM     20  O   UNL     1      46.895   3.368  14.075  0.00  0.00    +0.000 OA
BRANCH  20  21
ATOM     21  C   UNL     1      47.471   3.529  15.317  0.00  0.00    +0.000 A 
ATOM     22  C   UNL     1      47.156   4.687  16.015  0.00  0.00    +0.000 A 
ATOM     23  C   UNL     1      47.731   4.883  17.273  0.00  0.00    +0.000 A 
ATOM     24  C   UNL     1      48.596   3.913  17.784  0.00  0.00    +0.000 A 
ATOM     25  C   UNL     1      48.852   2.793  17.005  0.00  0.00    +0.000 A 
ATOM     26  N   UNL     1      48.305   2.578  15.783  0.00  0.00    +0.000 NA
BRANCH  24  27
ATOM     27  C   UNL     1      49.276   4.029  19.092  0.00  0.00    +0.000 C 
ATOM     28  N   UNL     1      48.627   3.533  20.189  0.00  0.00    +0.000 N 
ATOM     29  O   UNL     1      50.391   4.524  19.188  0.00  0.00    +0.000 OA
ATOM     30  H   UNL     1      47.822   2.928  20.127  0.00  0.00    +0.000 HD
ATOM     31  H   UNL     1      49.147   3.535  21.058  0.00  0.00    +0.000 HD
ENDBRANCH  24  27
ENDBRANCH  20  21
ENDBRANCH  19  20
ENDBRANCH   1  19
TORSDOF 9
ENDMDL
MODEL 9
REMARK VINA RESULT:    -6.801      2.954      4.818
REMARK INTER + INTRA:         -11.149
REMARK INTER:                  -9.981
REMARK INTRA:                  -1.167
REMARK UNBOUND:                -0.969
REMARK  Name = 
REMARK  10 active torsions:
REMARK  status: ('A' for Active; 'I' for Inactive)
REMARK    1  A    between atoms: C_1  and  C_2
REMARK    2  A    between atoms: C_2  and  C_3
REMARK    3  A    between atoms: C_3  and  O_4
REMARK    4  A    between atoms: C_3  and  C_5
REMARK    5  A    between atoms: C_3  and  C_16
REMARK    6  A    between atoms: C_5  and  O_6
REMARK    7  A    between atoms: O_6  and  C_7
REMARK    8  A    between atoms: C_10  and  C_11
REMARK    9  A    between atoms: C_20  and  O_21
REMARK   10  A    between atoms: O_21  and  C_22
REMARK                            x       y       z     vdW  Elec       q    Type
REMARK                         _______ _______ _______ _____ _____    ______ ____
ROOT
ATOM      1  C   UNL     1      48.919   7.391  13.276  0.00  0.00    +0.000 C 
ENDROOT
BRANCH   1   2
ATOM      2  C   UNL     1      48.766   7.105  14.775  0.00  0.00    +0.000 A 
ATOM      3  C   UNL     1      48.937   8.148  15.706  0.00  0.00    +0.000 A 
ATOM      4  C   UNL     1      48.840   7.920  17.076  0.00  0.00    +0.000 A 
ATOM      5  C   UNL     1      48.538   6.647  17.549  0.00  0.00    +0.000 A 
ATOM      6  C   UNL     1      48.287   5.612  16.651  0.00  0.00    +0.000 A 
ATOM      7  C   UNL     1      48.434   5.830  15.275  0.00  0.00    +0.000 A 
BRANCH   6   8
ATOM      8  O   UNL     1      47.944   4.340  17.052  0.00  0.00    +0.000 OA
BRANCH   8   9
ATOM      9  C   UNL     1      48.853   3.341  17.007  0.00  0.00    +0.000 A 
ATOM     10  C   UNL     1      50.047   3.161  17.734  0.00  0.00    +0.000 A 
ATOM     11  C   UNL     1      50.623   2.048  17.166  0.00  0.00    +0.000 A 
ATOM     12  N   UNL     1      49.734   1.602  16.231  0.00  0.00    +0.000 N 
ATOM     13  N   UNL     1      48.632   2.364  16.127  0.00  0.00    +0.000 NA
ATOM     14  H   UNL     1      49.821   0.798  15.617  0.00  0.00    +0.000 HD
ENDBRANCH   8   9
ENDBRANCH   6   8
ENDBRANCH   1   2
BRANCH   1  16
ATOM     15  C   UNL     1      50.708   8.289  11.590  0.00  0.00    +0.000 C 
ATOM     16  C   UNL     1      50.147   8.292  13.004  0.00  0.00    +0.000 C 
ENDBRANCH   1  16
BRANCH   1  17
ATOM     17  O   UNL     1      49.236   6.137  12.620  0.00  0.00    +0.000 OA
ATOM     18  H   UNL     1      48.812   6.183  11.744  0.00  0.00    +0.000 HD
ENDBRANCH   1  17
BRANCH   1  19
ATOM     19  C   UNL     1      47.633   7.928  12.598  0.00  0.00    +0.000 C 
BRANCH  19  20
ATOM     20  O   UNL     1      46.489   7.421  13.323  0.00  0.00    +0.000 OA
BRANCH  20  21
ATOM     21  C   UNL     1      45.909   6.328  12.717  0.00  0.00    +0.000 A 
ATOM     22  C   UNL     1      45.887   6.312  11.330  0.00  0.00    +0.000 A 
ATOM     23  C   UNL     1      45.296   5.221  10.686  0.00  0.00    +0.000 A 
ATOM     24  C   UNL     1      44.753   4.190  11.454  0.00  0.00    +0.000 A 
ATOM     25  C   UNL     1      44.818   4.304  12.837  0.00  0.00    +0.000 A 
ATOM     26  N   UNL     1      45.389   5.350  13.485  0.00  0.00    +0.000 NA
BRANCH  24  27
ATOM     27  C   UNL     1      44.086   3.003  10.879  0.00  0.00    +0.000 C 
ATOM     28  N   UNL     1      44.713   2.361   9.848  0.00  0.00    +0.000 N 
ATOM     29  O   UNL     1      43.024   2.591  11.326  0.00  0.00    +0.000 OA
ATOM     30  H   UNL     1      45.677   2.528   9.600  0.00  0.00    +0.000 HD
ATOM     31  H   UNL     1      44.290   1.498   9.531  0.00  0.00    +0.000 HD
ENDBRANCH  24  27
ENDBRANCH  20  21
ENDBRANCH  19  20
ENDBRANCH   1  19
TORSDOF 9
ENDMDL
