MODEL 1
REMARK VINA RESULT:    -8.095      0.000      0.000
REMARK INTER + INTRA:         -12.646
REMARK INTER:                 -11.408
REMARK INTRA:                  -1.238
REMARK UNBOUND:                -1.238
REMARK  Name = 
REMARK  7 active torsions:
REMARK  status: ('A' for Active; 'I' for Inactive)
REMARK    1  A    between atoms: C_2  and  C_3
REMARK    2  A    between atoms: C_9  and  C_10
REMARK    3  A    between atoms: N_12  and  C_13
REMARK    4  A    between atoms: C_13  and  C_14
REMARK    5  A    between atoms: C_17  and  C_18
REMARK    6  A    between atoms: C_19  and  C_20
REMARK    7  A    between atoms: C_20  and  C_21
REMARK                            x       y       z     vdW  Elec       q    Type
REMARK                         _______ _______ _______ _____ _____    ______ ____
ROOT
ATOM      1  C   UNL     1      48.085   8.252  14.525  0.00  0.00    +0.000 C 
ENDROOT
BRANCH   1   2
ATOM      2  C   UNL     1      47.387   7.482  13.429  0.00  0.00    +0.000 A 
ATOM      3  C   UNL     1      47.819   7.647  12.103  0.00  0.00    +0.000 A 
ATOM      4  C   UNL     1      47.208   6.959  11.053  0.00  0.00    +0.000 A 
ATOM      5  C   UNL     1      46.143   6.100  11.316  0.00  0.00    +0.000 A 
ATOM      6  C   UNL     1      45.714   5.906  12.629  0.00  0.00    +0.000 A 
ATOM      7  C   UNL     1      46.336   6.586  13.683  0.00  0.00    +0.000 A 
BRANCH   5   8
ATOM      8  C   UNL     1      45.534   5.372  10.254  0.00  0.00    +0.000 C 
ATOM      9  C   UNL     1      45.062   4.681   9.388  0.00  0.00    +0.000 C 
BRANCH   9  10
ATOM     10  C   UNL     1      44.550   3.781   8.354  0.00  0.00    +0.000 C 
BRANCH  10  11
ATOM     11  C   UNL     1      45.634   2.933   7.729  0.00  0.00    +0.000 A 
ATOM     12  C   UNL     1      46.365   3.434   6.641  0.00  0.00    +0.000 A 
ATOM     13  C   UNL     1      47.412   2.696   6.087  0.00  0.00    +0.000 A 
ATOM     14  C   UNL     1      47.736   1.444   6.606  0.00  0.00    +0.000 A 
ATOM     15  C   UNL     1      46.995   0.916   7.659  0.00  0.00    +0.000 A 
ATOM     16  C   UNL     1      45.942   1.653   8.217  0.00  0.00    +0.000 A 
ENDBRANCH  10  11
ENDBRANCH   9  10
ENDBRANCH   5   8
ENDBRANCH   1   2
BRANCH   1  19
ATOM     17  C   UNL     1      49.253   6.677  16.008  0.00  0.00    +0.000 C 
ATOM     18  O   UNL     1      50.134   6.542  15.164  0.00  0.00    +0.000 OA
ATOM     19  N   UNL     1      48.184   7.529  15.782  0.00  0.00    +0.000 N 
ATOM     20  H   UNL     1      47.553   7.783  16.528  0.00  0.00    +0.000 HD
BRANCH  17  27
ATOM     21  C   UNL     1      48.054   3.752  16.933  0.00  0.00    +0.000 A 
ATOM     22  C   UNL     1      47.795   2.858  17.980  0.00  0.00    +0.000 A 
ATOM     23  N   UNL     1      48.240   3.410  19.189  0.00  0.00    +0.000 N 
ATOM     24  C   UNL     1      48.774   4.628  18.905  0.00  0.00    +0.000 A 
ATOM     25  N   UNL     1      49.363   5.648  19.576  0.00  0.00    +0.000 NA
ATOM     26  C   UNL     1      49.624   6.549  18.560  0.00  0.00    +0.000 C 
ATOM     27  C   UNL     1      49.209   6.045  17.293  0.00  0.00    +0.000 C 
ATOM     28  C   UNL     1      48.651   4.797  17.587  0.00  0.00    +0.000 A 
ATOM     29  H   UNL     1      48.182   2.994  20.105  0.00  0.00    +0.000 HD
BRANCH  21  31
ATOM     30  N   UNL     1      47.451   3.302  14.459  0.00  0.00    +0.000 NA
ATOM     31  C   UNL     1      47.741   3.532  15.562  0.00  0.00    +0.000 C 
ENDBRANCH  21  31
ENDBRANCH  17  27
ENDBRANCH   1  19
TORSDOF 7
ENDMDL
MODEL 2
REMARK VINA RESULT:    -7.934      1.970      2.001
REMARK INTER + INTRA:         -12.419
REMARK INTER:                 -11.277
REMARK INTRA:                  -1.142
REMARK UNBOUND:                -1.238
REMARK  Name = 
REMARK  7 active torsions:
REMARK  status: ('A' for Active; 'I' for Inactive)
REMARK    1  A    between atoms: C_2  and  C_3
REMARK    2  A    between atoms: C_9  and  C_10
REMARK    3  A    between atoms: N_12  and  C_13
REMARK    4  A    between atoms: C_13  and  C_14
REMARK    5  A    between atoms: C_17  and  C_18
REMARK    6  A    between atoms: C_19  and  C_20
REMARK    7  A    between atoms: C_20  and  C_21
REMARK                            x       y       z     vdW  Elec       q    Type
REMARK                         _______ _______ _______ _____ _____    ______ ____
ROOT
ATOM      1  C   UNL     1      48.897   7.455  15.233  0.00  0.00    +0.000 C 
ENDROOT
BRANCH   1   2
ATOM      2  C   UNL     1      48.057   6.867  14.123  0.00  0.00    +0.000 A 
ATOM      3  C   UNL     1      47.984   7.547  12.896  0.00  0.00    +0.000 A 
ATOM      4  C   UNL     1      47.222   7.048  11.839  0.00  0.00    +0.000 A 
ATOM      5  C   UNL     1      46.510   5.861  11.998  0.00  0.00    +0.000 A 
ATOM      6  C   UNL     1      46.588   5.160  13.202  0.00  0.00    +0.000 A 
ATOM      7  C   UNL     1      47.363   5.655  14.258  0.00  0.00    +0.000 A 
BRANCH   5   8
ATOM      8  C   UNL     1      45.755   5.330  10.914  0.00  0.00    +0.000 C 
ATOM      9  C   UNL     1      45.194   4.839   9.968  0.00  0.00    +0.000 C 
BRANCH   9  10
ATOM     10  C   UNL     1      44.591   4.228   8.783  0.00  0.00    +0.000 C 
BRANCH  10  11
ATOM     11  C   UNL     1      45.502   3.223   8.117  0.00  0.00    +0.000 A 
ATOM     12  C   UNL     1      46.284   3.616   7.020  0.00  0.00    +0.000 A 
ATOM     13  C   UNL     1      47.179   2.724   6.428  0.00  0.00    +0.000 A 
ATOM     14  C   UNL     1      47.297   1.424   6.917  0.00  0.00    +0.000 A 
ATOM     15  C   UNL     1      46.500   1.007   7.979  0.00  0.00    +0.000 A 
ATOM     16  C   UNL     1      45.599   1.899   8.575  0.00  0.00    +0.000 A 
ENDBRANCH  10  11
ENDBRANCH   9  10
ENDBRANCH   5   8
ENDBRANCH   1   2
BRANCH   1  19
ATOM     17  C   UNL     1      49.903   6.138  17.050  0.00  0.00    +0.000 C 
ATOM     18  O   UNL     1      49.003   6.499  17.804  0.00  0.00    +0.000 OA
ATOM     19  N   UNL     1      49.928   6.558  15.729  0.00  0.00    +0.000 N 
ATOM     20  H   UNL     1      50.553   6.134  15.060  0.00  0.00    +0.000 HD
BRANCH  17  27
ATOM     21  C   UNL     1      50.003   2.856  17.306  0.00  0.00    +0.000 A 
ATOM     22  C   UNL     1      50.758   1.718  17.616  0.00  0.00    +0.000 A 
ATOM     23  N   UNL     1      52.060   2.099  17.967  0.00  0.00    +0.000 N 
ATOM     24  C   UNL     1      52.123   3.454  17.874  0.00  0.00    +0.000 A 
ATOM     25  N   UNL     1      53.044   4.431  18.061  0.00  0.00    +0.000 NA
ATOM     26  C   UNL     1      52.318   5.571  17.765  0.00  0.00    +0.000 C 
ATOM     27  C   UNL     1      50.981   5.256  17.383  0.00  0.00    +0.000 C 
ATOM     28  C   UNL     1      50.913   3.863  17.488  0.00  0.00    +0.000 A 
ATOM     29  H   UNL     1      52.818   1.493  18.240  0.00  0.00    +0.000 HD
BRANCH  21  31
ATOM     30  N   UNL     1      47.508   2.825  16.628  0.00  0.00    +0.000 NA
ATOM     31  C   UNL     1      48.638   2.860  16.905  0.00  0.00    +0.000 C 
ENDBRANCH  21  31
ENDBRANCH  17  27
ENDBRANCH   1  19
TORSDOF 7
ENDMDL
MODEL 3
REMARK VINA RESULT:    -7.575      1.728      2.104
REMARK INTER + INTRA:         -11.912
REMARK INTER:                 -10.839
REMARK INTRA:                  -1.074
REMARK UNBOUND:                -1.238
REMARK  Name = 
REMARK  7 active torsions:
REMARK  status: ('A' for Active; 'I' for Inactive)
REMARK    1  A    between atoms: C_2  and  C_3
REMARK    2  A    between atoms: C_9  and  C_10
REMARK    3  A    between atoms: N_12  and  C_13
REMARK    4  A    between atoms: C_13  and  C_14
REMARK    5  A    between atoms: C_17  and  C_18
REMARK    6  A    between atoms: C_19  and  C_20
REMARK    7  A    between atoms: C_20  and  C_21
REMARK                            x       y       z     vdW  Elec       q    Type
REMARK                         _______ _______ _______ _____ _____    ______ ____
ROOT
ATOM      1  C   UNL     1      47.984   9.191  14.447  0.00  0.00    +0.000 C 
ENDROOT
BRANCH   1   2
ATOM      2  C   UNL     1      47.354   8.175  13.523  0.00  0.00    +0.000 A 
ATOM      3  C   UNL     1      46.323   8.587  12.663  0.00  0.00    +0.000 A 
ATOM      4  C   UNL     1      45.708   7.688  11.791  0.00  0.00    +0.000 A 
ATOM      5  C   UNL     1      46.109   6.354  11.775  0.00  0.00    +0.000 A 
ATOM      6  C   UNL     1      47.147   5.930  12.605  0.00  0.00    +0.000 A 
ATOM      7  C   UNL     1      47.773   6.836  13.471  0.00  0.00    +0.000 A 
BRANCH   5   8
ATOM      8  C   UNL     1      45.507   5.438  10.866  0.00  0.00    +0.000 C 
ATOM      9  C   UNL     1      45.027   4.718  10.029  0.00  0.00    +0.000 C 
BRANCH   9  10
ATOM     10  C   UNL     1      44.451   3.908   8.954  0.00  0.00    +0.000 C 
BRANCH  10  11
ATOM     11  C   UNL     1      45.484   3.070   8.236  0.00  0.00    +0.000 A 
ATOM     12  C   UNL     1      46.333   3.672   7.296  0.00  0.00    +0.000 A 
ATOM     13  C   UNL     1      47.336   2.934   6.667  0.00  0.00    +0.000 A 
ATOM     14  C   UNL     1      47.497   1.581   6.961  0.00  0.00    +0.000 A 
ATOM     15  C   UNL     1      46.638   0.960   7.863  0.00  0.00    +0.000 A 
ATOM     16  C   UNL     1      45.628   1.698   8.495  0.00  0.00    +0.000 A 
ENDBRANCH  10  11
ENDBRANCH   9  10
ENDBRANCH   5   8
ENDBRANCH   1   2
BRANCH   1  19
ATOM     17  C   UNL     1      48.674   8.591  16.729  0.00  0.00    +0.000 C 
ATOM     18  O   UNL     1      49.828   8.441  16.337  0.00  0.00    +0.000 OA
ATOM     19  N   UNL     1      47.675   8.981  15.852  0.00  0.00    +0.000 N 
ATOM     20  H   UNL     1      46.770   9.276  16.189  0.00  0.00    +0.000 HD
BRANCH  17  27
ATOM     21  C   UNL     1      48.427   5.906  18.621  0.00  0.00    +0.000 A 
ATOM     22  C   UNL     1      48.030   5.356  19.847  0.00  0.00    +0.000 A 
ATOM     23  N   UNL     1      47.513   6.367  20.669  0.00  0.00    +0.000 N 
ATOM     24  C   UNL     1      47.589   7.532  19.973  0.00  0.00    +0.000 A 
ATOM     25  N   UNL     1      47.281   8.839  20.165  0.00  0.00    +0.000 NA
ATOM     26  C   UNL     1      47.660   9.404  18.960  0.00  0.00    +0.000 C 
ATOM     27  C   UNL     1      48.212   8.431  18.076  0.00  0.00    +0.000 C 
ATOM     28  C   UNL     1      48.124   7.231  18.788  0.00  0.00    +0.000 A 
ATOM     29  H   UNL     1      47.150   6.264  21.604  0.00  0.00    +0.000 HD
BRANCH  21  31
ATOM     30  N   UNL     1      49.504   4.643  16.639  0.00  0.00    +0.000 NA
ATOM     31  C   UNL     1      48.999   5.183  17.538  0.00  0.00    +0.000 C 
ENDBRANCH  21  31
ENDBRANCH  17  27
ENDBRANCH   1  19
TORSDOF 7
ENDMDL
MODEL 4
REMARK VINA RESULT:    -6.759      2.666      4.046
REMARK INTER + INTRA:         -10.762
REMARK INTER:                  -9.804
REMARK INTRA:                  -0.958
REMARK UNBOUND:                -1.238
REMARK  Name = 
REMARK  7 active torsions:
REMARK  status: ('A' for Active; 'I' for Inactive)
REMARK    1  A    between atoms: C_2  and  C_3
REMARK    2  A    between atoms: C_9  and  C_10
REMARK    3  A    between atoms: N_12  and  C_13
REMARK    4  A    between atoms: C_13  and  C_14
REMARK    5  A    between atoms: C_17  and  C_18
REMARK    6  A    between atoms: C_19  and  C_20
REMARK    7  A    between atoms: C_20  and  C_21
REMARK                            x       y       z     vdW  Elec       q    Type
REMARK                         _______ _______ _______ _____ _____    ______ ____
ROOT
ATOM      1  C   UNL     1      48.770   6.096  16.297  0.00  0.00    +0.000 C 
ENDROOT
BRANCH   1   2
ATOM      2  C   UNL     1      47.939   5.768  15.078  0.00  0.00    +0.000 A 
ATOM      3  C   UNL     1      47.956   6.654  13.988  0.00  0.00    +0.000 A 
ATOM      4  C   UNL     1      47.206   6.398  12.839  0.00  0.00    +0.000 A 
ATOM      5  C   UNL     1      46.416   5.253  12.768  0.00  0.00    +0.000 A 
ATOM      6  C   UNL     1      46.403   4.350  13.832  0.00  0.00    +0.000 A 
ATOM      7  C   UNL     1      47.166   4.600  14.980  0.00  0.00    +0.000 A 
BRANCH   5   8
ATOM      8  C   UNL     1      45.672   4.970  11.587  0.00  0.00    +0.000 C 
ATOM      9  C   UNL     1      45.115   4.681  10.560  0.00  0.00    +0.000 C 
BRANCH   9  10
ATOM     10  C   UNL     1      44.516   4.305   9.279  0.00  0.00    +0.000 C 
BRANCH  10  11
ATOM     11  C   UNL     1      45.385   3.357   8.483  0.00  0.00    +0.000 A 
ATOM     12  C   UNL     1      46.195   3.859   7.453  0.00  0.00    +0.000 A 
ATOM     13  C   UNL     1      47.052   3.014   6.747  0.00  0.00    +0.000 A 
ATOM     14  C   UNL     1      47.104   1.656   7.053  0.00  0.00    +0.000 A 
ATOM     15  C   UNL     1      46.279   1.136   8.046  0.00  0.00    +0.000 A 
ATOM     16  C   UNL     1      45.415   1.981   8.756  0.00  0.00    +0.000 A 
ENDBRANCH  10  11
ENDBRANCH   9  10
ENDBRANCH   5   8
ENDBRANCH   1   2
BRANCH   1  19
ATOM     17  C   UNL     1      48.830   7.507  18.310  0.00  0.00    +0.000 C 
ATOM     18  O   UNL     1      49.989   7.155  18.517  0.00  0.00    +0.000 OA
ATOM     19  N   UNL     1      48.136   7.036  17.207  0.00  0.00    +0.000 N 
ATOM     20  H   UNL     1      47.257   7.448  16.929  0.00  0.00    +0.000 HD
BRANCH  17  27
ATOM     21  C   UNL     1      48.041  10.662  17.788  0.00  0.00    +0.000 A 
ATOM     22  C   UNL     1      47.421  11.821  18.273  0.00  0.00    +0.000 A 
ATOM     23  N   UNL     1      46.866  11.564  19.533  0.00  0.00    +0.000 N 
ATOM     24  C   UNL     1      47.127  10.264  19.833  0.00  0.00    +0.000 A 
ATOM     25  N   UNL     1      46.885   9.398  20.848  0.00  0.00    +0.000 NA
ATOM     26  C   UNL     1      47.495   8.243  20.394  0.00  0.00    +0.000 C 
ATOM     27  C   UNL     1      48.072   8.428  19.103  0.00  0.00    +0.000 C 
ATOM     28  C   UNL     1      47.811   9.768  18.800  0.00  0.00    +0.000 A 
ATOM     29  H   UNL     1      46.363  12.211  20.120  0.00  0.00    +0.000 HD
BRANCH  21  31
ATOM     30  N   UNL     1      49.288  10.503  15.528  0.00  0.00    +0.000 NA
ATOM     31  C   UNL     1      48.711  10.543  16.539  0.00  0.00    +0.000 C 
ENDBRANCH  21  31
ENDBRANCH  17  27
ENDBRANCH   1  19
TORSDOF 7
ENDMDL
MODEL 5
REMARK VINA RESULT:    -6.701      2.513      3.867
REMARK INTER + INTRA:         -10.682
REMARK INTER:                  -9.710
REMARK INTRA:                  -0.972
REMARK UNBOUND:                -1.238
REMARK  Name = 
REMARK  7 active torsions:
REMARK  status: ('A' for Active; 'I' for Inactive)
REMARK    1  A    between atoms: C_2  and  C_3
REMARK    2  A    between atoms: C_9  and  C_10
REMARK    3  A    between atoms: N_12  and  C_13
REMARK    4  A    between atoms: C_13  and  C_14
REMARK    5  A    between atoms: C_17  and  C_18
REMARK    6  A    between atoms: C_19  and  C_20
REMARK    7  A    between atoms: C_20  and  C_21
REMARK                            x       y       z     vdW  Elec       q    Type
REMARK                         _______ _______ _______ _____ _____    ______ ____
ROOT
ATOM      1  C   UNL     1      48.585   5.786  16.587  0.00  0.00    +0.000 C 
ENDROOT
BRANCH   1   2
ATOM      2  C   UNL     1      47.883   5.611  15.261  0.00  0.00    +0.000 A 
ATOM      3  C   UNL     1      47.082   4.475  15.062  0.00  0.00    +0.000 A 
ATOM      4  C   UNL     1      46.413   4.265  13.855  0.00  0.00    +0.000 A 
ATOM      5  C   UNL     1      46.544   5.189  12.821  0.00  0.00    +0.000 A 
ATOM      6  C   UNL     1      47.317   6.336  13.007  0.00  0.00    +0.000 A 
ATOM      7  C   UNL     1      47.978   6.552  14.223  0.00  0.00    +0.000 A 
BRANCH   5   8
ATOM      8  C   UNL     1      45.840   4.997  11.598  0.00  0.00    +0.000 C 
ATOM      9  C   UNL     1      45.278   4.749  10.563  0.00  0.00    +0.000 C 
BRANCH   9  10
ATOM     10  C   UNL     1      44.649   4.378   9.295  0.00  0.00    +0.000 C 
BRANCH  10  11
ATOM     11  C   UNL     1      45.494   3.426   8.479  0.00  0.00    +0.000 A 
ATOM     12  C   UNL     1      45.539   2.068   8.826  0.00  0.00    +0.000 A 
ATOM     13  C   UNL     1      46.262   1.159   8.051  0.00  0.00    +0.000 A 
ATOM     14  C   UNL     1      46.957   1.598   6.926  0.00  0.00    +0.000 A 
ATOM     15  C   UNL     1      46.954   2.948   6.591  0.00  0.00    +0.000 A 
ATOM     16  C   UNL     1      46.231   3.864   7.367  0.00  0.00    +0.000 A 
ENDBRANCH  10  11
ENDBRANCH   9  10
ENDBRANCH   5   8
ENDBRANCH   1   2
BRANCH   1  19
ATOM     17  C   UNL     1      48.824   7.942  17.746  0.00  0.00    +0.000 C 
ATOM     18  O   UNL     1      49.980   8.028  17.338  0.00  0.00    +0.000 OA
ATOM     19  N   UNL     1      48.036   6.853  17.408  0.00  0.00    +0.000 N 
ATOM     20  H   UNL     1      47.042   6.853  17.585  0.00  0.00    +0.000 HD
BRANCH  17  27
ATOM     21  C   UNL     1      47.709   7.763  20.840  0.00  0.00    +0.000 A 
ATOM     22  C   UNL     1      47.019   8.390  21.885  0.00  0.00    +0.000 A 
ATOM     23  N   UNL     1      46.617   9.670  21.481  0.00  0.00    +0.000 N 
ATOM     24  C   UNL     1      47.052   9.846  20.205  0.00  0.00    +0.000 A 
ATOM     25  N   UNL     1      47.012  10.812  19.254  0.00  0.00    +0.000 NA
ATOM     26  C   UNL     1      47.685  10.213  18.205  0.00  0.00    +0.000 C 
ATOM     27  C   UNL     1      48.138   8.906  18.553  0.00  0.00    +0.000 C 
ATOM     28  C   UNL     1      47.682   8.722  19.862  0.00  0.00    +0.000 A 
ATOM     29  H   UNL     1      46.101  10.346  22.024  0.00  0.00    +0.000 HD
BRANCH  21  31
ATOM     30  N   UNL     1      48.712   5.385  20.985  0.00  0.00    +0.000 NA
ATOM     31  C   UNL     1      48.268   6.455  20.885  0.00  0.00    +0.000 C 
ENDBRANCH  21  31
ENDBRANCH  17  27
ENDBRANCH   1  19
TORSDOF 7
ENDMDL
MODEL 6
REMARK VINA RESULT:    -6.639      2.307      3.052
REMARK INTER + INTRA:         -10.594
REMARK INTER:                  -9.655
REMARK INTRA:                  -0.939
REMARK UNBOUND:                -1.238
REMARK  Name = 
REMARK  7 active torsions:
REMARK  status: ('A' for Active; 'I' for Inactive)
REMARK    1  A    between atoms: C_2  and  C_3
REMARK    2  A    between atoms: C_9  and  C_10
REMARK    3  A    between atoms: N_12  and  C_13
REMARK    4  A    between atoms: C_13  and  C_14
REMARK    5  A    between atoms: C_17  and  C_18
REMARK    6  A    between atoms: C_19  and  C_20
REMARK    7  A    between atoms: C_20  and  C_21
REMARK                            x       y       z     vdW  Elec       q    Type
REMARK                         _______ _______ _______ _____ _____    ______ ____
ROOT
ATOM      1  C   UNL     1      47.826   8.786  14.714  0.00  0.00    +0.000 C 
ENDROOT
BRANCH   1   2
ATOM      2  C   UNL     1      47.226   7.866  13.677  0.00  0.00    +0.000 A 
ATOM      3  C   UNL     1      46.273   8.380  12.783  0.00  0.00    +0.000 A 
ATOM      4  C   UNL     1      45.688   7.572  11.807  0.00  0.00    +0.000 A 
ATOM      5  C   UNL     1      46.043   6.228  11.718  0.00  0.00    +0.000 A 
ATOM      6  C   UNL     1      47.005   5.703  12.582  0.00  0.00    +0.000 A 
ATOM      7  C   UNL     1      47.601   6.518  13.553  0.00  0.00    +0.000 A 
BRANCH   5   8
ATOM      8  C   UNL     1      45.473   5.404  10.705  0.00  0.00    +0.000 C 
ATOM      9  C   UNL     1      45.040   4.757   9.787  0.00  0.00    +0.000 C 
BRANCH   9  10
ATOM     10  C   UNL     1      44.543   4.032   8.617  0.00  0.00    +0.000 C 
BRANCH  10  11
ATOM     11  C   UNL     1      45.593   3.146   7.988  0.00  0.00    +0.000 A 
ATOM     12  C   UNL     1      45.772   1.839   8.464  0.00  0.00    +0.000 A 
ATOM     13  C   UNL     1      46.691   0.980   7.858  0.00  0.00    +0.000 A 
ATOM     14  C   UNL     1      47.450   1.421   6.776  0.00  0.00    +0.000 A 
ATOM     15  C   UNL     1      47.312   2.727   6.316  0.00  0.00    +0.000 A 
ATOM     16  C   UNL     1      46.392   3.592   6.923  0.00  0.00    +0.000 A 
ENDBRANCH  10  11
ENDBRANCH   9  10
ENDBRANCH   5   8
ENDBRANCH   1   2
BRANCH   1  19
ATOM     17  C   UNL     1      48.195   8.821  17.145  0.00  0.00    +0.000 C 
ATOM     18  O   UNL     1      47.858  10.002  17.175  0.00  0.00    +0.000 OA
ATOM     19  N   UNL     1      48.197   8.118  15.950  0.00  0.00    +0.000 N 
ATOM     20  H   UNL     1      48.299   7.114  15.937  0.00  0.00    +0.000 HD
BRANCH  17  27
ATOM     21  C   UNL     1      51.150   7.729  18.107  0.00  0.00    +0.000 A 
ATOM     22  C   UNL     1      51.887   6.967  19.022  0.00  0.00    +0.000 A 
ATOM     23  N   UNL     1      51.023   6.415  19.977  0.00  0.00    +0.000 N 
ATOM     24  C   UNL     1      49.765   6.828  19.671  0.00  0.00    +0.000 A 
ATOM     25  N   UNL     1      48.510   6.674  20.160  0.00  0.00    +0.000 NA
ATOM     26  C   UNL     1      47.759   7.417  19.267  0.00  0.00    +0.000 C 
ATOM     27  C   UNL     1      48.579   8.023  18.270  0.00  0.00    +0.000 C 
ATOM     28  C   UNL     1      49.872   7.589  18.580  0.00  0.00    +0.000 A 
ATOM     29  H   UNL     1      51.273   5.821  20.753  0.00  0.00    +0.000 HD
BRANCH  21  31
ATOM     30  N   UNL     1      52.160   8.969  16.076  0.00  0.00    +0.000 NA
ATOM     31  C   UNL     1      51.688   8.441  16.999  0.00  0.00    +0.000 C 
ENDBRANCH  21  31
ENDBRANCH  17  27
ENDBRANCH   1  19
TORSDOF 7
ENDMDL
MODEL 7
REMARK VINA RESULT:    -6.376      3.390      4.894
REMARK INTER + INTRA:         -10.224
REMARK INTER:                  -8.993
REMARK INTRA:                  -1.230
REMARK UNBOUND:                -1.238
REMARK  Name = 
REMARK  7 active torsions:
REMARK  status: ('A' for Active; 'I' for Inactive)
REMARK    1  A    between atoms: C_2  and  C_3
REMARK    2  A    between atoms: C_9  and  C_10
REMARK    3  A    between atoms: N_12  and  C_13
REMARK    4  A    between atoms: C_13  and  C_14
REMARK    5  A    between atoms: C_17  and  C_18
REMARK    6  A    between atoms: C_19  and  C_20
REMARK    7  A    between atoms: C_20  and  C_21
REMARK                            x       y       z     vdW  Elec       q    Type
REMARK                         _______ _______ _______ _____ _____    ______ ____
ROOT
ATOM      1  C   UNL     1      47.804   8.849  14.727  0.00  0.00    +0.000 C 
ENDROOT
BRANCH   1   2
ATOM      2  C   UNL     1      47.145   7.979  13.683  0.00  0.00    +0.000 A 
ATOM      3  C   UNL     1      47.473   6.614  13.632  0.00  0.00    +0.000 A 
ATOM      4  C   UNL     1      46.893   5.768  12.685  0.00  0.00    +0.000 A 
ATOM      5  C   UNL     1      45.980   6.279  11.765  0.00  0.00    +0.000 A 
ATOM      6  C   UNL     1      45.625   7.627  11.815  0.00  0.00    +0.000 A 
ATOM      7  C   UNL     1      46.197   8.474  12.773  0.00  0.00    +0.000 A 
BRANCH   5   8
ATOM      8  C   UNL     1      45.362   5.415  10.817  0.00  0.00    +0.000 C 
ATOM      9  C   UNL     1      44.917   4.689   9.966  0.00  0.00    +0.000 C 
BRANCH   9  10
ATOM     10  C   UNL     1      44.441   3.835   8.878  0.00  0.00    +0.000 C 
BRANCH  10  11
ATOM     11  C   UNL     1      45.556   3.062   8.210  0.00  0.00    +0.000 A 
ATOM     12  C   UNL     1      45.693   1.689   8.461  0.00  0.00    +0.000 A 
ATOM     13  C   UNL     1      46.674   0.941   7.809  0.00  0.00    +0.000 A 
ATOM     14  C   UNL     1      47.538   1.558   6.906  0.00  0.00    +0.000 A 
ATOM     15  C   UNL     1      47.440   2.927   6.675  0.00  0.00    +0.000 A 
ATOM     16  C   UNL     1      46.457   3.681   7.330  0.00  0.00    +0.000 A 
ENDBRANCH  10  11
ENDBRANCH   9  10
ENDBRANCH   5   8
ENDBRANCH   1   2
BRANCH   1  19
ATOM     17  C   UNL     1      49.786  10.212  14.217  0.00  0.00    +0.000 C 
ATOM     18  O   UNL     1      49.067  11.198  14.075  0.00  0.00    +0.000 OA
ATOM     19  N   UNL     1      49.242   8.984  14.559  0.00  0.00    +0.000 N 
ATOM     20  H   UNL     1      49.829   8.216  14.849  0.00  0.00    +0.000 HD
BRANCH  17  27
ATOM     21  C   UNL     1      51.737   8.599  12.110  0.00  0.00    +0.000 A 
ATOM     22  C   UNL     1      53.044   8.288  11.710  0.00  0.00    +0.000 A 
ATOM     23  N   UNL     1      53.958   8.945  12.544  0.00  0.00    +0.000 N 
ATOM     24  C   UNL     1      53.239   9.660  13.449  0.00  0.00    +0.000 A 
ATOM     25  N   UNL     1      53.481  10.489  14.494  0.00  0.00    +0.000 NA
ATOM     26  C   UNL     1      52.201  10.807  14.912  0.00  0.00    +0.000 C 
ATOM     27  C   UNL     1      51.213  10.183  14.095  0.00  0.00    +0.000 C 
ATOM     28  C   UNL     1      51.953   9.439  13.170  0.00  0.00    +0.000 A 
ATOM     29  H   UNL     1      54.965   8.904  12.494  0.00  0.00    +0.000 HD
BRANCH  21  31
ATOM     30  N   UNL     1      49.591   7.664  11.014  0.00  0.00    +0.000 NA
ATOM     31  C   UNL     1      50.548   8.117  11.496  0.00  0.00    +0.000 C 
ENDBRANCH  21  31
ENDBRANCH  17  27
ENDBRANCH   1  19
TORSDOF 7
ENDMDL
MODEL 8
REMARK VINA RESULT:    -6.347      4.185      6.161
REMARK INTER + INTRA:         -10.182
REMARK INTER:                  -9.150
REMARK INTRA:                  -1.033
REMARK UNBOUND:                -1.238
REMARK  Name = 
REMARK  7 active torsions:
REMARK  status: ('A' for Active; 'I' for Inactive)
REMARK    1  A    between atoms: C_2  and  C_3
REMARK    2  A    between atoms: C_9  and  C_10
REMARK    3  A    between atoms: N_12  and  C_13
REMARK    4  A    between atoms: C_13  and  C_14
REMARK    5  A    between atoms: C_17  and  C_18
REMARK    6  A    between atoms: C_19  and  C_20
REMARK    7  A    between atoms: C_20  and  C_21
REMARK                            x       y       z     vdW  Elec       q    Type
REMARK                         _______ _______ _______ _____ _____    ______ ____
ROOT
ATOM      1  C   UNL     1      47.549   5.511  13.652  0.00  0.00    +0.000 C 
ENDROOT
BRANCH   1   2
ATOM      2  C   UNL     1      46.640   6.515  12.984  0.00  0.00    +0.000 A 
ATOM      3  C   UNL     1      45.718   6.064  12.027  0.00  0.00    +0.000 A 
ATOM      4  C   UNL     1      44.856   6.951  11.379  0.00  0.00    +0.000 A 
ATOM      5  C   UNL     1      44.913   8.311  11.675  0.00  0.00    +0.000 A 
ATOM      6  C   UNL     1      45.807   8.776  12.640  0.00  0.00    +0.000 A 
ATOM      7  C   UNL     1      46.662   7.884  13.298  0.00  0.00    +0.000 A 
BRANCH   5   8
ATOM      8  C   UNL     1      44.016   9.218  11.041  0.00  0.00    +0.000 C 
ATOM      9  C   UNL     1      43.189   9.930  10.534  0.00  0.00    +0.000 C 
BRANCH   9  10
ATOM     10  C   UNL     1      42.125  10.730   9.925  0.00  0.00    +0.000 C 
BRANCH  10  11
ATOM     11  C   UNL     1      40.982  11.004  10.875  0.00  0.00    +0.000 A 
ATOM     12  C   UNL     1      39.681  10.616  10.524  0.00  0.00    +0.000 A 
ATOM     13  C   UNL     1      38.619  10.800  11.411  0.00  0.00    +0.000 A 
ATOM     14  C   UNL     1      38.843  11.384  12.657  0.00  0.00    +0.000 A 
ATOM     15  C   UNL     1      40.121  11.809  13.005  0.00  0.00    +0.000 A 
ATOM     16  C   UNL     1      41.189  11.627  12.116  0.00  0.00    +0.000 A 
ENDBRANCH  10  11
ENDBRANCH   9  10
ENDBRANCH   5   8
ENDBRANCH   1   2
BRANCH   1  19
ATOM     17  C   UNL     1      48.648   6.063  15.782  0.00  0.00    +0.000 C 
ATOM     18  O   UNL     1      49.636   6.455  15.166  0.00  0.00    +0.000 OA
ATOM     19  N   UNL     1      47.539   5.581  15.104  0.00  0.00    +0.000 N 
ATOM     20  H   UNL     1      46.664   5.424  15.582  0.00  0.00    +0.000 HD
BRANCH  17  27
ATOM     21  C   UNL     1      48.588   3.598  17.965  0.00  0.00    +0.000 A 
ATOM     22  C   UNL     1      48.423   3.205  19.300  0.00  0.00    +0.000 A 
ATOM     23  N   UNL     1      48.189   4.334  20.096  0.00  0.00    +0.000 N 
ATOM     24  C   UNL     1      48.212   5.418  19.276  0.00  0.00    +0.000 A 
ATOM     25  N   UNL     1      48.069   6.762  19.384  0.00  0.00    +0.000 NA
ATOM     26  C   UNL     1      48.223   7.175  18.073  0.00  0.00    +0.000 C 
ATOM     27  C   UNL     1      48.480   6.074  17.204  0.00  0.00    +0.000 C 
ATOM     28  C   UNL     1      48.446   4.957  18.046  0.00  0.00    +0.000 A 
ATOM     29  H   UNL     1      48.031   4.354  21.091  0.00  0.00    +0.000 HD
BRANCH  21  31
ATOM     30  N   UNL     1      49.112   2.033  15.975  0.00  0.00    +0.000 NA
ATOM     31  C   UNL     1      48.843   2.724  16.871  0.00  0.00    +0.000 C 
ENDBRANCH  21  31
ENDBRANCH  17  27
ENDBRANCH   1  19
TORSDOF 7
ENDMDL
MODEL 9
REMARK VINA RESULT:    -6.346      4.069      5.947
REMARK INTER + INTRA:         -10.181
REMARK INTER:                  -9.259
REMARK INTRA:                  -0.922
REMARK UNBOUND:                -1.238
REMARK  Name = 
REMARK  7 active torsions:
REMARK  status: ('A' for Active; 'I' for Inactive)
REMARK    1  A    between atoms: C_2  and  C_3
REMARK    2  A    between atoms: C_9  and  C_10
REMARK    3  A    between atoms: N_12  and  C_13
REMARK    4  A    between atoms: C_13  and  C_14
REMARK    5  A    between atoms: C_17  and  C_18
REMARK    6  A    between atoms: C_19  and  C_20
REMARK    7  A    between atoms: C_20  and  C_21
REMARK                            x       y       z     vdW  Elec       q    Type
REMARK                         _______ _______ _______ _____ _____    ______ ____
ROOT
ATOM      1  C   UNL     1      46.876   4.368  14.420  0.00  0.00    +0.000 C 
ENDROOT
BRANCH   1   2
ATOM      2  C   UNL     1      46.225   5.478  13.630  0.00  0.00    +0.000 A 
ATOM      3  C   UNL     1      46.965   6.640  13.355  0.00  0.00    +0.000 A 
ATOM      4  C   UNL     1      46.410   7.695  12.630  0.00  0.00    +0.000 A 
ATOM      5  C   UNL     1      45.095   7.608  12.177  0.00  0.00    +0.000 A 
ATOM      6  C   UNL     1      44.351   6.453  12.421  0.00  0.00    +0.000 A 
ATOM      7  C   UNL     1      44.913   5.389  13.137  0.00  0.00    +0.000 A 
BRANCH   5   8
ATOM      8  C   UNL     1      44.532   8.668  11.410  0.00  0.00    +0.000 C 
ATOM      9  C   UNL     1      44.050   9.505  10.692  0.00  0.00    +0.000 C 
BRANCH   9  10
ATOM     10  C   UNL     1      43.485  10.471   9.749  0.00  0.00    +0.000 C 
BRANCH  10  11
ATOM     11  C   UNL     1      42.027  10.766  10.019  0.00  0.00    +0.000 A 
ATOM     12  C   UNL     1      41.317   9.972  10.932  0.00  0.00    +0.000 A 
ATOM     13  C   UNL     1      39.988  10.263  11.245  0.00  0.00    +0.000 A 
ATOM     14  C   UNL     1      39.349  11.344  10.642  0.00  0.00    +0.000 A 
ATOM     15  C   UNL     1      40.027  12.117   9.705  0.00  0.00    +0.000 A 
ATOM     16  C   UNL     1      41.360  11.827   9.386  0.00  0.00    +0.000 A 
ENDBRANCH  10  11
ENDBRANCH   9  10
ENDBRANCH   5   8
ENDBRANCH   1   2
BRANCH   1  19
ATOM     17  C   UNL     1      47.305   4.320  16.841  0.00  0.00    +0.000 C 
ATOM     18  O   UNL     1      46.433   3.465  16.974  0.00  0.00    +0.000 OA
ATOM     19  N   UNL     1      47.610   4.828  15.588  0.00  0.00    +0.000 N 
ATOM     20  H   UNL     1      48.433   5.393  15.441  0.00  0.00    +0.000 HD
BRANCH  17  27
ATOM     21  C   UNL     1      50.266   3.418  17.967  0.00  0.00    +0.000 A 
ATOM     22  C   UNL     1      51.290   3.629  18.900  0.00  0.00    +0.000 A 
ATOM     23  N   UNL     1      50.949   4.699  19.738  0.00  0.00    +0.000 N 
ATOM     24  C   UNL     1      49.733   5.156  19.335  0.00  0.00    +0.000 A 
ATOM     25  N   UNL     1      48.858   6.128  19.691  0.00  0.00    +0.000 NA
ATOM     26  C   UNL     1      47.831   5.937  18.784  0.00  0.00    +0.000 C 
ATOM     27  C   UNL     1      48.118   4.868  17.885  0.00  0.00    +0.000 C 
ATOM     28  C   UNL     1      49.364   4.391  18.306  0.00  0.00    +0.000 A 
ATOM     29  H   UNL     1      51.493   5.071  20.501  0.00  0.00    +0.000 HD
BRANCH  21  31
ATOM     30  N   UNL     1      50.199   1.619  16.111  0.00  0.00    +0.000 NA
ATOM     31  C   UNL     1      50.262   2.418  16.955  0.00  0.00    +0.000 C 
ENDBRANCH  21  31
ENDBRANCH  17  27
ENDBRANCH   1  19
TORSDOF 7
ENDMDL
