MODEL 1
REMARK VINA RESULT:    -8.686      0.000      0.000
REMARK INTER + INTRA:         -12.143
REMARK INTER:                 -11.225
REMARK INTRA:                  -0.918
REMARK UNBOUND:                -0.918
REMARK  Name = 
REMARK  5 active torsions:
REMARK  status: ('A' for Active; 'I' for Inactive)
REMARK    1  A    between atoms: C_2  and  C_4
REMARK    2  A    between atoms: C_8  and  N_9
REMARK    3  A    between atoms: N_9  and  C_10
REMARK    4  A    between atoms: C_10  and  C_11
REMARK    5  A    between atoms: C_15  and  C_16
REMARK                            x       y       z     vdW  Elec       q    Type
REMARK                         _______ _______ _______ _____ _____    ______ ____
ROOT
ATOM      1  N   UNL     1      43.841   6.405  12.312  0.00  0.00    +0.000 N 
ATOM      2  H   UNL     1      43.253   5.989  13.031  0.00  0.00    +0.000 HD
ENDROOT
BRANCH   1   7
ATOM      3  C   UNL     1      46.933   5.198  13.981  0.00  0.00    +0.000 A 
ATOM      4  C   UNL     1      47.923   5.932  13.321  0.00  0.00    +0.000 A 
ATOM      5  C   UNL     1      47.558   6.838  12.332  0.00  0.00    +0.000 A 
ATOM      6  C   UNL     1      46.212   6.994  11.985  0.00  0.00    +0.000 A 
ATOM      7  C   UNL     1      45.206   6.230  12.591  0.00  0.00    +0.000 A 
ATOM      8  C   UNL     1      45.585   5.354  13.619  0.00  0.00    +0.000 A 
BRANCH   3  10
ATOM      9  N   UNL     1      47.169   4.656  16.342  0.00  0.00    +0.000 N 
ATOM     10  C   UNL     1      47.276   4.225  15.049  0.00  0.00    +0.000 C 
ATOM     11  O   UNL     1      47.615   3.077  14.790  0.00  0.00    +0.000 OA
ATOM     12  H   UNL     1      47.306   3.959  17.061  0.00  0.00    +0.000 HD
ATOM     13  H   UNL     1      46.658   5.491  16.593  0.00  0.00    +0.000 HD
ENDBRANCH   3  10
ENDBRANCH   1   7
BRANCH   1  14
ATOM     14  C   UNL     1      43.372   6.100  10.965  0.00  0.00    +0.000 C 
BRANCH  14  15
ATOM     15  C   UNL     1      43.699   4.677  10.611  0.00  0.00    +0.000 A 
ATOM     16  C   UNL     1      43.164   3.624  11.340  0.00  0.00    +0.000 A 
ATOM     17  N   UNL     1      43.397   2.325  11.065  0.00  0.00    +0.000 NA
ATOM     18  C   UNL     1      44.229   2.062  10.029  0.00  0.00    +0.000 A 
ATOM     19  C   UNL     1      44.847   3.023   9.224  0.00  0.00    +0.000 A 
ATOM     20  C   UNL     1      44.552   4.358   9.545  0.00  0.00    +0.000 A 
BRANCH  19  21
ATOM     21  C   UNL     1      45.762   2.660   8.122  0.00  0.00    +0.000 A 
ATOM     22  C   UNL     1      46.065   3.548   7.077  0.00  0.00    +0.000 A 
ATOM     23  C   UNL     1      46.952   3.187   6.065  0.00  0.00    +0.000 A 
ATOM     24  C   UNL     1      47.533   1.933   6.118  0.00  0.00    +0.000 A 
ATOM     25  N   UNL     1      47.275   1.037   7.088  0.00  0.00    +0.000 NA
ATOM     26  C   UNL     1      46.402   1.418   8.054  0.00  0.00    +0.000 A 
ENDBRANCH  19  21
ENDBRANCH  14  15
ENDBRANCH   1  14
TORSDOF 5
ENDMDL
MODEL 2
REMARK VINA RESULT:    -8.024      2.626      6.651
REMARK INTER + INTRA:         -11.288
REMARK INTER:                 -10.519
REMARK INTRA:                  -0.769
REMARK UNBOUND:                -0.918
REMARK  Name = 
REMARK  5 active torsions:
REMARK  status: ('A' for Active; 'I' for Inactive)
REMARK    1  A    between atoms: C_2  and  C_4
REMARK    2  A    between atoms: C_8  and  N_9
REMARK    3  A    between atoms: N_9  and  C_10
REMARK    4  A    between atoms: C_10  and  C_11
REMARK    5  A    between atoms: C_15  and  C_16
REMARK                            x       y       z     vdW  Elec       q    Type
REMARK                         _______ _______ _______ _____ _____    ______ ____
ROOT
ATOM      1  N   UNL     1      44.452   4.992   9.293  0.00  0.00    +0.000 N 
ATOM      2  H   UNL     1      45.106   5.749   9.106  0.00  0.00    +0.000 HD
ENDROOT
BRANCH   1   7
ATOM      3  C   UNL     1      46.484   2.451   7.501  0.00  0.00    +0.000 A 
ATOM      4  C   UNL     1      46.004   1.258   8.049  0.00  0.00    +0.000 A 
ATOM      5  C   UNL     1      44.994   1.301   9.004  0.00  0.00    +0.000 A 
ATOM      6  C   UNL     1      44.482   2.531   9.428  0.00  0.00    +0.000 A 
ATOM      7  C   UNL     1      44.984   3.743   8.936  0.00  0.00    +0.000 A 
ATOM      8  C   UNL     1      45.970   3.682   7.940  0.00  0.00    +0.000 A 
BRANCH   3  10
ATOM      9  N   UNL     1      47.410   3.314   5.422  0.00  0.00    +0.000 N 
ATOM     10  C   UNL     1      47.556   2.451   6.473  0.00  0.00    +0.000 C 
ATOM     11  O   UNL     1      48.543   1.733   6.572  0.00  0.00    +0.000 OA
ATOM     12  H   UNL     1      48.192   3.380   4.784  0.00  0.00    +0.000 HD
ATOM     13  H   UNL     1      46.757   4.084   5.441  0.00  0.00    +0.000 HD
ENDBRANCH   3  10
ENDBRANCH   1   7
BRANCH   1  14
ATOM     14  C   UNL     1      43.813   5.118  10.598  0.00  0.00    +0.000 C 
BRANCH  14  15
ATOM     15  C   UNL     1      44.849   5.102  11.686  0.00  0.00    +0.000 A 
ATOM     16  C   UNL     1      44.727   4.244  12.769  0.00  0.00    +0.000 A 
ATOM     17  N   UNL     1      45.628   4.162  13.768  0.00  0.00    +0.000 NA
ATOM     18  C   UNL     1      46.691   4.999  13.700  0.00  0.00    +0.000 A 
ATOM     19  C   UNL     1      46.929   5.922  12.677  0.00  0.00    +0.000 A 
ATOM     20  C   UNL     1      45.967   5.948  11.654  0.00  0.00    +0.000 A 
BRANCH  19  21
ATOM     21  C   UNL     1      48.103   6.820  12.680  0.00  0.00    +0.000 A 
ATOM     22  C   UNL     1      48.473   7.571  11.554  0.00  0.00    +0.000 A 
ATOM     23  C   UNL     1      49.569   8.430  11.595  0.00  0.00    +0.000 A 
ATOM     24  C   UNL     1      50.282   8.528  12.776  0.00  0.00    +0.000 A 
ATOM     25  N   UNL     1      49.981   7.826  13.884  0.00  0.00    +0.000 NA
ATOM     26  C   UNL     1      48.911   6.995  13.808  0.00  0.00    +0.000 A 
ENDBRANCH  19  21
ENDBRANCH  14  15
ENDBRANCH   1  14
TORSDOF 5
ENDMDL
MODEL 3
REMARK VINA RESULT:    -7.827      2.388      6.568
REMARK INTER + INTRA:         -11.033
REMARK INTER:                 -10.755
REMARK INTRA:                  -0.278
REMARK UNBOUND:                -0.918
REMARK  Name = 
REMARK  5 active torsions:
REMARK  status: ('A' for Active; 'I' for Inactive)
REMARK    1  A    between atoms: C_2  and  C_4
REMARK    2  A    between atoms: C_8  and  N_9
REMARK    3  A    between atoms: N_9  and  C_10
REMARK    4  A    between atoms: C_10  and  C_11
REMARK    5  A    between atoms: C_15  and  C_16
REMARK                            x       y       z     vdW  Elec       q    Type
REMARK                         _______ _______ _______ _____ _____    ______ ____
ROOT
ATOM      1  N   UNL     1      44.008   2.376  10.461  0.00  0.00    +0.000 N 
ATOM      2  H   UNL     1      43.245   1.779  10.148  0.00  0.00    +0.000 HD
ENDROOT
BRANCH   1   7
ATOM      3  C   UNL     1      46.508   2.351   7.715  0.00  0.00    +0.000 A 
ATOM      4  C   UNL     1      46.511   3.690   7.314  0.00  0.00    +0.000 A 
ATOM      5  C   UNL     1      45.690   4.602   7.968  0.00  0.00    +0.000 A 
ATOM      6  C   UNL     1      44.852   4.175   9.003  0.00  0.00    +0.000 A 
ATOM      7  C   UNL     1      44.790   2.828   9.387  0.00  0.00    +0.000 A 
ATOM      8  C   UNL     1      45.657   1.929   8.748  0.00  0.00    +0.000 A 
BRANCH   3  10
ATOM      9  N   UNL     1      48.478   1.811   6.390  0.00  0.00    +0.000 N 
ATOM     10  C   UNL     1      47.374   1.345   7.049  0.00  0.00    +0.000 C 
ATOM     11  O   UNL     1      47.131   0.146   7.108  0.00  0.00    +0.000 OA
ATOM     12  H   UNL     1      49.114   1.113   6.028  0.00  0.00    +0.000 HD
ATOM     13  H   UNL     1      48.841   2.742   6.536  0.00  0.00    +0.000 HD
ENDBRANCH   3  10
ENDBRANCH   1   7
BRANCH   1  14
ATOM     14  C   UNL     1      43.577   3.352  11.456  0.00  0.00    +0.000 C 
BRANCH  14  15
ATOM     15  C   UNL     1      44.772   3.965  12.132  0.00  0.00    +0.000 A 
ATOM     16  C   UNL     1      45.586   3.205  12.958  0.00  0.00    +0.000 A 
ATOM     17  N   UNL     1      46.683   3.684  13.578  0.00  0.00    +0.000 NA
ATOM     18  C   UNL     1      46.967   4.995  13.387  0.00  0.00    +0.000 A 
ATOM     19  C   UNL     1      46.224   5.876  12.596  0.00  0.00    +0.000 A 
ATOM     20  C   UNL     1      45.104   5.316  11.960  0.00  0.00    +0.000 A 
BRANCH  19  21
ATOM     21  C   UNL     1      46.583   7.302  12.452  0.00  0.00    +0.000 A 
ATOM     22  C   UNL     1      47.898   7.721  12.193  0.00  0.00    +0.000 A 
ATOM     23  C   UNL     1      48.201   9.072  12.035  0.00  0.00    +0.000 A 
ATOM     24  C   UNL     1      47.174   9.991  12.135  0.00  0.00    +0.000 A 
ATOM     25  N   UNL     1      45.897   9.651  12.391  0.00  0.00    +0.000 NA
ATOM     26  C   UNL     1      45.637   8.328  12.545  0.00  0.00    +0.000 A 
ENDBRANCH  19  21
ENDBRANCH  14  15
ENDBRANCH   1  14
TORSDOF 5
ENDMDL
MODEL 4
REMARK VINA RESULT:    -7.728      2.389      3.129
REMARK INTER + INTRA:         -10.905
REMARK INTER:                 -10.065
REMARK INTRA:                  -0.840
REMARK UNBOUND:                -0.918
REMARK  Name = 
REMARK  5 active torsions:
REMARK  status: ('A' for Active; 'I' for Inactive)
REMARK    1  A    between atoms: C_2  and  C_4
REMARK    2  A    between atoms: C_8  and  N_9
REMARK    3  A    between atoms: N_9  and  C_10
REMARK    4  A    between atoms: C_10  and  C_11
REMARK    5  A    between atoms: C_15  and  C_16
REMARK                            x       y       z     vdW  Elec       q    Type
REMARK                         _______ _______ _______ _____ _____    ______ ____
ROOT
ATOM      1  N   UNL     1      44.351   6.635  12.672  0.00  0.00    +0.000 N 
ATOM      2  H   UNL     1      44.264   5.850  13.314  0.00  0.00    +0.000 HD
ENDROOT
BRANCH   1   7
ATOM      3  C   UNL     1      47.173   8.997  12.163  0.00  0.00    +0.000 A 
ATOM      4  C   UNL     1      48.282   8.174  12.380  0.00  0.00    +0.000 A 
ATOM      5  C   UNL     1      48.088   6.830  12.681  0.00  0.00    +0.000 A 
ATOM      6  C   UNL     1      46.793   6.315  12.789  0.00  0.00    +0.000 A 
ATOM      7  C   UNL     1      45.664   7.131  12.632  0.00  0.00    +0.000 A 
ATOM      8  C   UNL     1      45.876   8.473  12.283  0.00  0.00    +0.000 A 
BRANCH   3  10
ATOM      9  N   UNL     1      46.330  11.280  12.220  0.00  0.00    +0.000 N 
ATOM     10  C   UNL     1      47.333  10.435  11.832  0.00  0.00    +0.000 C 
ATOM     11  O   UNL     1      48.330  10.858  11.260  0.00  0.00    +0.000 OA
ATOM     12  H   UNL     1      46.495  12.268  12.081  0.00  0.00    +0.000 HD
ATOM     13  H   UNL     1      45.634  11.014  12.903  0.00  0.00    +0.000 HD
ENDBRANCH   3  10
ENDBRANCH   1   7
BRANCH   1  14
ATOM     14  C   UNL     1      43.669   6.397  11.406  0.00  0.00    +0.000 C 
BRANCH  14  15
ATOM     15  C   UNL     1      43.816   4.957  11.000  0.00  0.00    +0.000 A 
ATOM     16  C   UNL     1      43.162   3.953  11.700  0.00  0.00    +0.000 A 
ATOM     17  N   UNL     1      43.232   2.646  11.378  0.00  0.00    +0.000 NA
ATOM     18  C   UNL     1      44.017   2.319  10.324  0.00  0.00    +0.000 A 
ATOM     19  C   UNL     1      44.741   3.225   9.544  0.00  0.00    +0.000 A 
ATOM     20  C   UNL     1      44.614   4.574   9.913  0.00  0.00    +0.000 A 
BRANCH  19  21
ATOM     21  C   UNL     1      45.596   2.792   8.418  0.00  0.00    +0.000 A 
ATOM     22  C   UNL     1      45.955   3.659   7.374  0.00  0.00    +0.000 A 
ATOM     23  C   UNL     1      46.784   3.230   6.340  0.00  0.00    +0.000 A 
ATOM     24  C   UNL     1      47.250   1.928   6.370  0.00  0.00    +0.000 A 
ATOM     25  N   UNL     1      46.932   1.049   7.338  0.00  0.00    +0.000 NA
ATOM     26  C   UNL     1      46.118   1.498   8.327  0.00  0.00    +0.000 A 
ENDBRANCH  19  21
ENDBRANCH  14  15
ENDBRANCH   1  14
TORSDOF 5
ENDMDL
MODEL 5
REMARK VINA RESULT:    -7.410      1.388      1.797
REMARK INTER + INTRA:         -10.494
REMARK INTER:                  -9.799
REMARK INTRA:                  -0.695
REMARK UNBOUND:                -0.918
REMARK  Name = 
REMARK  5 active torsions:
REMARK  status: ('A' for Active; 'I' for Inactive)
REMARK    1  A    between atoms: C_2  and  C_4
REMARK    2  A    between atoms: C_8  and  N_9
REMARK    3  A    between atoms: N_9  and  C_10
REMARK    4  A    between atoms: C_10  and  C_11
REMARK    5  A    between atoms: C_15  and  C_16
REMARK                            x       y       z     vdW  Elec       q    Type
REMARK                         _______ _______ _______ _____ _____    ______ ____
ROOT
ATOM      1  N   UNL     1      46.632   6.068  12.359  0.00  0.00    +0.000 N 
ATOM      2  H   UNL     1      46.951   6.867  11.814  0.00  0.00    +0.000 HD
ENDROOT
BRANCH   1   7
ATOM      3  C   UNL     1      47.690   4.740  15.663  0.00  0.00    +0.000 A 
ATOM      4  C   UNL     1      48.503   5.771  16.142  0.00  0.00    +0.000 A 
ATOM      5  C   UNL     1      48.687   6.913  15.370  0.00  0.00    +0.000 A 
ATOM      6  C   UNL     1      48.080   7.016  14.114  0.00  0.00    +0.000 A 
ATOM      7  C   UNL     1      47.306   5.974  13.587  0.00  0.00    +0.000 A 
ATOM      8  C   UNL     1      47.093   4.848  14.397  0.00  0.00    +0.000 A 
BRANCH   3  10
ATOM      9  N   UNL     1      48.353   2.483  16.290  0.00  0.00    +0.000 N 
ATOM     10  C   UNL     1      47.461   3.507  16.457  0.00  0.00    +0.000 C 
ATOM     11  O   UNL     1      46.531   3.414  17.248  0.00  0.00    +0.000 OA
ATOM     12  H   UNL     1      48.247   1.690  16.908  0.00  0.00    +0.000 HD
ATOM     13  H   UNL     1      49.253   2.618  15.853  0.00  0.00    +0.000 HD
ENDBRANCH   3  10
ENDBRANCH   1   7
BRANCH   1  14
ATOM     14  C   UNL     1      45.180   5.940  12.361  0.00  0.00    +0.000 C 
BRANCH  14  15
ATOM     15  C   UNL     1      44.764   4.737  11.561  0.00  0.00    +0.000 A 
ATOM     16  C   UNL     1      43.684   3.961  11.957  0.00  0.00    +0.000 A 
ATOM     17  N   UNL     1      43.244   2.884  11.277  0.00  0.00    +0.000 NA
ATOM     18  C   UNL     1      43.933   2.545  10.161  0.00  0.00    +0.000 A 
ATOM     19  C   UNL     1      45.045   3.227   9.659  0.00  0.00    +0.000 A 
ATOM     20  C   UNL     1      45.446   4.352  10.398  0.00  0.00    +0.000 A 
BRANCH  19  21
ATOM     21  C   UNL     1      45.761   2.785   8.444  0.00  0.00    +0.000 A 
ATOM     22  C   UNL     1      46.071   3.667   7.395  0.00  0.00    +0.000 A 
ATOM     23  C   UNL     1      46.770   3.227   6.274  0.00  0.00    +0.000 A 
ATOM     24  C   UNL     1      47.158   1.900   6.220  0.00  0.00    +0.000 A 
ATOM     25  N   UNL     1      46.881   1.008   7.189  0.00  0.00    +0.000 NA
ATOM     26  C   UNL     1      46.194   1.468   8.264  0.00  0.00    +0.000 A 
ENDBRANCH  19  21
ENDBRANCH  14  15
ENDBRANCH   1  14
TORSDOF 5
ENDMDL
MODEL 6
REMARK VINA RESULT:    -7.140      2.024      6.904
REMARK INTER + INTRA:         -10.144
REMARK INTER:                  -9.804
REMARK INTRA:                  -0.340
REMARK UNBOUND:                -0.918
REMARK  Name = 
REMARK  5 active torsions:
REMARK  status: ('A' for Active; 'I' for Inactive)
REMARK    1  A    between atoms: C_2  and  C_4
REMARK    2  A    between atoms: C_8  and  N_9
REMARK    3  A    between atoms: N_9  and  C_10
REMARK    4  A    between atoms: C_10  and  C_11
REMARK    5  A    between atoms: C_15  and  C_16
REMARK                            x       y       z     vdW  Elec       q    Type
REMARK                         _______ _______ _______ _____ _____    ______ ____
ROOT
ATOM      1  N   UNL     1      44.033   2.582  10.964  0.00  0.00    +0.000 N 
ATOM      2  H   UNL     1      43.521   1.703  11.005  0.00  0.00    +0.000 HD
ENDROOT
BRANCH   1   7
ATOM      3  C   UNL     1      46.154   2.084   7.955  0.00  0.00    +0.000 A 
ATOM      4  C   UNL     1      45.880   3.236   7.214  0.00  0.00    +0.000 A 
ATOM      5  C   UNL     1      45.000   4.185   7.724  0.00  0.00    +0.000 A 
ATOM      6  C   UNL     1      44.378   3.972   8.958  0.00  0.00    +0.000 A 
ATOM      7  C   UNL     1      44.592   2.800   9.695  0.00  0.00    +0.000 A 
ATOM      8  C   UNL     1      45.517   1.874   9.189  0.00  0.00    +0.000 A 
BRANCH   3  10
ATOM      9  N   UNL     1      48.169   1.482   6.728  0.00  0.00    +0.000 N 
ATOM     10  C   UNL     1      47.092   1.048   7.452  0.00  0.00    +0.000 C 
ATOM     11  O   UNL     1      46.930  -0.141   7.696  0.00  0.00    +0.000 OA
ATOM     12  H   UNL     1      48.854   0.781   6.479  0.00  0.00    +0.000 HD
ATOM     13  H   UNL     1      48.466   2.447   6.729  0.00  0.00    +0.000 HD
ENDBRANCH   3  10
ENDBRANCH   1   7
BRANCH   1  14
ATOM     14  C   UNL     1      43.307   3.680  11.591  0.00  0.00    +0.000 C 
BRANCH  14  15
ATOM     15  C   UNL     1      44.270   4.710  12.110  0.00  0.00    +0.000 A 
ATOM     16  C   UNL     1      44.305   5.985  11.563  0.00  0.00    +0.000 A 
ATOM     17  N   UNL     1      45.128   6.963  11.993  0.00  0.00    +0.000 NA
ATOM     18  C   UNL     1      45.978   6.646  12.999  0.00  0.00    +0.000 A 
ATOM     19  C   UNL     1      46.058   5.400  13.627  0.00  0.00    +0.000 A 
ATOM     20  C   UNL     1      45.164   4.427  13.151  0.00  0.00    +0.000 A 
BRANCH  19  21
ATOM     21  C   UNL     1      47.028   5.121  14.707  0.00  0.00    +0.000 A 
ATOM     22  C   UNL     1      46.941   3.974  15.513  0.00  0.00    +0.000 A 
ATOM     23  C   UNL     1      47.886   3.724  16.505  0.00  0.00    +0.000 A 
ATOM     24  C   UNL     1      48.916   4.630  16.675  0.00  0.00    +0.000 A 
ATOM     25  N   UNL     1      49.046   5.751  15.940  0.00  0.00    +0.000 NA
ATOM     26  C   UNL     1      48.105   5.967  14.986  0.00  0.00    +0.000 A 
ENDBRANCH  19  21
ENDBRANCH  14  15
ENDBRANCH   1  14
TORSDOF 5
ENDMDL
MODEL 7
REMARK VINA RESULT:    -6.581      2.464      4.620
REMARK INTER + INTRA:          -9.423
REMARK INTER:                  -8.802
REMARK INTRA:                  -0.621
REMARK UNBOUND:                -0.918
REMARK  Name = 
REMARK  5 active torsions:
REMARK  status: ('A' for Active; 'I' for Inactive)
REMARK    1  A    between atoms: C_2  and  C_4
REMARK    2  A    between atoms: C_8  and  N_9
REMARK    3  A    between atoms: N_9  and  C_10
REMARK    4  A    between atoms: C_10  and  C_11
REMARK    5  A    between atoms: C_15  and  C_16
REMARK                            x       y       z     vdW  Elec       q    Type
REMARK                         _______ _______ _______ _____ _____    ______ ____
ROOT
ATOM      1  N   UNL     1      48.157   7.445  15.093  0.00  0.00    +0.000 N 
ATOM      2  H   UNL     1      47.160   7.492  15.291  0.00  0.00    +0.000 HD
ENDROOT
BRANCH   1   7
ATOM      3  C   UNL     1      48.625   4.493  17.299  0.00  0.00    +0.000 A 
ATOM      4  C   UNL     1      49.986   4.575  17.606  0.00  0.00    +0.000 A 
ATOM      5  C   UNL     1      50.743   5.620  17.089  0.00  0.00    +0.000 A 
ATOM      6  C   UNL     1      50.149   6.568  16.250  0.00  0.00    +0.000 A 
ATOM      7  C   UNL     1      48.800   6.478  15.882  0.00  0.00    +0.000 A 
ATOM      8  C   UNL     1      48.039   5.444  16.448  0.00  0.00    +0.000 A 
BRANCH   3  10
ATOM      9  N   UNL     1      48.223   2.757  18.958  0.00  0.00    +0.000 N 
ATOM     10  C   UNL     1      47.777   3.398  17.835  0.00  0.00    +0.000 C 
ATOM     11  O   UNL     1      46.710   3.096  17.315  0.00  0.00    +0.000 OA
ATOM     12  H   UNL     1      47.592   2.085  19.372  0.00  0.00    +0.000 HD
ATOM     13  H   UNL     1      48.949   3.141  19.547  0.00  0.00    +0.000 HD
ENDBRANCH   3  10
ENDBRANCH   1   7
BRANCH   1  14
ATOM     14  C   UNL     1      48.441   7.462  13.662  0.00  0.00    +0.000 C 
BRANCH  14  15
ATOM     15  C   UNL     1      47.161   7.384  12.879  0.00  0.00    +0.000 A 
ATOM     16  C   UNL     1      46.204   8.384  12.982  0.00  0.00    +0.000 A 
ATOM     17  N   UNL     1      45.045   8.388  12.293  0.00  0.00    +0.000 NA
ATOM     18  C   UNL     1      44.814   7.328  11.482  0.00  0.00    +0.000 A 
ATOM     19  C   UNL     1      45.682   6.248  11.297  0.00  0.00    +0.000 A 
ATOM     20  C   UNL     1      46.882   6.307  12.025  0.00  0.00    +0.000 A 
BRANCH  19  21
ATOM     21  C   UNL     1      45.352   5.113  10.410  0.00  0.00    +0.000 A 
ATOM     22  C   UNL     1      44.688   3.967  10.875  0.00  0.00    +0.000 A 
ATOM     23  C   UNL     1      44.367   2.924  10.009  0.00  0.00    +0.000 A 
ATOM     24  C   UNL     1      44.714   3.047   8.676  0.00  0.00    +0.000 A 
ATOM     25  N   UNL     1      45.360   4.116   8.174  0.00  0.00    +0.000 NA
ATOM     26  C   UNL     1      45.662   5.111   9.046  0.00  0.00    +0.000 A 
ENDBRANCH  19  21
ENDBRANCH  14  15
ENDBRANCH   1  14
TORSDOF 5
ENDMDL
MODEL 8
REMARK VINA RESULT:    -6.440      2.922      3.620
REMARK INTER + INTRA:          -9.241
REMARK INTER:                  -8.668
REMARK INTRA:                  -0.573
REMARK UNBOUND:                -0.918
REMARK  Name = 
REMARK  5 active torsions:
REMARK  status: ('A' for Active; 'I' for Inactive)
REMARK    1  A    between atoms: C_2  and  C_4
REMARK    2  A    between atoms: C_8  and  N_9
REMARK    3  A    between atoms: N_9  and  C_10
REMARK    4  A    between atoms: C_10  and  C_11
REMARK    5  A    between atoms: C_15  and  C_16
REMARK                            x       y       z     vdW  Elec       q    Type
REMARK                         _______ _______ _______ _____ _____    ______ ____
ROOT
ATOM      1  N   UNL     1      46.469   6.581  12.063  0.00  0.00    +0.000 N 
ATOM      2  H   UNL     1      47.002   5.841  11.610  0.00  0.00    +0.000 HD
ENDROOT
BRANCH   1   7
ATOM      3  C   UNL     1      49.173   9.095  11.657  0.00  0.00    +0.000 A 
ATOM      4  C   UNL     1      48.479  10.296  11.827  0.00  0.00    +0.000 A 
ATOM      5  C   UNL     1      47.114  10.267  12.092  0.00  0.00    +0.000 A 
ATOM      6  C   UNL     1      46.440   9.044  12.162  0.00  0.00    +0.000 A 
ATOM      7  C   UNL     1      47.101   7.828  11.939  0.00  0.00    +0.000 A 
ATOM      8  C   UNL     1      48.486   7.873  11.720  0.00  0.00    +0.000 A 
BRANCH   3  10
ATOM      9  N   UNL     1      51.189  10.235  10.907  0.00  0.00    +0.000 N 
ATOM     10  C   UNL     1      50.632   9.079  11.381  0.00  0.00    +0.000 C 
ATOM     11  O   UNL     1      51.317   8.087  11.591  0.00  0.00    +0.000 OA
ATOM     12  H   UNL     1      52.196  10.246  10.820  0.00  0.00    +0.000 HD
ATOM     13  H   UNL     1      50.716  11.126  10.966  0.00  0.00    +0.000 HD
ENDBRANCH   3  10
ENDBRANCH   1   7
BRANCH   1  14
ATOM     14  C   UNL     1      45.043   6.502  11.765  0.00  0.00    +0.000 C 
BRANCH  14  15
ATOM     15  C   UNL     1      44.718   5.177  11.135  0.00  0.00    +0.000 A 
ATOM     16  C   UNL     1      43.697   4.384  11.637  0.00  0.00    +0.000 A 
ATOM     17  N   UNL     1      43.338   3.197  11.109  0.00  0.00    +0.000 NA
ATOM     18  C   UNL     1      44.053   2.765  10.042  0.00  0.00    +0.000 A 
ATOM     19  C   UNL     1      45.113   3.453   9.446  0.00  0.00    +0.000 A 
ATOM     20  C   UNL     1      45.429   4.693  10.027  0.00  0.00    +0.000 A 
BRANCH  19  21
ATOM     21  C   UNL     1      45.862   2.908   8.295  0.00  0.00    +0.000 A 
ATOM     22  C   UNL     1      46.287   1.571   8.244  0.00  0.00    +0.000 A 
ATOM     23  C   UNL     1      46.968   1.078   7.133  0.00  0.00    +0.000 A 
ATOM     24  C   UNL     1      47.212   1.937   6.078  0.00  0.00    +0.000 A 
ATOM     25  N   UNL     1      46.838   3.230   6.074  0.00  0.00    +0.000 NA
ATOM     26  C   UNL     1      46.181   3.679   7.173  0.00  0.00    +0.000 A 
ENDBRANCH  19  21
ENDBRANCH  14  15
ENDBRANCH   1  14
TORSDOF 5
ENDMDL
MODEL 9
REMARK VINA RESULT:    -6.420      3.207      5.878
REMARK INTER + INTRA:          -9.214
REMARK INTER:                  -8.436
REMARK INTRA:                  -0.777
REMARK UNBOUND:                -0.918
REMARK  Name = 
REMARK  5 active torsions:
REMARK  status: ('A' for Active; 'I' for Inactive)
REMARK    1  A    between atoms: C_2  and  C_4
REMARK    2  A    between atoms: C_8  and  N_9
REMARK    3  A    between atoms: N_9  and  C_10
REMARK    4  A    between atoms: C_10  and  C_11
REMARK    5  A    between atoms: C_15  and  C_16
REMARK                            x       y       z     vdW  Elec       q    Type
REMARK                         _______ _______ _______ _____ _____    ______ ____
ROOT
ATOM      1  N   UNL     1      48.104   6.567  16.327  0.00  0.00    +0.000 N 
ATOM      2  H   UNL     1      47.169   6.397  15.963  0.00  0.00    +0.000 HD
ENDROOT
BRANCH   1   7
ATOM      3  C   UNL     1      49.382   3.295  17.534  0.00  0.00    +0.000 A 
ATOM      4  C   UNL     1      49.211   3.410  18.917  0.00  0.00    +0.000 A 
ATOM      5  C   UNL     1      48.657   4.571  19.443  0.00  0.00    +0.000 A 
ATOM      6  C   UNL     1      48.297   5.624  18.596  0.00  0.00    +0.000 A 
ATOM      7  C   UNL     1      48.510   5.556  17.213  0.00  0.00    +0.000 A 
ATOM      8  C   UNL     1      49.027   4.361  16.692  0.00  0.00    +0.000 A 
BRANCH   3  10
ATOM      9  N   UNL     1      50.918   1.410  17.651  0.00  0.00    +0.000 N 
ATOM     10  C   UNL     1      49.963   2.070  16.928  0.00  0.00    +0.000 C 
ATOM     11  O   UNL     1      49.587   1.649  15.841  0.00  0.00    +0.000 OA
ATOM     12  H   UNL     1      51.232   0.524  17.277  0.00  0.00    +0.000 HD
ATOM     13  H   UNL     1      51.061   1.578  18.637  0.00  0.00    +0.000 HD
ENDBRANCH   3  10
ENDBRANCH   1   7
BRANCH   1  14
ATOM     14  C   UNL     1      49.039   6.985  15.289  0.00  0.00    +0.000 C 
BRANCH  14  15
ATOM     15  C   UNL     1      48.377   6.927  13.941  0.00  0.00    +0.000 A 
ATOM     16  C   UNL     1      48.830   7.716  12.894  0.00  0.00    +0.000 A 
ATOM     17  N   UNL     1      48.297   7.699  11.655  0.00  0.00    +0.000 NA
ATOM     18  C   UNL     1      47.240   6.874  11.458  0.00  0.00    +0.000 A 
ATOM     19  C   UNL     1      46.675   6.039  12.426  0.00  0.00    +0.000 A 
ATOM     20  C   UNL     1      47.283   6.085  13.691  0.00  0.00    +0.000 A 
BRANCH  19  21
ATOM     21  C   UNL     1      45.506   5.180  12.143  0.00  0.00    +0.000 A 
ATOM     22  C   UNL     1      44.749   5.309  10.968  0.00  0.00    +0.000 A 
ATOM     23  C   UNL     1      43.669   4.467  10.716  0.00  0.00    +0.000 A 
ATOM     24  C   UNL     1      43.361   3.495  11.651  0.00  0.00    +0.000 A 
ATOM     25  N   UNL     1      44.044   3.331  12.800  0.00  0.00    +0.000 NA
ATOM     26  C   UNL     1      45.087   4.171  13.016  0.00  0.00    +0.000 A 
ENDBRANCH  19  21
ENDBRANCH  14  15
ENDBRANCH   1  14
TORSDOF 5
ENDMDL
