MODEL 1
REMARK VINA RESULT:    -8.219      0.000      0.000
REMARK INTER + INTRA:         -12.568
REMARK INTER:                 -11.582
REMARK INTRA:                  -0.985
REMARK UNBOUND:                -0.985
REMARK  Name = 
REMARK  7 active torsions:
REMARK  status: ('A' for Active; 'I' for Inactive)
REMARK    1  A    between atoms: C_2  and  C_20
REMARK    2  A    between atoms: N_3  and  C_4
REMARK    3  A    between atoms: C_4  and  C_5
REMARK    4  A    between atoms: C_8  and  C_9
REMARK    5  A    between atoms: C_9  and  C_10
REMARK    6  A    between atoms: C_10  and  C_11
REMARK    7  A    between atoms: C_11  and  C_12
REMARK                            x       y       z     vdW  Elec       q    Type
REMARK                         _______ _______ _______ _____ _____    ______ ____
ROOT
ATOM      1  C   UNL     1      45.642   6.498  11.083  0.00  0.00    +0.000 C 
ENDROOT
BRANCH   1   2
ATOM      2  C   UNL     1      46.759   6.674  12.079  0.00  0.00    +0.000 A 
ATOM      3  C   UNL     1      46.745   6.004  13.310  0.00  0.00    +0.000 A 
ATOM      4  C   UNL     1      47.780   6.191  14.237  0.00  0.00    +0.000 A 
ATOM      5  C   UNL     1      48.851   7.043  13.947  0.00  0.00    +0.000 A 
ATOM      6  C   UNL     1      48.846   7.736  12.731  0.00  0.00    +0.000 A 
ATOM      7  C   UNL     1      47.811   7.556  11.806  0.00  0.00    +0.000 A 
BRANCH   5   8
ATOM      8  C   UNL     1      49.991   7.227  14.918  0.00  0.00    +0.000 C 
BRANCH   8   9
ATOM      9  C   UNL     1      49.558   7.402  16.378  0.00  0.00    +0.000 C 
BRANCH   9  10
ATOM     10  C   UNL     1      50.138   6.330  17.305  0.00  0.00    +0.000 C 
BRANCH  10  11
ATOM     11  C   UNL     1      49.243   5.123  17.351  0.00  0.00    +0.000 A 
ATOM     12  N   UNL     1      49.773   3.932  17.004  0.00  0.00    +0.000 NA
ATOM     13  C   UNL     1      48.948   2.875  17.046  0.00  0.00    +0.000 A 
ATOM     14  C   UNL     1      47.633   2.960  17.420  0.00  0.00    +0.000 A 
ATOM     15  C   UNL     1      47.178   4.214  17.734  0.00  0.00    +0.000 A 
ATOM     16  N   UNL     1      47.957   5.312  17.717  0.00  0.00    +0.000 NA
ENDBRANCH  10  11
ENDBRANCH   9  10
ENDBRANCH   8   9
ENDBRANCH   5   8
ENDBRANCH   1   2
BRANCH   1  19
ATOM     17  O   UNL     1      43.272   5.173  10.208  0.00  0.00    +0.000 OA
ATOM     18  C   UNL     1      44.354   4.599  10.172  0.00  0.00    +0.000 C 
ATOM     19  N   UNL     1      45.515   5.115  10.709  0.00  0.00    +0.000 N 
ATOM     20  H   UNL     1      46.351   4.574  10.502  0.00  0.00    +0.000 HD
BRANCH  18  21
ATOM     21  C   UNL     1      44.599   3.346   9.437  0.00  0.00    +0.000 A 
ATOM     22  N   UNL     1      44.009   2.192   9.829  0.00  0.00    +0.000 NA
ATOM     23  N   UNL     1      44.673   1.248   9.146  0.00  0.00    +0.000 N 
ATOM     24  C   UNL     1      45.696   1.727   8.379  0.00  0.00    +0.000 A 
ATOM     25  C   UNL     1      46.725   1.079   7.693  0.00  0.00    +0.000 A 
ATOM     26  C   UNL     1      47.589   1.880   6.940  0.00  0.00    +0.000 A 
ATOM     27  C   UNL     1      47.392   3.258   6.841  0.00  0.00    +0.000 A 
ATOM     28  C   UNL     1      46.385   3.893   7.579  0.00  0.00    +0.000 A 
ATOM     29  C   UNL     1      45.552   3.111   8.402  0.00  0.00    +0.000 A 
ATOM     30  H   UNL     1      44.406   0.280   9.281  0.00  0.00    +0.000 HD
ENDBRANCH  18  21
ENDBRANCH   1  19
TORSDOF 7
ENDMDL
MODEL 2
REMARK VINA RESULT:    -7.952      2.589      9.581
REMARK INTER + INTRA:         -12.192
REMARK INTER:                 -11.314
REMARK INTRA:                  -0.878
REMARK UNBOUND:                -0.985
REMARK  Name = 
REMARK  7 active torsions:
REMARK  status: ('A' for Active; 'I' for Inactive)
REMARK    1  A    between atoms: C_2  and  C_20
REMARK    2  A    between atoms: N_3  and  C_4
REMARK    3  A    between atoms: C_4  and  C_5
REMARK    4  A    between atoms: C_8  and  C_9
REMARK    5  A    between atoms: C_9  and  C_10
REMARK    6  A    between atoms: C_10  and  C_11
REMARK    7  A    between atoms: C_11  and  C_12
REMARK                            x       y       z     vdW  Elec       q    Type
REMARK                         _______ _______ _______ _____ _____    ______ ____
ROOT
ATOM      1  C   UNL     1      48.012   6.455  14.010  0.00  0.00    +0.000 C 
ENDROOT
BRANCH   1   2
ATOM      2  C   UNL     1      46.889   6.017  13.107  0.00  0.00    +0.000 A 
ATOM      3  C   UNL     1      46.710   6.590  11.840  0.00  0.00    +0.000 A 
ATOM      4  C   UNL     1      45.650   6.188  11.016  0.00  0.00    +0.000 A 
ATOM      5  C   UNL     1      44.755   5.199  11.438  0.00  0.00    +0.000 A 
ATOM      6  C   UNL     1      44.915   4.651  12.715  0.00  0.00    +0.000 A 
ATOM      7  C   UNL     1      45.969   5.056  13.543  0.00  0.00    +0.000 A 
BRANCH   5   8
ATOM      8  C   UNL     1      43.631   4.728  10.548  0.00  0.00    +0.000 C 
BRANCH   8   9
ATOM      9  C   UNL     1      44.089   4.120   9.218  0.00  0.00    +0.000 C 
BRANCH   9  10
ATOM     10  C   UNL     1      44.702   2.726   9.380  0.00  0.00    +0.000 C 
BRANCH  10  11
ATOM     11  C   UNL     1      45.694   2.448   8.285  0.00  0.00    +0.000 A 
ATOM     12  N   UNL     1      46.284   1.236   8.262  0.00  0.00    +0.000 NA
ATOM     13  C   UNL     1      47.171   1.020   7.279  0.00  0.00    +0.000 A 
ATOM     14  C   UNL     1      47.485   1.956   6.329  0.00  0.00    +0.000 A 
ATOM     15  C   UNL     1      46.853   3.165   6.447  0.00  0.00    +0.000 A 
ATOM     16  N   UNL     1      45.949   3.441   7.406  0.00  0.00    +0.000 NA
ENDBRANCH  10  11
ENDBRANCH   9  10
ENDBRANCH   8   9
ENDBRANCH   5   8
ENDBRANCH   1   2
BRANCH   1  19
ATOM     17  O   UNL     1      50.042   6.150  15.990  0.00  0.00    +0.000 OA
ATOM     18  C   UNL     1      48.874   5.893  16.254  0.00  0.00    +0.000 C 
ATOM     19  N   UNL     1      47.862   5.874  15.317  0.00  0.00    +0.000 N 
ATOM     20  H   UNL     1      46.930   5.755  15.707  0.00  0.00    +0.000 HD
BRANCH  18  21
ATOM     21  C   UNL     1      48.359   5.700  17.622  0.00  0.00    +0.000 A 
ATOM     22  N   UNL     1      47.412   4.767  17.875  0.00  0.00    +0.000 NA
ATOM     23  N   UNL     1      46.988   5.072  19.110  0.00  0.00    +0.000 N 
ATOM     24  C   UNL     1      47.570   6.186  19.642  0.00  0.00    +0.000 A 
ATOM     25  C   UNL     1      47.274   6.935  20.784  0.00  0.00    +0.000 A 
ATOM     26  C   UNL     1      48.123   8.005  21.079  0.00  0.00    +0.000 A 
ATOM     27  C   UNL     1      49.244   8.274  20.294  0.00  0.00    +0.000 A 
ATOM     28  C   UNL     1      49.493   7.543  19.125  0.00  0.00    +0.000 A 
ATOM     29  C   UNL     1      48.606   6.509  18.770  0.00  0.00    +0.000 A 
ATOM     30  H   UNL     1      46.258   4.502  19.522  0.00  0.00    +0.000 HD
ENDBRANCH  18  21
ENDBRANCH   1  19
TORSDOF 7
ENDMDL
MODEL 3
REMARK VINA RESULT:    -7.431      3.372      5.072
REMARK INTER + INTRA:         -11.457
REMARK INTER:                 -10.433
REMARK INTRA:                  -1.024
REMARK UNBOUND:                -0.985
REMARK  Name = 
REMARK  7 active torsions:
REMARK  status: ('A' for Active; 'I' for Inactive)
REMARK    1  A    between atoms: C_2  and  C_20
REMARK    2  A    between atoms: N_3  and  C_4
REMARK    3  A    between atoms: C_4  and  C_5
REMARK    4  A    between atoms: C_8  and  C_9
REMARK    5  A    between atoms: C_9  and  C_10
REMARK    6  A    between atoms: C_10  and  C_11
REMARK    7  A    between atoms: C_11  and  C_12
REMARK                            x       y       z     vdW  Elec       q    Type
REMARK                         _______ _______ _______ _____ _____    ______ ____
ROOT
ATOM      1  C   UNL     1      44.630   5.320  12.798  0.00  0.00    +0.000 C 
ENDROOT
BRANCH   1   2
ATOM      2  C   UNL     1      46.007   5.922  12.697  0.00  0.00    +0.000 A 
ATOM      3  C   UNL     1      46.363   6.740  11.616  0.00  0.00    +0.000 A 
ATOM      4  C   UNL     1      47.654   7.279  11.523  0.00  0.00    +0.000 A 
ATOM      5  C   UNL     1      48.608   7.018  12.511  0.00  0.00    +0.000 A 
ATOM      6  C   UNL     1      48.261   6.174  13.572  0.00  0.00    +0.000 A 
ATOM      7  C   UNL     1      46.975   5.630  13.665  0.00  0.00    +0.000 A 
BRANCH   5   8
ATOM      8  C   UNL     1      49.990   7.620  12.444  0.00  0.00    +0.000 C 
BRANCH   8   9
ATOM      9  C   UNL     1      50.590   7.674  11.035  0.00  0.00    +0.000 C 
BRANCH   9  10
ATOM     10  C   UNL     1      52.074   8.054  11.033  0.00  0.00    +0.000 C 
BRANCH  10  11
ATOM     11  C   UNL     1      52.856   7.153  10.120  0.00  0.00    +0.000 A 
ATOM     12  N   UNL     1      52.520   7.134   8.814  0.00  0.00    +0.000 NA
ATOM     13  C   UNL     1      53.230   6.313   8.025  0.00  0.00    +0.000 A 
ATOM     14  C   UNL     1      54.250   5.522   8.485  0.00  0.00    +0.000 A 
ATOM     15  C   UNL     1      54.503   5.591   9.829  0.00  0.00    +0.000 A 
ATOM     16  N   UNL     1      53.832   6.399  10.670  0.00  0.00    +0.000 NA
ENDBRANCH  10  11
ENDBRANCH   9  10
ENDBRANCH   8   9
ENDBRANCH   5   8
ENDBRANCH   1   2
BRANCH   1  19
ATOM     17  O   UNL     1      43.278   5.326  10.286  0.00  0.00    +0.000 OA
ATOM     18  C   UNL     1      43.937   4.353  10.635  0.00  0.00    +0.000 C 
ATOM     19  N   UNL     1      44.495   4.214  11.889  0.00  0.00    +0.000 N 
ATOM     20  H   UNL     1      45.105   3.406  11.990  0.00  0.00    +0.000 HD
BRANCH  18  21
ATOM     21  C   UNL     1      44.337   3.260   9.732  0.00  0.00    +0.000 A 
ATOM     22  N   UNL     1      43.957   1.986   9.983  0.00  0.00    +0.000 NA
ATOM     23  N   UNL     1      44.724   1.257   9.160  0.00  0.00    +0.000 N 
ATOM     24  C   UNL     1      45.619   1.989   8.434  0.00  0.00    +0.000 A 
ATOM     25  C   UNL     1      46.701   1.609   7.636  0.00  0.00    +0.000 A 
ATOM     26  C   UNL     1      47.389   2.629   6.972  0.00  0.00    +0.000 A 
ATOM     27  C   UNL     1      46.973   3.959   7.065  0.00  0.00    +0.000 A 
ATOM     28  C   UNL     1      45.918   4.322   7.911  0.00  0.00    +0.000 A 
ATOM     29  C   UNL     1      45.261   3.318   8.647  0.00  0.00    +0.000 A 
ATOM     30  H   UNL     1      44.620   0.249   9.172  0.00  0.00    +0.000 HD
ENDBRANCH  18  21
ENDBRANCH   1  19
TORSDOF 7
ENDMDL
MODEL 4
REMARK VINA RESULT:    -7.211      1.729      2.330
REMARK INTER + INTRA:         -11.148
REMARK INTER:                 -10.420
REMARK INTRA:                  -0.728
REMARK UNBOUND:                -0.985
REMARK  Name = 
REMARK  7 active torsions:
REMARK  status: ('A' for Active; 'I' for Inactive)
REMARK    1  A    between atoms: C_2  and  C_20
REMARK    2  A    between atoms: N_3  and  C_4
REMARK    3  A    between atoms: C_4  and  C_5
REMARK    4  A    between atoms: C_8  and  C_9
REMARK    5  A    between atoms: C_9  and  C_10
REMARK    6  A    between atoms: C_10  and  C_11
REMARK    7  A    between atoms: C_11  and  C_12
REMARK                            x       y       z     vdW  Elec       q    Type
REMARK                         _______ _______ _______ _____ _____    ______ ____
ROOT
ATOM      1  C   UNL     1      45.515   6.591  11.099  0.00  0.00    +0.000 C 
ENDROOT
BRANCH   1   2
ATOM      2  C   UNL     1      46.532   6.772  12.196  0.00  0.00    +0.000 A 
ATOM      3  C   UNL     1      47.191   7.996  12.380  0.00  0.00    +0.000 A 
ATOM      4  C   UNL     1      48.149   8.147  13.392  0.00  0.00    +0.000 A 
ATOM      5  C   UNL     1      48.458   7.082  14.244  0.00  0.00    +0.000 A 
ATOM      6  C   UNL     1      47.823   5.852  14.039  0.00  0.00    +0.000 A 
ATOM      7  C   UNL     1      46.871   5.696  13.025  0.00  0.00    +0.000 A 
BRANCH   5   8
ATOM      8  C   UNL     1      49.460   7.239  15.362  0.00  0.00    +0.000 C 
BRANCH   8   9
ATOM      9  C   UNL     1      48.837   7.505  16.737  0.00  0.00    +0.000 C 
BRANCH   9  10
ATOM     10  C   UNL     1      49.279   6.491  17.798  0.00  0.00    +0.000 C 
BRANCH  10  11
ATOM     11  C   UNL     1      48.620   6.777  19.118  0.00  0.00    +0.000 A 
ATOM     12  N   UNL     1      48.760   8.013  19.638  0.00  0.00    +0.000 NA
ATOM     13  C   UNL     1      48.168   8.236  20.821  0.00  0.00    +0.000 A 
ATOM     14  C   UNL     1      47.449   7.284  21.494  0.00  0.00    +0.000 A 
ATOM     15  C   UNL     1      47.381   6.052  20.900  0.00  0.00    +0.000 A 
ATOM     16  N   UNL     1      47.947   5.768  19.712  0.00  0.00    +0.000 NA
ENDBRANCH  10  11
ENDBRANCH   9  10
ENDBRANCH   8   9
ENDBRANCH   5   8
ENDBRANCH   1   2
BRANCH   1  19
ATOM     17  O   UNL     1      43.153   5.226  10.266  0.00  0.00    +0.000 OA
ATOM     18  C   UNL     1      44.242   4.666  10.223  0.00  0.00    +0.000 C 
ATOM     19  N   UNL     1      45.402   5.203  10.742  0.00  0.00    +0.000 N 
ATOM     20  H   UNL     1      46.243   4.670  10.531  0.00  0.00    +0.000 HD
BRANCH  18  21
ATOM     21  C   UNL     1      44.496   3.408   9.499  0.00  0.00    +0.000 A 
ATOM     22  N   UNL     1      43.928   2.251   9.911  0.00  0.00    +0.000 NA
ATOM     23  N   UNL     1      44.595   1.309   9.230  0.00  0.00    +0.000 N 
ATOM     24  C   UNL     1      45.602   1.793   8.445  0.00  0.00    +0.000 A 
ATOM     25  C   UNL     1      46.631   1.152   7.752  0.00  0.00    +0.000 A 
ATOM     26  C   UNL     1      47.474   1.957   6.980  0.00  0.00    +0.000 A 
ATOM     27  C   UNL     1      47.256   3.331   6.868  0.00  0.00    +0.000 A 
ATOM     28  C   UNL     1      46.250   3.960   7.612  0.00  0.00    +0.000 A 
ATOM     29  C   UNL     1      45.439   3.176   8.455  0.00  0.00    +0.000 A 
ATOM     30  H   UNL     1      44.344   0.338   9.380  0.00  0.00    +0.000 HD
ENDBRANCH  18  21
ENDBRANCH   1  19
TORSDOF 7
ENDMDL
MODEL 5
REMARK VINA RESULT:    -7.179      1.514      2.224
REMARK INTER + INTRA:         -11.103
REMARK INTER:                 -10.352
REMARK INTRA:                  -0.750
REMARK UNBOUND:                -0.985
REMARK  Name = 
REMARK  7 active torsions:
REMARK  status: ('A' for Active; 'I' for Inactive)
REMARK    1  A    between atoms: C_2  and  C_20
REMARK    2  A    between atoms: N_3  and  C_4
REMARK    3  A    between atoms: C_4  and  C_5
REMARK    4  A    between atoms: C_8  and  C_9
REMARK    5  A    between atoms: C_9  and  C_10
REMARK    6  A    between atoms: C_10  and  C_11
REMARK    7  A    between atoms: C_11  and  C_12
REMARK                            x       y       z     vdW  Elec       q    Type
REMARK                         _______ _______ _______ _____ _____    ______ ____
ROOT
ATOM      1  C   UNL     1      45.616   6.490  11.117  0.00  0.00    +0.000 C 
ENDROOT
BRANCH   1   2
ATOM      2  C   UNL     1      46.641   6.641  12.211  0.00  0.00    +0.000 A 
ATOM      3  C   UNL     1      47.616   7.647  12.158  0.00  0.00    +0.000 A 
ATOM      4  C   UNL     1      48.576   7.766  13.172  0.00  0.00    +0.000 A 
ATOM      5  C   UNL     1      48.574   6.889  14.261  0.00  0.00    +0.000 A 
ATOM      6  C   UNL     1      47.620   5.866  14.296  0.00  0.00    +0.000 A 
ATOM      7  C   UNL     1      46.664   5.740  13.282  0.00  0.00    +0.000 A 
BRANCH   5   8
ATOM      8  C   UNL     1      49.577   7.027  15.380  0.00  0.00    +0.000 C 
BRANCH   8   9
ATOM      9  C   UNL     1      49.343   6.078  16.561  0.00  0.00    +0.000 C 
BRANCH   9  10
ATOM     10  C   UNL     1      50.293   6.339  17.733  0.00  0.00    +0.000 C 
BRANCH  10  11
ATOM     11  C   UNL     1      51.399   5.321  17.762  0.00  0.00    +0.000 A 
ATOM     12  N   UNL     1      52.657   5.751  17.538  0.00  0.00    +0.000 NA
ATOM     13  C   UNL     1      53.622   4.819  17.561  0.00  0.00    +0.000 A 
ATOM     14  C   UNL     1      53.380   3.491  17.797  0.00  0.00    +0.000 A 
ATOM     15  C   UNL     1      52.069   3.145  17.990  0.00  0.00    +0.000 A 
ATOM     16  N   UNL     1      51.058   4.034  17.986  0.00  0.00    +0.000 NA
ENDBRANCH  10  11
ENDBRANCH   9  10
ENDBRANCH   8   9
ENDBRANCH   5   8
ENDBRANCH   1   2
BRANCH   1  19
ATOM     17  O   UNL     1      43.252   5.202  10.174  0.00  0.00    +0.000 OA
ATOM     18  C   UNL     1      44.324   4.609  10.175  0.00  0.00    +0.000 C 
ATOM     19  N   UNL     1      45.476   5.107  10.746  0.00  0.00    +0.000 N 
ATOM     20  H   UNL     1      46.309   4.551  10.568  0.00  0.00    +0.000 HD
BRANCH  18  21
ATOM     21  C   UNL     1      44.570   3.348   9.453  0.00  0.00    +0.000 A 
ATOM     22  N   UNL     1      43.985   2.198   9.861  0.00  0.00    +0.000 NA
ATOM     23  N   UNL     1      44.648   1.247   9.187  0.00  0.00    +0.000 N 
ATOM     24  C   UNL     1      45.668   1.720   8.411  0.00  0.00    +0.000 A 
ATOM     25  C   UNL     1      46.697   1.067   7.729  0.00  0.00    +0.000 A 
ATOM     26  C   UNL     1      47.556   1.861   6.964  0.00  0.00    +0.000 A 
ATOM     27  C   UNL     1      47.355   3.237   6.850  0.00  0.00    +0.000 A 
ATOM     28  C   UNL     1      46.348   3.878   7.583  0.00  0.00    +0.000 A 
ATOM     29  C   UNL     1      45.521   3.104   8.419  0.00  0.00    +0.000 A 
ATOM     30  H   UNL     1      44.385   0.280   9.335  0.00  0.00    +0.000 HD
ENDBRANCH  18  21
ENDBRANCH   1  19
TORSDOF 7
ENDMDL
MODEL 6
REMARK VINA RESULT:    -7.171      2.361      8.486
REMARK INTER + INTRA:         -11.090
REMARK INTER:                  -9.873
REMARK INTRA:                  -1.217
REMARK UNBOUND:                -0.985
REMARK  Name = 
REMARK  7 active torsions:
REMARK  status: ('A' for Active; 'I' for Inactive)
REMARK    1  A    between atoms: C_2  and  C_20
REMARK    2  A    between atoms: N_3  and  C_4
REMARK    3  A    between atoms: C_4  and  C_5
REMARK    4  A    between atoms: C_8  and  C_9
REMARK    5  A    between atoms: C_9  and  C_10
REMARK    6  A    between atoms: C_10  and  C_11
REMARK    7  A    between atoms: C_11  and  C_12
REMARK                            x       y       z     vdW  Elec       q    Type
REMARK                         _______ _______ _______ _____ _____    ______ ____
ROOT
ATOM      1  C   UNL     1      50.218   8.212  13.814  0.00  0.00    +0.000 C 
ENDROOT
BRANCH   1   2
ATOM      2  C   UNL     1      48.931   7.792  13.154  0.00  0.00    +0.000 A 
ATOM      3  C   UNL     1      48.145   8.711  12.445  0.00  0.00    +0.000 A 
ATOM      4  C   UNL     1      46.939   8.312  11.852  0.00  0.00    +0.000 A 
ATOM      5  C   UNL     1      46.502   6.987  11.948  0.00  0.00    +0.000 A 
ATOM      6  C   UNL     1      47.272   6.078  12.683  0.00  0.00    +0.000 A 
ATOM      7  C   UNL     1      48.473   6.475  13.283  0.00  0.00    +0.000 A 
BRANCH   5   8
ATOM      8  C   UNL     1      45.226   6.532  11.283  0.00  0.00    +0.000 C 
BRANCH   8   9
ATOM      9  C   UNL     1      45.086   5.011  11.154  0.00  0.00    +0.000 C 
BRANCH   9  10
ATOM     10  C   UNL     1      44.274   4.590   9.925  0.00  0.00    +0.000 C 
BRANCH  10  11
ATOM     11  C   UNL     1      45.098   3.726   9.012  0.00  0.00    +0.000 A 
ATOM     12  N   UNL     1      45.101   2.396   9.236  0.00  0.00    +0.000 NA
ATOM     13  C   UNL     1      45.853   1.651   8.411  0.00  0.00    +0.000 A 
ATOM     14  C   UNL     1      46.589   2.178   7.382  0.00  0.00    +0.000 A 
ATOM     15  C   UNL     1      46.541   3.540   7.246  0.00  0.00    +0.000 A 
ATOM     16  N   UNL     1      45.802   4.340   8.037  0.00  0.00    +0.000 NA
ENDBRANCH  10  11
ENDBRANCH   9  10
ENDBRANCH   8   9
ENDBRANCH   5   8
ENDBRANCH   1   2
BRANCH   1  19
ATOM     17  O   UNL     1      50.302   8.514  16.650  0.00  0.00    +0.000 OA
ATOM     18  C   UNL     1      50.515   7.423  16.134  0.00  0.00    +0.000 C 
ATOM     19  N   UNL     1      50.637   7.227  14.775  0.00  0.00    +0.000 N 
ATOM     20  H   UNL     1      50.701   6.251  14.494  0.00  0.00    +0.000 HD
BRANCH  18  21
ATOM     21  C   UNL     1      50.538   6.150  16.876  0.00  0.00    +0.000 A 
ATOM     22  N   UNL     1      51.703   5.656  17.358  0.00  0.00    +0.000 NA
ATOM     23  N   UNL     1      51.399   4.394  17.693  0.00  0.00    +0.000 N 
ATOM     24  C   UNL     1      50.116   4.031  17.399  0.00  0.00    +0.000 A 
ATOM     25  C   UNL     1      49.478   2.788  17.403  0.00  0.00    +0.000 A 
ATOM     26  C   UNL     1      48.113   2.775  17.102  0.00  0.00    +0.000 A 
ATOM     27  C   UNL     1      47.416   3.960  16.862  0.00  0.00    +0.000 A 
ATOM     28  C   UNL     1      48.086   5.189  16.812  0.00  0.00    +0.000 A 
ATOM     29  C   UNL     1      49.476   5.213  17.038  0.00  0.00    +0.000 A 
ATOM     30  H   UNL     1      52.131   3.810  18.081  0.00  0.00    +0.000 HD
ENDBRANCH  18  21
ENDBRANCH   1  19
TORSDOF 7
ENDMDL
MODEL 7
REMARK VINA RESULT:    -6.923      2.684      9.340
REMARK INTER + INTRA:         -10.742
REMARK INTER:                  -9.838
REMARK INTRA:                  -0.904
REMARK UNBOUND:                -0.985
REMARK  Name = 
REMARK  7 active torsions:
REMARK  status: ('A' for Active; 'I' for Inactive)
REMARK    1  A    between atoms: C_2  and  C_20
REMARK    2  A    between atoms: N_3  and  C_4
REMARK    3  A    between atoms: C_4  and  C_5
REMARK    4  A    between atoms: C_8  and  C_9
REMARK    5  A    between atoms: C_9  and  C_10
REMARK    6  A    between atoms: C_10  and  C_11
REMARK    7  A    between atoms: C_11  and  C_12
REMARK                            x       y       z     vdW  Elec       q    Type
REMARK                         _______ _______ _______ _____ _____    ______ ____
ROOT
ATOM      1  C   UNL     1      47.583   3.971  15.537  0.00  0.00    +0.000 C 
ENDROOT
BRANCH   1   2
ATOM      2  C   UNL     1      46.923   4.425  14.262  0.00  0.00    +0.000 A 
ATOM      3  C   UNL     1      46.166   3.540  13.481  0.00  0.00    +0.000 A 
ATOM      4  C   UNL     1      45.572   3.969  12.287  0.00  0.00    +0.000 A 
ATOM      5  C   UNL     1      45.715   5.292  11.855  0.00  0.00    +0.000 A 
ATOM      6  C   UNL     1      46.498   6.165  12.618  0.00  0.00    +0.000 A 
ATOM      7  C   UNL     1      47.097   5.738  13.808  0.00  0.00    +0.000 A 
BRANCH   5   8
ATOM      8  C   UNL     1      45.051   5.780  10.590  0.00  0.00    +0.000 C 
BRANCH   8   9
ATOM      9  C   UNL     1      45.689   5.256   9.298  0.00  0.00    +0.000 C 
BRANCH   9  10
ATOM     10  C   UNL     1      44.905   4.097   8.675  0.00  0.00    +0.000 C 
BRANCH  10  11
ATOM     11  C   UNL     1      45.811   3.214   7.864  0.00  0.00    +0.000 A 
ATOM     12  N   UNL     1      46.319   3.714   6.720  0.00  0.00    +0.000 NA
ATOM     13  C   UNL     1      47.117   2.900   6.012  0.00  0.00    +0.000 A 
ATOM     14  C   UNL     1      47.424   1.622   6.402  0.00  0.00    +0.000 A 
ATOM     15  C   UNL     1      46.843   1.193   7.565  0.00  0.00    +0.000 A 
ATOM     16  N   UNL     1      46.040   1.964   8.322  0.00  0.00    +0.000 NA
ENDBRANCH  10  11
ENDBRANCH   9  10
ENDBRANCH   8   9
ENDBRANCH   5   8
ENDBRANCH   1   2
BRANCH   1  19
ATOM     17  O   UNL     1      49.598   4.793  17.382  0.00  0.00    +0.000 OA
ATOM     18  C   UNL     1      48.535   5.400  17.311  0.00  0.00    +0.000 C 
ATOM     19  N   UNL     1      47.461   4.980  16.555  0.00  0.00    +0.000 N 
ATOM     20  H   UNL     1      46.693   5.646  16.509  0.00  0.00    +0.000 HD
BRANCH  18  21
ATOM     21  C   UNL     1      48.300   6.725  17.911  0.00  0.00    +0.000 A 
ATOM     22  N   UNL     1      47.388   6.880  18.899  0.00  0.00    +0.000 NA
ATOM     23  N   UNL     1      47.233   8.209  18.983  0.00  0.00    +0.000 N 
ATOM     24  C   UNL     1      47.952   8.916  18.062  0.00  0.00    +0.000 A 
ATOM     25  C   UNL     1      47.919  10.262  17.691  0.00  0.00    +0.000 A 
ATOM     26  C   UNL     1      48.850  10.680  16.736  0.00  0.00    +0.000 A 
ATOM     27  C   UNL     1      49.800   9.797  16.220  0.00  0.00    +0.000 A 
ATOM     28  C   UNL     1      49.781   8.440  16.567  0.00  0.00    +0.000 A 
ATOM     29  C   UNL     1      48.802   7.985  17.471  0.00  0.00    +0.000 A 
ATOM     30  H   UNL     1      46.580   8.575  19.667  0.00  0.00    +0.000 HD
ENDBRANCH  18  21
ENDBRANCH   1  19
TORSDOF 7
ENDMDL
MODEL 8
REMARK VINA RESULT:    -6.882      1.670      2.779
REMARK INTER + INTRA:         -10.683
REMARK INTER:                  -9.514
REMARK INTRA:                  -1.169
REMARK UNBOUND:                -0.985
REMARK  Name = 
REMARK  7 active torsions:
REMARK  status: ('A' for Active; 'I' for Inactive)
REMARK    1  A    between atoms: C_2  and  C_20
REMARK    2  A    between atoms: N_3  and  C_4
REMARK    3  A    between atoms: C_4  and  C_5
REMARK    4  A    between atoms: C_8  and  C_9
REMARK    5  A    between atoms: C_9  and  C_10
REMARK    6  A    between atoms: C_10  and  C_11
REMARK    7  A    between atoms: C_11  and  C_12
REMARK                            x       y       z     vdW  Elec       q    Type
REMARK                         _______ _______ _______ _____ _____    ______ ____
ROOT
ATOM      1  C   UNL     1      47.890   7.357  12.136  0.00  0.00    +0.000 C 
ENDROOT
BRANCH   1   2
ATOM      2  C   UNL     1      48.717   7.242  13.390  0.00  0.00    +0.000 A 
ATOM      3  C   UNL     1      50.001   7.801  13.466  0.00  0.00    +0.000 A 
ATOM      4  C   UNL     1      50.768   7.671  14.632  0.00  0.00    +0.000 A 
ATOM      5  C   UNL     1      50.265   6.990  15.744  0.00  0.00    +0.000 A 
ATOM      6  C   UNL     1      48.997   6.405  15.655  0.00  0.00    +0.000 A 
ATOM      7  C   UNL     1      48.230   6.527  14.490  0.00  0.00    +0.000 A 
BRANCH   5   8
ATOM      8  C   UNL     1      51.063   6.873  17.020  0.00  0.00    +0.000 C 
BRANCH   8   9
ATOM      9  C   UNL     1      51.896   5.591  17.130  0.00  0.00    +0.000 C 
BRANCH   9  10
ATOM     10  C   UNL     1      51.444   4.685  18.279  0.00  0.00    +0.000 C 
BRANCH  10  11
ATOM     11  C   UNL     1      50.123   4.041  17.964  0.00  0.00    +0.000 A 
ATOM     12  N   UNL     1      49.047   4.429  18.678  0.00  0.00    +0.000 NA
ATOM     13  C   UNL     1      47.883   3.830  18.381  0.00  0.00    +0.000 A 
ATOM     14  C   UNL     1      47.756   2.873  17.409  0.00  0.00    +0.000 A 
ATOM     15  C   UNL     1      48.907   2.527  16.753  0.00  0.00    +0.000 A 
ATOM     16  N   UNL     1      50.102   3.095  17.000  0.00  0.00    +0.000 NA
ENDBRANCH  10  11
ENDBRANCH   9  10
ENDBRANCH   8   9
ENDBRANCH   5   8
ENDBRANCH   1   2
BRANCH   1  19
ATOM     17  O   UNL     1      45.062   7.710  12.246  0.00  0.00    +0.000 OA
ATOM     18  C   UNL     1      45.542   6.606  12.021  0.00  0.00    +0.000 C 
ATOM     19  N   UNL     1      46.889   6.325  12.097  0.00  0.00    +0.000 N 
ATOM     20  H   UNL     1      47.144   5.394  11.774  0.00  0.00    +0.000 HD
BRANCH  18  21
ATOM     21  C   UNL     1      44.769   5.459  11.512  0.00  0.00    +0.000 A 
ATOM     22  N   UNL     1      43.882   4.819  12.309  0.00  0.00    +0.000 NA
ATOM     23  N   UNL     1      43.606   3.692  11.636  0.00  0.00    +0.000 N 
ATOM     24  C   UNL     1      44.312   3.545  10.476  0.00  0.00    +0.000 A 
ATOM     25  C   UNL     1      44.464   2.459   9.612  0.00  0.00    +0.000 A 
ATOM     26  C   UNL     1      45.225   2.667   8.458  0.00  0.00    +0.000 A 
ATOM     27  C   UNL     1      45.761   3.922   8.164  0.00  0.00    +0.000 A 
ATOM     28  C   UNL     1      45.639   4.984   9.071  0.00  0.00    +0.000 A 
ATOM     29  C   UNL     1      44.940   4.771  10.274  0.00  0.00    +0.000 A 
ATOM     30  H   UNL     1      42.954   3.034  12.047  0.00  0.00    +0.000 HD
ENDBRANCH  18  21
ENDBRANCH   1  19
TORSDOF 7
ENDMDL
MODEL 9
REMARK VINA RESULT:    -6.798      3.892      8.488
REMARK INTER + INTRA:         -10.565
REMARK INTER:                  -9.446
REMARK INTRA:                  -1.119
REMARK UNBOUND:                -0.985
REMARK  Name = 
REMARK  7 active torsions:
REMARK  status: ('A' for Active; 'I' for Inactive)
REMARK    1  A    between atoms: C_2  and  C_20
REMARK    2  A    between atoms: N_3  and  C_4
REMARK    3  A    between atoms: C_4  and  C_5
REMARK    4  A    between atoms: C_8  and  C_9
REMARK    5  A    between atoms: C_9  and  C_10
REMARK    6  A    between atoms: C_10  and  C_11
REMARK    7  A    between atoms: C_11  and  C_12
REMARK                            x       y       z     vdW  Elec       q    Type
REMARK                         _______ _______ _______ _____ _____    ______ ____
ROOT
ATOM      1  C   UNL     1      46.087   5.358  12.861  0.00  0.00    +0.000 C 
ENDROOT
BRANCH   1   2
ATOM      2  C   UNL     1      46.432   6.806  12.627  0.00  0.00    +0.000 A 
ATOM      3  C   UNL     1      45.489   7.821  12.845  0.00  0.00    +0.000 A 
ATOM      4  C   UNL     1      45.815   9.163  12.606  0.00  0.00    +0.000 A 
ATOM      5  C   UNL     1      47.090   9.516  12.153  0.00  0.00    +0.000 A 
ATOM      6  C   UNL     1      48.019   8.500  11.904  0.00  0.00    +0.000 A 
ATOM      7  C   UNL     1      47.695   7.158  12.137  0.00  0.00    +0.000 A 
BRANCH   5   8
ATOM      8  C   UNL     1      47.469  10.959  11.925  0.00  0.00    +0.000 C 
BRANCH   8   9
ATOM      9  C   UNL     1      46.778  11.613  10.723  0.00  0.00    +0.000 C 
BRANCH   9  10
ATOM     10  C   UNL     1      45.597  12.501  11.126  0.00  0.00    +0.000 C 
BRANCH  10  11
ATOM     11  C   UNL     1      44.291  11.846  10.771  0.00  0.00    +0.000 A 
ATOM     12  N   UNL     1      43.377  11.692  11.749  0.00  0.00    +0.000 NA
ATOM     13  C   UNL     1      42.225  11.096  11.405  0.00  0.00    +0.000 A 
ATOM     14  C   UNL     1      41.955  10.657  10.135  0.00  0.00    +0.000 A 
ATOM     15  C   UNL     1      42.952  10.837   9.213  0.00  0.00    +0.000 A 
ATOM     16  N   UNL     1      44.126  11.432   9.496  0.00  0.00    +0.000 NA
ENDBRANCH  10  11
ENDBRANCH   9  10
ENDBRANCH   8   9
ENDBRANCH   5   8
ENDBRANCH   1   2
BRANCH   1  19
ATOM     17  O   UNL     1      47.367   3.067  13.979  0.00  0.00    +0.000 OA
ATOM     18  C   UNL     1      46.961   3.968  14.704  0.00  0.00    +0.000 C 
ATOM     19  N   UNL     1      46.206   5.032  14.257  0.00  0.00    +0.000 N 
ATOM     20  H   UNL     1      46.041   5.753  14.955  0.00  0.00    +0.000 HD
BRANCH  18  21
ATOM     21  C   UNL     1      47.329   4.115  16.124  0.00  0.00    +0.000 A 
ATOM     22  N   UNL     1      46.823   3.274  17.056  0.00  0.00    +0.000 NA
ATOM     23  N   UNL     1      47.122   3.871  18.218  0.00  0.00    +0.000 N 
ATOM     24  C   UNL     1      47.743   5.079  18.083  0.00  0.00    +0.000 A 
ATOM     25  C   UNL     1      48.035   6.084  19.009  0.00  0.00    +0.000 A 
ATOM     26  C   UNL     1      48.748   7.191  18.542  0.00  0.00    +0.000 A 
ATOM     27  C   UNL     1      49.191   7.258  17.220  0.00  0.00    +0.000 A 
ATOM     28  C   UNL     1      48.843   6.264  16.296  0.00  0.00    +0.000 A 
ATOM     29  C   UNL     1      48.060   5.178  16.731  0.00  0.00    +0.000 A 
ATOM     30  H   UNL     1      46.833   3.420  19.079  0.00  0.00    +0.000 HD
ENDBRANCH  18  21
ENDBRANCH   1  19
TORSDOF 7
ENDMDL
