MODEL 1
REMARK VINA RESULT:    -7.483      0.000      0.000
REMARK INTER + INTRA:         -10.204
REMARK INTER:                  -9.232
REMARK INTRA:                  -0.971
REMARK UNBOUND:                -0.971
REMARK  Name = 
REMARK  4 active torsions:
REMARK  status: ('A' for Active; 'I' for Inactive)
REMARK    1  A    between atoms: C_5  and  O_6
REMARK    2  A    between atoms: O_6  and  C_7
REMARK    3  A    between atoms: C_7  and  C_8
REMARK    4  A    between atoms: C_12  and  C_13
REMARK                            x       y       z     vdW  Elec       q    Type
REMARK                         _______ _______ _______ _____ _____    ______ ____
ROOT
ATOM      1  C   UNL     1      44.986   4.751  12.097  0.00  0.00    +0.000 A 
ATOM      2  C   UNL     1      45.297   3.560  12.764  0.00  0.00    +0.000 A 
ATOM      3  C   UNL     1      46.486   3.419  13.482  0.00  0.00    +0.000 A 
ATOM      4  C   UNL     1      47.406   4.468  13.531  0.00  0.00    +0.000 A 
ATOM      5  C   UNL     1      47.143   5.688  12.893  0.00  0.00    +0.000 A 
ATOM      6  C   UNL     1      45.908   5.813  12.224  0.00  0.00    +0.000 A 
ENDROOT
BRANCH   5   7
ATOM      7  C   UNL     1      48.144   6.775  12.840  0.00  0.00    +0.000 A 
ATOM      8  C   UNL     1      48.385   7.524  11.680  0.00  0.00    +0.000 A 
ATOM      9  C   UNL     1      49.385   8.498  11.657  0.00  0.00    +0.000 A 
ATOM     10  C   UNL     1      50.123   8.711  12.807  0.00  0.00    +0.000 A 
ATOM     11  N   UNL     1      49.927   8.032  13.951  0.00  0.00    +0.000 NA
ATOM     12  C   UNL     1      48.953   7.086  13.936  0.00  0.00    +0.000 A 
ENDBRANCH   5   7
BRANCH   1  13
ATOM     13  C   UNL     1      43.753   4.868  11.206  0.00  0.00    +0.000 C 
ATOM     14  C   UNL     1      42.445   5.313  11.866  0.00  0.00    +0.000 C 
ATOM     15  C   UNL     1      43.162   6.243  10.950  0.00  0.00    +0.000 C 
BRANCH  13  16
ATOM     16  O   UNL     1      43.523   3.810  10.244  0.00  0.00    +0.000 OA
BRANCH  16  21
ATOM     17 CL   UNL     1      47.813   2.310   6.583  0.00  0.00    +0.000 Cl
ATOM     18  C   UNL     1      46.540   2.734   7.651  0.00  0.00    +0.000 A 
ATOM     19  C   UNL     1      45.941   1.773   8.457  0.00  0.00    +0.000 A 
ATOM     20  C   UNL     1      44.919   2.159   9.323  0.00  0.00    +0.000 A 
ATOM     21  C   UNL     1      44.543   3.498   9.362  0.00  0.00    +0.000 A 
ATOM     22  N   UNL     1      45.104   4.450   8.585  0.00  0.00    +0.000 NA
ATOM     23  C   UNL     1      46.086   4.042   7.741  0.00  0.00    +0.000 A 
ENDBRANCH  16  21
ENDBRANCH  13  16
ENDBRANCH   1  13
TORSDOF 4
ENDMDL
MODEL 2
REMARK VINA RESULT:    -7.298      1.828      3.033
REMARK INTER + INTRA:          -9.976
REMARK INTER:                  -9.488
REMARK INTRA:                  -0.489
REMARK UNBOUND:                -0.971
REMARK  Name = 
REMARK  4 active torsions:
REMARK  status: ('A' for Active; 'I' for Inactive)
REMARK    1  A    between atoms: C_5  and  O_6
REMARK    2  A    between atoms: O_6  and  C_7
REMARK    3  A    between atoms: C_7  and  C_8
REMARK    4  A    between atoms: C_12  and  C_13
REMARK                            x       y       z     vdW  Elec       q    Type
REMARK                         _______ _______ _______ _____ _____    ______ ____
ROOT
ATOM      1  C   UNL     1      45.385   5.333  12.094  0.00  0.00    +0.000 A 
ATOM      2  C   UNL     1      46.099   6.341  11.434  0.00  0.00    +0.000 A 
ATOM      3  C   UNL     1      47.297   6.839  11.950  0.00  0.00    +0.000 A 
ATOM      4  C   UNL     1      47.799   6.349  13.156  0.00  0.00    +0.000 A 
ATOM      5  C   UNL     1      47.135   5.332  13.855  0.00  0.00    +0.000 A 
ATOM      6  C   UNL     1      45.957   4.816  13.277  0.00  0.00    +0.000 A 
ENDROOT
BRANCH   5   7
ATOM      7  C   UNL     1      47.588   4.872  15.185  0.00  0.00    +0.000 A 
ATOM      8  C   UNL     1      47.238   3.620  15.711  0.00  0.00    +0.000 A 
ATOM      9  C   UNL     1      47.635   3.253  16.998  0.00  0.00    +0.000 A 
ATOM     10  C   UNL     1      48.388   4.148  17.735  0.00  0.00    +0.000 A 
ATOM     11  N   UNL     1      48.765   5.356  17.277  0.00  0.00    +0.000 NA
ATOM     12  C   UNL     1      48.354   5.685  16.026  0.00  0.00    +0.000 A 
ENDBRANCH   5   7
BRANCH   1  13
ATOM     13  C   UNL     1      44.013   4.876  11.606  0.00  0.00    +0.000 C 
ATOM     14  C   UNL     1      42.822   5.097  12.543  0.00  0.00    +0.000 C 
ATOM     15  C   UNL     1      42.954   5.923  11.311  0.00  0.00    +0.000 C 
BRANCH  13  16
ATOM     16  O   UNL     1      43.934   3.586  10.951  0.00  0.00    +0.000 OA
BRANCH  16  21
ATOM     17 CL   UNL     1      47.085   2.588   6.141  0.00  0.00    +0.000 Cl
ATOM     18  C   UNL     1      46.146   2.865   7.549  0.00  0.00    +0.000 A 
ATOM     19  C   UNL     1      45.842   1.821   8.414  0.00  0.00    +0.000 A 
ATOM     20  C   UNL     1      45.089   2.087   9.557  0.00  0.00    +0.000 A 
ATOM     21  C   UNL     1      44.678   3.394   9.799  0.00  0.00    +0.000 A 
ATOM     22  N   UNL     1      44.955   4.426   8.971  0.00  0.00    +0.000 NA
ATOM     23  C   UNL     1      45.677   4.133   7.860  0.00  0.00    +0.000 A 
ENDBRANCH  16  21
ENDBRANCH  13  16
ENDBRANCH   1  13
TORSDOF 4
ENDMDL
MODEL 3
REMARK VINA RESULT:    -6.732      3.147      6.668
REMARK INTER + INTRA:          -9.278
REMARK INTER:                  -8.582
REMARK INTRA:                  -0.696
REMARK UNBOUND:                -0.971
REMARK  Name = 
REMARK  4 active torsions:
REMARK  status: ('A' for Active; 'I' for Inactive)
REMARK    1  A    between atoms: C_5  and  O_6
REMARK    2  A    between atoms: O_6  and  C_7
REMARK    3  A    between atoms: C_7  and  C_8
REMARK    4  A    between atoms: C_12  and  C_13
REMARK                            x       y       z     vdW  Elec       q    Type
REMARK                         _______ _______ _______ _____ _____    ______ ____
ROOT
ATOM      1  C   UNL     1      45.413   6.308  11.760  0.00  0.00    +0.000 A 
ATOM      2  C   UNL     1      44.028   6.436  11.917  0.00  0.00    +0.000 A 
ATOM      3  C   UNL     1      43.138   5.648  11.185  0.00  0.00    +0.000 A 
ATOM      4  C   UNL     1      43.619   4.722  10.257  0.00  0.00    +0.000 A 
ATOM      5  C   UNL     1      44.996   4.542  10.066  0.00  0.00    +0.000 A 
ATOM      6  C   UNL     1      45.865   5.316  10.862  0.00  0.00    +0.000 A 
ENDROOT
BRANCH   5   7
ATOM      7  C   UNL     1      45.529   3.647   9.016  0.00  0.00    +0.000 A 
ATOM      8  C   UNL     1      45.490   2.250   9.123  0.00  0.00    +0.000 A 
ATOM      9  C   UNL     1      46.063   1.444   8.138  0.00  0.00    +0.000 A 
ATOM     10  C   UNL     1      46.660   2.058   7.051  0.00  0.00    +0.000 A 
ATOM     11  N   UNL     1      46.715   3.392   6.890  0.00  0.00    +0.000 NA
ATOM     12  C   UNL     1      46.156   4.146   7.871  0.00  0.00    +0.000 A 
ENDBRANCH   5   7
BRANCH   1  13
ATOM     13  C   UNL     1      46.387   7.253  12.459  0.00  0.00    +0.000 C 
ATOM     14  C   UNL     1      46.525   8.668  11.892  0.00  0.00    +0.000 C 
ATOM     15  C   UNL     1      45.835   8.461  13.195  0.00  0.00    +0.000 C 
BRANCH  13  16
ATOM     16  O   UNL     1      47.674   6.714  12.849  0.00  0.00    +0.000 OA
BRANCH  16  21
ATOM     17 CL   UNL     1      47.933   3.860  17.932  0.00  0.00    +0.000 Cl
ATOM     18  C   UNL     1      47.860   4.680  16.428  0.00  0.00    +0.000 A 
ATOM     19  C   UNL     1      47.025   4.226  15.414  0.00  0.00    +0.000 A 
ATOM     20  C   UNL     1      46.982   4.928  14.210  0.00  0.00    +0.000 A 
ATOM     21  C   UNL     1      47.767   6.068  14.069  0.00  0.00    +0.000 A 
ATOM     22  N   UNL     1      48.591   6.526  15.038  0.00  0.00    +0.000 NA
ATOM     23  C   UNL     1      48.623   5.814  16.192  0.00  0.00    +0.000 A 
ENDBRANCH  16  21
ENDBRANCH  13  16
ENDBRANCH   1  13
TORSDOF 4
ENDMDL
MODEL 4
REMARK VINA RESULT:    -6.721      1.089      2.090
REMARK INTER + INTRA:          -9.264
REMARK INTER:                  -9.438
REMARK INTRA:                   0.174
REMARK UNBOUND:                -0.971
REMARK  Name = 
REMARK  4 active torsions:
REMARK  status: ('A' for Active; 'I' for Inactive)
REMARK    1  A    between atoms: C_5  and  O_6
REMARK    2  A    between atoms: O_6  and  C_7
REMARK    3  A    between atoms: C_7  and  C_8
REMARK    4  A    between atoms: C_12  and  C_13
REMARK                            x       y       z     vdW  Elec       q    Type
REMARK                         _______ _______ _______ _____ _____    ______ ____
ROOT
ATOM      1  C   UNL     1      44.702   5.579  11.352  0.00  0.00    +0.000 A 
ATOM      2  C   UNL     1      43.815   6.650  11.186  0.00  0.00    +0.000 A 
ATOM      3  C   UNL     1      44.229   7.971  11.375  0.00  0.00    +0.000 A 
ATOM      4  C   UNL     1      45.543   8.247  11.757  0.00  0.00    +0.000 A 
ATOM      5  C   UNL     1      46.477   7.216  11.926  0.00  0.00    +0.000 A 
ATOM      6  C   UNL     1      46.038   5.900  11.674  0.00  0.00    +0.000 A 
ENDROOT
BRANCH   5   7
ATOM      7  C   UNL     1      47.842   7.473  12.432  0.00  0.00    +0.000 A 
ATOM      8  C   UNL     1      48.763   8.280  11.749  0.00  0.00    +0.000 A 
ATOM      9  C   UNL     1      50.062   8.443  12.231  0.00  0.00    +0.000 A 
ATOM     10  C   UNL     1      50.415   7.799  13.402  0.00  0.00    +0.000 A 
ATOM     11  N   UNL     1      49.571   7.024  14.107  0.00  0.00    +0.000 NA
ATOM     12  C   UNL     1      48.318   6.879  13.605  0.00  0.00    +0.000 A 
ENDBRANCH   5   7
BRANCH   1  13
ATOM     13  C   UNL     1      44.227   4.131  11.275  0.00  0.00    +0.000 C 
ATOM     14  C   UNL     1      45.014   3.087  12.072  0.00  0.00    +0.000 C 
ATOM     15  C   UNL     1      43.650   3.481  12.520  0.00  0.00    +0.000 C 
BRANCH  13  16
ATOM     16  O   UNL     1      43.849   3.622   9.972  0.00  0.00    +0.000 OA
BRANCH  16  21
ATOM     17 CL   UNL     1      48.088   2.222   6.214  0.00  0.00    +0.000 Cl
ATOM     18  C   UNL     1      46.830   2.618   7.310  0.00  0.00    +0.000 A 
ATOM     19  C   UNL     1      46.244   1.635   8.099  0.00  0.00    +0.000 A 
ATOM     20  C   UNL     1      45.234   1.997   8.989  0.00  0.00    +0.000 A 
ATOM     21  C   UNL     1      44.856   3.334   9.067  0.00  0.00    +0.000 A 
ATOM     22  N   UNL     1      45.407   4.307   8.307  0.00  0.00    +0.000 NA
ATOM     23  C   UNL     1      46.376   3.922   7.440  0.00  0.00    +0.000 A 
ENDBRANCH  16  21
ENDBRANCH  13  16
ENDBRANCH   1  13
TORSDOF 4
ENDMDL
MODEL 5
REMARK VINA RESULT:    -6.715      2.742      3.749
REMARK INTER + INTRA:          -9.257
REMARK INTER:                  -9.491
REMARK INTRA:                   0.234
REMARK UNBOUND:                -0.971
REMARK  Name = 
REMARK  4 active torsions:
REMARK  status: ('A' for Active; 'I' for Inactive)
REMARK    1  A    between atoms: C_5  and  O_6
REMARK    2  A    between atoms: O_6  and  C_7
REMARK    3  A    between atoms: C_7  and  C_8
REMARK    4  A    between atoms: C_12  and  C_13
REMARK                            x       y       z     vdW  Elec       q    Type
REMARK                         _______ _______ _______ _____ _____    ______ ____
ROOT
ATOM      1  C   UNL     1      44.934   5.715  11.629  0.00  0.00    +0.000 A 
ATOM      2  C   UNL     1      46.319   5.663  11.826  0.00  0.00    +0.000 A 
ATOM      3  C   UNL     1      47.082   6.828  11.931  0.00  0.00    +0.000 A 
ATOM      4  C   UNL     1      46.473   8.079  11.818  0.00  0.00    +0.000 A 
ATOM      5  C   UNL     1      45.088   8.193  11.632  0.00  0.00    +0.000 A 
ATOM      6  C   UNL     1      44.343   6.997  11.586  0.00  0.00    +0.000 A 
ENDROOT
BRANCH   5   7
ATOM      7  C   UNL     1      44.435   9.499  11.403  0.00  0.00    +0.000 A 
ATOM      8  C   UNL     1      43.261   9.636  10.648  0.00  0.00    +0.000 A 
ATOM      9  C   UNL     1      42.714  10.897  10.404  0.00  0.00    +0.000 A 
ATOM     10  C   UNL     1      43.352  12.004  10.933  0.00  0.00    +0.000 A 
ATOM     11  N   UNL     1      44.472  11.932  11.676  0.00  0.00    +0.000 NA
ATOM     12  C   UNL     1      44.982  10.692  11.886  0.00  0.00    +0.000 A 
ENDBRANCH   5   7
BRANCH   1  13
ATOM     13  C   UNL     1      44.114   4.451  11.384  0.00  0.00    +0.000 C 
ATOM     14  C   UNL     1      44.518   3.190  12.152  0.00  0.00    +0.000 C 
ATOM     15  C   UNL     1      43.261   3.901  12.513  0.00  0.00    +0.000 C 
BRANCH  13  16
ATOM     16  O   UNL     1      43.759   4.142  10.014  0.00  0.00    +0.000 OA
BRANCH  16  21
ATOM     17 CL   UNL     1      47.913   1.978   6.534  0.00  0.00    +0.000 Cl
ATOM     18  C   UNL     1      46.678   2.599   7.549  0.00  0.00    +0.000 A 
ATOM     19  C   UNL     1      45.928   1.749   8.352  0.00  0.00    +0.000 A 
ATOM     20  C   UNL     1      44.943   2.293   9.175  0.00  0.00    +0.000 A 
ATOM     21  C   UNL     1      44.753   3.671   9.174  0.00  0.00    +0.000 A 
ATOM     22  N   UNL     1      45.465   4.518   8.397  0.00  0.00    +0.000 NA
ATOM     23  C   UNL     1      46.406   3.959   7.596  0.00  0.00    +0.000 A 
ENDBRANCH  16  21
ENDBRANCH  13  16
ENDBRANCH   1  13
TORSDOF 4
ENDMDL
MODEL 6
REMARK VINA RESULT:    -6.665      3.020      6.385
REMARK INTER + INTRA:          -9.195
REMARK INTER:                  -8.525
REMARK INTRA:                  -0.669
REMARK UNBOUND:                -0.971
REMARK  Name = 
REMARK  4 active torsions:
REMARK  status: ('A' for Active; 'I' for Inactive)
REMARK    1  A    between atoms: C_5  and  O_6
REMARK    2  A    between atoms: O_6  and  C_7
REMARK    3  A    between atoms: C_7  and  C_8
REMARK    4  A    between atoms: C_12  and  C_13
REMARK                            x       y       z     vdW  Elec       q    Type
REMARK                         _______ _______ _______ _____ _____    ______ ____
ROOT
ATOM      1  C   UNL     1      44.451   4.201  10.750  0.00  0.00    +0.000 A 
ATOM      2  C   UNL     1      43.652   3.122  11.147  0.00  0.00    +0.000 A 
ATOM      3  C   UNL     1      43.720   1.889  10.494  0.00  0.00    +0.000 A 
ATOM      4  C   UNL     1      44.580   1.716   9.409  0.00  0.00    +0.000 A 
ATOM      5  C   UNL     1      45.413   2.757   8.974  0.00  0.00    +0.000 A 
ATOM      6  C   UNL     1      45.356   3.969   9.691  0.00  0.00    +0.000 A 
ENDROOT
BRANCH   5   7
ATOM      7  C   UNL     1      46.253   2.633   7.764  0.00  0.00    +0.000 A 
ATOM      8  C   UNL     1      46.239   3.584   6.734  0.00  0.00    +0.000 A 
ATOM      9  C   UNL     1      47.001   3.394   5.580  0.00  0.00    +0.000 A 
ATOM     10  C   UNL     1      47.776   2.252   5.483  0.00  0.00    +0.000 A 
ATOM     11  N   UNL     1      47.839   1.314   6.446  0.00  0.00    +0.000 NA
ATOM     12  C   UNL     1      47.078   1.525   7.550  0.00  0.00    +0.000 A 
ENDBRANCH   5   7
BRANCH   1  13
ATOM     13  C   UNL     1      44.289   5.585  11.372  0.00  0.00    +0.000 C 
ATOM     14  C   UNL     1      42.888   6.202  11.364  0.00  0.00    +0.000 C 
ATOM     15  C   UNL     1      43.476   5.726  12.647  0.00  0.00    +0.000 C 
BRANCH  13  16
ATOM     16  O   UNL     1      45.301   6.575  11.066  0.00  0.00    +0.000 OA
BRANCH  16  21
ATOM     17 CL   UNL     1      49.117   8.085  15.216  0.00  0.00    +0.000 Cl
ATOM     18  C   UNL     1      47.979   7.649  14.008  0.00  0.00    +0.000 A 
ATOM     19  C   UNL     1      47.069   8.581  13.524  0.00  0.00    +0.000 A 
ATOM     20  C   UNL     1      46.170   8.194  12.532  0.00  0.00    +0.000 A 
ATOM     21  C   UNL     1      46.223   6.890  12.050  0.00  0.00    +0.000 A 
ATOM     22  N   UNL     1      47.094   5.964  12.509  0.00  0.00    +0.000 NA
ATOM     23  C   UNL     1      47.946   6.366  13.485  0.00  0.00    +0.000 A 
ENDBRANCH  16  21
ENDBRANCH  13  16
ENDBRANCH   1  13
TORSDOF 4
ENDMDL
MODEL 7
REMARK VINA RESULT:    -6.573      3.723      6.739
REMARK INTER + INTRA:          -9.082
REMARK INTER:                  -8.198
REMARK INTRA:                  -0.884
REMARK UNBOUND:                -0.971
REMARK  Name = 
REMARK  4 active torsions:
REMARK  status: ('A' for Active; 'I' for Inactive)
REMARK    1  A    between atoms: C_5  and  O_6
REMARK    2  A    between atoms: O_6  and  C_7
REMARK    3  A    between atoms: C_7  and  C_8
REMARK    4  A    between atoms: C_12  and  C_13
REMARK                            x       y       z     vdW  Elec       q    Type
REMARK                         _______ _______ _______ _____ _____    ______ ____
ROOT
ATOM      1  C   UNL     1      45.082   6.391  11.901  0.00  0.00    +0.000 A 
ATOM      2  C   UNL     1      43.779   6.131  12.342  0.00  0.00    +0.000 A 
ATOM      3  C   UNL     1      43.016   5.101  11.788  0.00  0.00    +0.000 A 
ATOM      4  C   UNL     1      43.538   4.316  10.758  0.00  0.00    +0.000 A 
ATOM      5  C   UNL     1      44.841   4.522  10.284  0.00  0.00    +0.000 A 
ATOM      6  C   UNL     1      45.601   5.536  10.904  0.00  0.00    +0.000 A 
ENDROOT
BRANCH   5   7
ATOM      7  C   UNL     1      45.378   3.778   9.125  0.00  0.00    +0.000 A 
ATOM      8  C   UNL     1      45.455   2.378   9.096  0.00  0.00    +0.000 A 
ATOM      9  C   UNL     1      46.029   1.720   8.007  0.00  0.00    +0.000 A 
ATOM     10  C   UNL     1      46.510   2.480   6.957  0.00  0.00    +0.000 A 
ATOM     11  N   UNL     1      46.451   3.824   6.925  0.00  0.00    +0.000 NA
ATOM     12  C   UNL     1      45.896   4.432   8.003  0.00  0.00    +0.000 A 
ENDBRANCH   5   7
BRANCH   1  13
ATOM     13  C   UNL     1      45.872   7.593  12.409  0.00  0.00    +0.000 C 
ATOM     14  C   UNL     1      47.005   7.324  13.403  0.00  0.00    +0.000 C 
ATOM     15  C   UNL     1      47.330   7.735  12.009  0.00  0.00    +0.000 C 
BRANCH  13  16
ATOM     16  O   UNL     1      45.122   8.777  12.775  0.00  0.00    +0.000 OA
BRANCH  16  21
ATOM     17 CL   UNL     1      44.207  12.794   8.641  0.00  0.00    +0.000 Cl
ATOM     18  C   UNL     1      44.455  11.613   9.860  0.00  0.00    +0.000 A 
ATOM     19  C   UNL     1      43.686  10.456   9.892  0.00  0.00    +0.000 A 
ATOM     20  C   UNL     1      43.927   9.512  10.890  0.00  0.00    +0.000 A 
ATOM     21  C   UNL     1      44.938   9.756  11.813  0.00  0.00    +0.000 A 
ATOM     22  N   UNL     1      45.695  10.876  11.808  0.00  0.00    +0.000 NA
ATOM     23  C   UNL     1      45.428  11.782  10.834  0.00  0.00    +0.000 A 
ENDBRANCH  16  21
ENDBRANCH  13  16
ENDBRANCH   1  13
TORSDOF 4
ENDMDL
MODEL 8
REMARK VINA RESULT:    -6.219      3.673      7.334
REMARK INTER + INTRA:          -8.645
REMARK INTER:                  -7.819
REMARK INTRA:                  -0.825
REMARK UNBOUND:                -0.971
REMARK  Name = 
REMARK  4 active torsions:
REMARK  status: ('A' for Active; 'I' for Inactive)
REMARK    1  A    between atoms: C_5  and  O_6
REMARK    2  A    between atoms: O_6  and  C_7
REMARK    3  A    between atoms: C_7  and  C_8
REMARK    4  A    between atoms: C_12  and  C_13
REMARK                            x       y       z     vdW  Elec       q    Type
REMARK                         _______ _______ _______ _____ _____    ______ ____
ROOT
ATOM      1  C   UNL     1      47.099   7.379  12.513  0.00  0.00    +0.000 A 
ATOM      2  C   UNL     1      46.105   8.347  12.697  0.00  0.00    +0.000 A 
ATOM      3  C   UNL     1      44.811   8.162  12.204  0.00  0.00    +0.000 A 
ATOM      4  C   UNL     1      44.489   7.004  11.495  0.00  0.00    +0.000 A 
ATOM      5  C   UNL     1      45.440   5.995  11.290  0.00  0.00    +0.000 A 
ATOM      6  C   UNL     1      46.720   6.192  11.849  0.00  0.00    +0.000 A 
ENDROOT
BRANCH   5   7
ATOM      7  C   UNL     1      45.156   4.810  10.453  0.00  0.00    +0.000 A 
ATOM      8  C   UNL     1      45.549   4.721   9.110  0.00  0.00    +0.000 A 
ATOM      9  C   UNL     1      45.203   3.610   8.339  0.00  0.00    +0.000 A 
ATOM     10  C   UNL     1      44.473   2.598   8.934  0.00  0.00    +0.000 A 
ATOM     11  N   UNL     1      44.080   2.623  10.221  0.00  0.00    +0.000 NA
ATOM     12  C   UNL     1      44.425   3.722  10.939  0.00  0.00    +0.000 A 
ENDBRANCH   5   7
BRANCH   1  13
ATOM     13  C   UNL     1      48.544   7.629  12.933  0.00  0.00    +0.000 C 
ATOM     14  C   UNL     1      49.467   8.307  11.916  0.00  0.00    +0.000 C 
ATOM     15  C   UNL     1      49.016   9.060  13.119  0.00  0.00    +0.000 C 
BRANCH  13  16
ATOM     16  O   UNL     1      49.229   6.563  13.634  0.00  0.00    +0.000 OA
BRANCH  16  21
ATOM     17 CL   UNL     1      47.575   5.444  19.118  0.00  0.00    +0.000 Cl
ATOM     18  C   UNL     1      48.053   5.793  17.508  0.00  0.00    +0.000 A 
ATOM     19  C   UNL     1      48.762   6.952  17.215  0.00  0.00    +0.000 A 
ATOM     20  C   UNL     1      49.146   7.193  15.897  0.00  0.00    +0.000 A 
ATOM     21  C   UNL     1      48.817   6.258  14.920  0.00  0.00    +0.000 A 
ATOM     22  N   UNL     1      48.123   5.128  15.178  0.00  0.00    +0.000 NA
ATOM     23  C   UNL     1      47.750   4.927  16.468  0.00  0.00    +0.000 A 
ENDBRANCH  16  21
ENDBRANCH  13  16
ENDBRANCH   1  13
TORSDOF 4
ENDMDL
MODEL 9
REMARK VINA RESULT:    -5.508      3.972      7.839
REMARK INTER + INTRA:          -7.768
REMARK INTER:                  -6.934
REMARK INTRA:                  -0.834
REMARK UNBOUND:                -0.971
REMARK  Name = 
REMARK  4 active torsions:
REMARK  status: ('A' for Active; 'I' for Inactive)
REMARK    1  A    between atoms: C_5  and  O_6
REMARK    2  A    between atoms: O_6  and  C_7
REMARK    3  A    between atoms: C_7  and  C_8
REMARK    4  A    between atoms: C_12  and  C_13
REMARK                            x       y       z     vdW  Elec       q    Type
REMARK                         _______ _______ _______ _____ _____    ______ ____
ROOT
ATOM      1  C   UNL     1      47.531   7.808  12.439  0.00  0.00    +0.000 A 
ATOM      2  C   UNL     1      46.807   8.977  12.172  0.00  0.00    +0.000 A 
ATOM      3  C   UNL     1      45.446   8.934  11.862  0.00  0.00    +0.000 A 
ATOM      4  C   UNL     1      44.780   7.709  11.792  0.00  0.00    +0.000 A 
ATOM      5  C   UNL     1      45.450   6.507  12.061  0.00  0.00    +0.000 A 
ATOM      6  C   UNL     1      46.810   6.594  12.423  0.00  0.00    +0.000 A 
ENDROOT
BRANCH   5   7
ATOM      7  C   UNL     1      44.796   5.193  11.889  0.00  0.00    +0.000 A 
ATOM      8  C   UNL     1      44.597   4.606  10.631  0.00  0.00    +0.000 A 
ATOM      9  C   UNL     1      43.918   3.392  10.512  0.00  0.00    +0.000 A 
ATOM     10  C   UNL     1      43.456   2.780  11.662  0.00  0.00    +0.000 A 
ATOM     11  N   UNL     1      43.630   3.290  12.896  0.00  0.00    +0.000 NA
ATOM     12  C   UNL     1      44.286   4.476  12.975  0.00  0.00    +0.000 A 
ENDBRANCH   5   7
BRANCH   1  13
ATOM     13  C   UNL     1      49.041   7.835  12.650  0.00  0.00    +0.000 C 
ATOM     14  C   UNL     1      49.924   7.989  11.409  0.00  0.00    +0.000 C 
ATOM     15  C   UNL     1      49.798   9.121  12.368  0.00  0.00    +0.000 C 
BRANCH  13  16
ATOM     16  O   UNL     1      49.602   6.874  13.578  0.00  0.00    +0.000 OA
BRANCH  16  21
ATOM     17 CL   UNL     1      50.332   8.553  19.119  0.00  0.00    +0.000 Cl
ATOM     18  C   UNL     1      50.107   8.041  17.498  0.00  0.00    +0.000 A 
ATOM     19  C   UNL     1      48.856   7.634  17.051  0.00  0.00    +0.000 A 
ATOM     20  C   UNL     1      48.710   7.239  15.721  0.00  0.00    +0.000 A 
ATOM     21  C   UNL     1      49.820   7.279  14.884  0.00  0.00    +0.000 A 
ATOM     22  N   UNL     1      51.048   7.666  15.296  0.00  0.00    +0.000 NA
ATOM     23  C   UNL     1      51.163   8.030  16.598  0.00  0.00    +0.000 A 
ENDBRANCH  16  21
ENDBRANCH  13  16
ENDBRANCH   1  13
TORSDOF 4
ENDMDL
