MODEL 1
REMARK VINA RESULT:    -8.559      0.000      0.000
REMARK INTER + INTRA:         -12.900
REMARK INTER:                 -11.561
REMARK INTRA:                  -1.339
REMARK UNBOUND:                -1.339
REMARK  Name = 
REMARK  7 active torsions:
REMARK  status: ('A' for Active; 'I' for Inactive)
REMARK    1  A    between atoms: C_1  and  C_2
REMARK    2  A    between atoms: C_2  and  N_3
REMARK    3  A    between atoms: C_2  and  C_16
REMARK    4  A    between atoms: C_4  and  C_6
REMARK    5  A    between atoms: C_19  and  N_20
REMARK    6  A    between atoms: N_20  and  C_21
REMARK    7  A    between atoms: C_21  and  C_22
REMARK                            x       y       z     vdW  Elec       q    Type
REMARK                         _______ _______ _______ _____ _____    ______ ____
ROOT
ATOM      1  C   UNL     1      46.260   6.932  12.352  0.00  0.00    +0.000 A 
ATOM      2  C   UNL     1      46.603   6.586  11.039  0.00  0.00    +0.000 A 
ATOM      3  C   UNL     1      45.767   5.771  10.274  0.00  0.00    +0.000 A 
ATOM      4  C   UNL     1      44.537   5.305  10.765  0.00  0.00    +0.000 A 
ATOM      5  C   UNL     1      44.233   5.599  12.109  0.00  0.00    +0.000 A 
ATOM      6 CL   UNL     1      42.764   5.045  12.839  0.00  0.00    +0.000 Cl
ATOM      7  C   UNL     1      45.078   6.404  12.887  0.00  0.00    +0.000 A 
ENDROOT
BRANCH   1   9
ATOM      8  C   UNL     1      46.358   9.237  13.358  0.00  0.00    +0.000 C 
ATOM      9  C   UNL     1      47.094   7.909  13.161  0.00  0.00    +0.000 C 
BRANCH   9  10
ATOM     10  N   UNL     1      47.446   7.296  14.431  0.00  0.00    +0.000 N 
ATOM     11  C   UNL     1      48.695   6.798  14.700  0.00  0.00    +0.000 C 
ATOM     12  O   UNL     1      49.610   6.845  13.884  0.00  0.00    +0.000 OA
ATOM     13  H   UNL     1      46.678   7.025  15.037  0.00  0.00    +0.000 HD
BRANCH  11  14
ATOM     14  C   UNL     1      48.899   6.249  16.047  0.00  0.00    +0.000 A 
ATOM     15  C   UNL     1      49.795   6.861  16.912  0.00  0.00    +0.000 A 
ATOM     16  S   UNL     1      49.903   6.100  18.435  0.00  0.00    +0.000 S 
ATOM     17  C   UNL     1      48.796   4.903  17.975  0.00  0.00    +0.000 A 
ATOM     18  N   UNL     1      48.468   3.890  18.823  0.00  0.00    +0.000 NA
ATOM     19  C   UNL     1      47.642   3.022  18.328  0.00  0.00    +0.000 A 
ATOM     20  N   UNL     1      47.101   3.091  17.072  0.00  0.00    +0.000 N 
ATOM     21  C   UNL     1      47.351   4.128  16.207  0.00  0.00    +0.000 A 
ATOM     22  O   UNL     1      46.763   4.218  15.136  0.00  0.00    +0.000 OA
ATOM     23  C   UNL     1      48.314   5.100  16.688  0.00  0.00    +0.000 A 
ATOM     24  H   UNL     1      46.441   2.396  16.758  0.00  0.00    +0.000 HD
ENDBRANCH  11  14
ENDBRANCH   9  10
ENDBRANCH   1   9
BRANCH   4  25
ATOM     25  N   UNL     1      43.698   4.525   9.941  0.00  0.00    +0.000 N 
ATOM     26  H   UNL     1      42.749   4.897   9.839  0.00  0.00    +0.000 HD
BRANCH  25  27
ATOM     27  C   UNL     1      44.285   4.085   8.661  0.00  0.00    +0.000 C 
BRANCH  27  28
ATOM     28  C   UNL     1      44.853   2.660   8.700  0.00  0.00    +0.000 C 
ATOM     29  O   UNL     1      44.293   1.760   9.331  0.00  0.00    +0.000 OA
ATOM     30  N   UNL     1      46.011   2.436   7.952  0.00  0.00    +0.000 N 
ATOM     31  C   UNL     1      46.786   3.460   7.237  0.00  0.00    +0.000 C 
ATOM     32  C   UNL     1      47.297   2.928   5.890  0.00  0.00    +0.000 C 
ATOM     33  O   UNL     1      48.004   1.691   6.047  0.00  0.00    +0.000 OA
ATOM     34  C   UNL     1      47.157   0.694   6.643  0.00  0.00    +0.000 C 
ATOM     35  C   UNL     1      46.684   1.137   8.030  0.00  0.00    +0.000 C 
ENDBRANCH  27  28
ENDBRANCH  25  27
ENDBRANCH   4  25
TORSDOF 6
ENDMDL
MODEL 2
REMARK VINA RESULT:    -8.076      1.620      2.038
REMARK INTER + INTRA:         -12.248
REMARK INTER:                 -11.154
REMARK INTRA:                  -1.094
REMARK UNBOUND:                -1.339
REMARK  Name = 
REMARK  7 active torsions:
REMARK  status: ('A' for Active; 'I' for Inactive)
REMARK    1  A    between atoms: C_1  and  C_2
REMARK    2  A    between atoms: C_2  and  N_3
REMARK    3  A    between atoms: C_2  and  C_16
REMARK    4  A    between atoms: C_4  and  C_6
REMARK    5  A    between atoms: C_19  and  N_20
REMARK    6  A    between atoms: N_20  and  C_21
REMARK    7  A    between atoms: C_21  and  C_22
REMARK                            x       y       z     vdW  Elec       q    Type
REMARK                         _______ _______ _______ _____ _____    ______ ____
ROOT
ATOM      1  C   UNL     1      46.717   6.441  12.655  0.00  0.00    +0.000 A 
ATOM      2  C   UNL     1      46.849   6.519  11.264  0.00  0.00    +0.000 A 
ATOM      3  C   UNL     1      45.916   5.910  10.423  0.00  0.00    +0.000 A 
ATOM      4  C   UNL     1      44.792   5.238  10.928  0.00  0.00    +0.000 A 
ATOM      5  C   UNL     1      44.705   5.102  12.328  0.00  0.00    +0.000 A 
ATOM      6 CL   UNL     1      43.387   4.259  13.068  0.00  0.00    +0.000 Cl
ATOM      7  C   UNL     1      45.649   5.699  13.177  0.00  0.00    +0.000 A 
ENDROOT
BRANCH   1   9
ATOM      8  C   UNL     1      47.254   8.666  13.701  0.00  0.00    +0.000 C 
ATOM      9  C   UNL     1      47.651   7.192  13.586  0.00  0.00    +0.000 C 
BRANCH   9  10
ATOM     10  N   UNL     1      47.660   6.535  14.883  0.00  0.00    +0.000 N 
ATOM     11  C   UNL     1      48.806   6.320  15.604  0.00  0.00    +0.000 C 
ATOM     12  O   UNL     1      49.910   6.678  15.205  0.00  0.00    +0.000 OA
ATOM     13  H   UNL     1      46.824   6.021  15.141  0.00  0.00    +0.000 HD
BRANCH  11  14
ATOM     14  C   UNL     1      48.639   5.681  16.915  0.00  0.00    +0.000 A 
ATOM     15  C   UNL     1      48.807   4.308  17.040  0.00  0.00    +0.000 A 
ATOM     16  S   UNL     1      48.585   3.734  18.630  0.00  0.00    +0.000 S 
ATOM     17  C   UNL     1      48.212   5.286  19.196  0.00  0.00    +0.000 A 
ATOM     18  N   UNL     1      47.874   5.494  20.499  0.00  0.00    +0.000 NA
ATOM     19  C   UNL     1      47.573   6.722  20.786  0.00  0.00    +0.000 A 
ATOM     20  N   UNL     1      47.602   7.760  19.893  0.00  0.00    +0.000 N 
ATOM     21  C   UNL     1      48.000   7.609  18.587  0.00  0.00    +0.000 A 
ATOM     22  O   UNL     1      48.123   8.577  17.845  0.00  0.00    +0.000 OA
ATOM     23  C   UNL     1      48.294   6.244  18.195  0.00  0.00    +0.000 A 
ATOM     24  H   UNL     1      47.384   8.698  20.188  0.00  0.00    +0.000 HD
ENDBRANCH  11  14
ENDBRANCH   9  10
ENDBRANCH   1   9
BRANCH   4  25
ATOM     25  N   UNL     1      43.847   4.678  10.043  0.00  0.00    +0.000 N 
ATOM     26  H   UNL     1      42.987   5.226   9.949  0.00  0.00    +0.000 HD
BRANCH  25  27
ATOM     27  C   UNL     1      44.377   4.214   8.747  0.00  0.00    +0.000 C 
BRANCH  27  28
ATOM     28  C   UNL     1      44.887   2.766   8.771  0.00  0.00    +0.000 C 
ATOM     29  O   UNL     1      44.312   1.892   9.425  0.00  0.00    +0.000 OA
ATOM     30  N   UNL     1      46.007   2.493   7.985  0.00  0.00    +0.000 N 
ATOM     31  C   UNL     1      46.799   3.482   7.240  0.00  0.00    +0.000 C 
ATOM     32  C   UNL     1      47.241   2.926   5.878  0.00  0.00    +0.000 C 
ATOM     33  O   UNL     1      47.900   1.661   6.015  0.00  0.00    +0.000 OA
ATOM     34  C   UNL     1      47.035   0.702   6.643  0.00  0.00    +0.000 C 
ATOM     35  C   UNL     1      46.628   1.167   8.044  0.00  0.00    +0.000 C 
ENDBRANCH  27  28
ENDBRANCH  25  27
ENDBRANCH   4  25
TORSDOF 6
ENDMDL
MODEL 3
REMARK VINA RESULT:    -7.645      2.096      2.595
REMARK INTER + INTRA:         -11.666
REMARK INTER:                 -10.796
REMARK INTRA:                  -0.869
REMARK UNBOUND:                -1.339
REMARK  Name = 
REMARK  7 active torsions:
REMARK  status: ('A' for Active; 'I' for Inactive)
REMARK    1  A    between atoms: C_1  and  C_2
REMARK    2  A    between atoms: C_2  and  N_3
REMARK    3  A    between atoms: C_2  and  C_16
REMARK    4  A    between atoms: C_4  and  C_6
REMARK    5  A    between atoms: C_19  and  N_20
REMARK    6  A    between atoms: N_20  and  C_21
REMARK    7  A    between atoms: C_21  and  C_22
REMARK                            x       y       z     vdW  Elec       q    Type
REMARK                         _______ _______ _______ _____ _____    ______ ____
ROOT
ATOM      1  C   UNL     1      47.292   6.005  13.470  0.00  0.00    +0.000 A 
ATOM      2  C   UNL     1      47.026   4.631  13.458  0.00  0.00    +0.000 A 
ATOM      3  C   UNL     1      45.962   4.116  12.716  0.00  0.00    +0.000 A 
ATOM      4  C   UNL     1      45.146   4.939  11.923  0.00  0.00    +0.000 A 
ATOM      5  C   UNL     1      45.375   6.327  11.997  0.00  0.00    +0.000 A 
ATOM      6 CL   UNL     1      44.410   7.445  11.096  0.00  0.00    +0.000 Cl
ATOM      7  C   UNL     1      46.435   6.851  12.753  0.00  0.00    +0.000 A 
ENDROOT
BRANCH   1   9
ATOM      8  C   UNL     1      48.974   7.877  13.516  0.00  0.00    +0.000 C 
ATOM      9  C   UNL     1      48.511   6.573  14.173  0.00  0.00    +0.000 C 
BRANCH   9  10
ATOM     10  N   UNL     1      48.204   6.761  15.582  0.00  0.00    +0.000 N 
ATOM     11  C   UNL     1      49.104   6.507  16.584  0.00  0.00    +0.000 C 
ATOM     12  O   UNL     1      50.243   6.109  16.357  0.00  0.00    +0.000 OA
ATOM     13  H   UNL     1      47.223   6.859  15.827  0.00  0.00    +0.000 HD
BRANCH  11  14
ATOM     14  C   UNL     1      48.651   6.788  17.952  0.00  0.00    +0.000 A 
ATOM     15  C   UNL     1      48.275   8.077  18.302  0.00  0.00    +0.000 A 
ATOM     16  S   UNL     1      47.768   8.225  19.924  0.00  0.00    +0.000 S 
ATOM     17  C   UNL     1      48.076   6.587  20.225  0.00  0.00    +0.000 A 
ATOM     18  N   UNL     1      47.889   6.055  21.465  0.00  0.00    +0.000 NA
ATOM     19  C   UNL     1      48.203   4.801  21.564  0.00  0.00    +0.000 A 
ATOM     20  N   UNL     1      48.665   4.030  20.531  0.00  0.00    +0.000 N 
ATOM     21  C   UNL     1      48.806   4.506  19.251  0.00  0.00    +0.000 A 
ATOM     22  O   UNL     1      49.114   3.761  18.327  0.00  0.00    +0.000 OA
ATOM     23  C   UNL     1      48.524   5.919  19.093  0.00  0.00    +0.000 A 
ATOM     24  H   UNL     1      48.864   3.052  20.670  0.00  0.00    +0.000 HD
ENDBRANCH  11  14
ENDBRANCH   9  10
ENDBRANCH   1   9
BRANCH   4  25
ATOM     25  N   UNL     1      44.111   4.372  11.149  0.00  0.00    +0.000 N 
ATOM     26  H   UNL     1      43.479   5.060  10.730  0.00  0.00    +0.000 HD
BRANCH  25  27
ATOM     27  C   UNL     1      44.520   3.314  10.206  0.00  0.00    +0.000 C 
BRANCH  27  28
ATOM     28  C   UNL     1      45.248   3.843   8.963  0.00  0.00    +0.000 C 
ATOM     29  O   UNL     1      45.399   5.052   8.771  0.00  0.00    +0.000 OA
ATOM     30  N   UNL     1      45.758   2.882   8.089  0.00  0.00    +0.000 N 
ATOM     31  C   UNL     1      45.558   1.429   8.196  0.00  0.00    +0.000 C 
ATOM     32  C   UNL     1      46.835   0.665   7.816  0.00  0.00    +0.000 C 
ATOM     33  O   UNL     1      47.333   1.074   6.537  0.00  0.00    +0.000 OA
ATOM     34  C   UNL     1      47.621   2.483   6.530  0.00  0.00    +0.000 C 
ATOM     35  C   UNL     1      46.360   3.300   6.821  0.00  0.00    +0.000 C 
ENDBRANCH  27  28
ENDBRANCH  25  27
ENDBRANCH   4  25
TORSDOF 6
ENDMDL
MODEL 4
REMARK VINA RESULT:    -7.003      1.922      2.414
REMARK INTER + INTRA:         -10.798
REMARK INTER:                 -10.036
REMARK INTRA:                  -0.761
REMARK UNBOUND:                -1.339
REMARK  Name = 
REMARK  7 active torsions:
REMARK  status: ('A' for Active; 'I' for Inactive)
REMARK    1  A    between atoms: C_1  and  C_2
REMARK    2  A    between atoms: C_2  and  N_3
REMARK    3  A    between atoms: C_2  and  C_16
REMARK    4  A    between atoms: C_4  and  C_6
REMARK    5  A    between atoms: C_19  and  N_20
REMARK    6  A    between atoms: N_20  and  C_21
REMARK    7  A    between atoms: C_21  and  C_22
REMARK                            x       y       z     vdW  Elec       q    Type
REMARK                         _______ _______ _______ _____ _____    ______ ____
ROOT
ATOM      1  C   UNL     1      45.884   7.261  12.424  0.00  0.00    +0.000 A 
ATOM      2  C   UNL     1      46.840   6.255  12.236  0.00  0.00    +0.000 A 
ATOM      3  C   UNL     1      46.459   4.973  11.839  0.00  0.00    +0.000 A 
ATOM      4  C   UNL     1      45.120   4.649  11.570  0.00  0.00    +0.000 A 
ATOM      5  C   UNL     1      44.157   5.644  11.830  0.00  0.00    +0.000 A 
ATOM      6 CL   UNL     1      42.471   5.352  11.575  0.00  0.00    +0.000 Cl
ATOM      7  C   UNL     1      44.534   6.931  12.245  0.00  0.00    +0.000 A 
ENDROOT
BRANCH   1   9
ATOM      8  C   UNL     1      45.113   9.653  12.536  0.00  0.00    +0.000 C 
ATOM      9  C   UNL     1      46.285   8.689  12.742  0.00  0.00    +0.000 C 
BRANCH   9  10
ATOM     10  N   UNL     1      46.797   8.750  14.101  0.00  0.00    +0.000 N 
ATOM     11  C   UNL     1      48.135   8.819  14.394  0.00  0.00    +0.000 C 
ATOM     12  O   UNL     1      48.997   8.844  13.520  0.00  0.00    +0.000 OA
ATOM     13  H   UNL     1      46.153   8.497  14.845  0.00  0.00    +0.000 HD
BRANCH  11  14
ATOM     14  C   UNL     1      48.485   8.915  15.816  0.00  0.00    +0.000 A 
ATOM     15  C   UNL     1      48.554  10.160  16.426  0.00  0.00    +0.000 A 
ATOM     16  S   UNL     1      48.965  10.089  18.081  0.00  0.00    +0.000 S 
ATOM     17  C   UNL     1      49.109   8.402  18.027  0.00  0.00    +0.000 A 
ATOM     18  N   UNL     1      49.487   7.696  19.129  0.00  0.00    +0.000 NA
ATOM     19  C   UNL     1      49.597   6.419  18.936  0.00  0.00    +0.000 A 
ATOM     20  N   UNL     1      49.342   5.786  17.749  0.00  0.00    +0.000 N 
ATOM     21  C   UNL     1      48.896   6.448  16.631  0.00  0.00    +0.000 A 
ATOM     22  O   UNL     1      48.570   5.837  15.619  0.00  0.00    +0.000 OA
ATOM     23  C   UNL     1      48.809   7.889  16.772  0.00  0.00    +0.000 A 
ATOM     24  H   UNL     1      49.420   4.784  17.674  0.00  0.00    +0.000 HD
ENDBRANCH  11  14
ENDBRANCH   9  10
ENDBRANCH   1   9
BRANCH   4  25
ATOM     25  N   UNL     1      44.782   3.354  11.122  0.00  0.00    +0.000 N 
ATOM     26  H   UNL     1      44.226   2.813  11.791  0.00  0.00    +0.000 HD
BRANCH  25  27
ATOM     27  C   UNL     1      44.271   3.265   9.742  0.00  0.00    +0.000 C 
BRANCH  27  28
ATOM     28  C   UNL     1      45.229   3.837   8.689  0.00  0.00    +0.000 C 
ATOM     29  O   UNL     1      45.417   5.051   8.582  0.00  0.00    +0.000 OA
ATOM     30  N   UNL     1      45.901   2.907   7.894  0.00  0.00    +0.000 N 
ATOM     31  C   UNL     1      45.684   1.453   7.900  0.00  0.00    +0.000 C 
ATOM     32  C   UNL     1      47.010   0.693   7.749  0.00  0.00    +0.000 C 
ATOM     33  O   UNL     1      47.751   1.150   6.610  0.00  0.00    +0.000 OA
ATOM     34  C   UNL     1      48.036   2.555   6.719  0.00  0.00    +0.000 C 
ATOM     35  C   UNL     1      46.743   3.371   6.789  0.00  0.00    +0.000 C 
ENDBRANCH  27  28
ENDBRANCH  25  27
ENDBRANCH   4  25
TORSDOF 6
ENDMDL
MODEL 5
REMARK VINA RESULT:    -6.915      2.618      3.709
REMARK INTER + INTRA:         -10.679
REMARK INTER:                  -9.378
REMARK INTRA:                  -1.301
REMARK UNBOUND:                -1.339
REMARK  Name = 
REMARK  7 active torsions:
REMARK  status: ('A' for Active; 'I' for Inactive)
REMARK    1  A    between atoms: C_1  and  C_2
REMARK    2  A    between atoms: C_2  and  N_3
REMARK    3  A    between atoms: C_2  and  C_16
REMARK    4  A    between atoms: C_4  and  C_6
REMARK    5  A    between atoms: C_19  and  N_20
REMARK    6  A    between atoms: N_20  and  C_21
REMARK    7  A    between atoms: C_21  and  C_22
REMARK                            x       y       z     vdW  Elec       q    Type
REMARK                         _______ _______ _______ _____ _____    ______ ____
ROOT
ATOM      1  C   UNL     1      47.527   6.630  13.426  0.00  0.00    +0.000 A 
ATOM      2  C   UNL     1      46.828   5.450  13.711  0.00  0.00    +0.000 A 
ATOM      3  C   UNL     1      45.477   5.325  13.384  0.00  0.00    +0.000 A 
ATOM      4  C   UNL     1      44.777   6.347  12.723  0.00  0.00    +0.000 A 
ATOM      5  C   UNL     1      45.467   7.555  12.505  0.00  0.00    +0.000 A 
ATOM      6 CL   UNL     1      44.698   8.901  11.735  0.00  0.00    +0.000 Cl
ATOM      7  C   UNL     1      46.821   7.692  12.845  0.00  0.00    +0.000 A 
ENDROOT
BRANCH   1   9
ATOM      8  C   UNL     1      49.703   7.532  12.541  0.00  0.00    +0.000 C 
ATOM      9  C   UNL     1      49.021   6.746  13.665  0.00  0.00    +0.000 C 
BRANCH   9  10
ATOM     10  N   UNL     1      49.249   7.358  14.963  0.00  0.00    +0.000 N 
ATOM     11  C   UNL     1      49.355   6.634  16.123  0.00  0.00    +0.000 C 
ATOM     12  O   UNL     1      49.273   5.409  16.142  0.00  0.00    +0.000 OA
ATOM     13  H   UNL     1      49.090   8.359  15.032  0.00  0.00    +0.000 HD
BRANCH  11  14
ATOM     14  C   UNL     1      49.627   7.401  17.345  0.00  0.00    +0.000 A 
ATOM     15  C   UNL     1      50.527   6.909  18.281  0.00  0.00    +0.000 A 
ATOM     16  S   UNL     1      50.731   7.927  19.634  0.00  0.00    +0.000 S 
ATOM     17  C   UNL     1      49.594   9.033  19.040  0.00  0.00    +0.000 A 
ATOM     18  N   UNL     1      49.258  10.144  19.754  0.00  0.00    +0.000 NA
ATOM     19  C   UNL     1      48.346  10.881  19.201  0.00  0.00    +0.000 A 
ATOM     20  N   UNL     1      47.759  10.618  17.992  0.00  0.00    +0.000 N 
ATOM     21  C   UNL     1      48.113   9.547  17.208  0.00  0.00    +0.000 A 
ATOM     22  O   UNL     1      47.650   9.404  16.082  0.00  0.00    +0.000 OA
ATOM     23  C   UNL     1      49.090   8.655  17.803  0.00  0.00    +0.000 A 
ATOM     24  H   UNL     1      47.075  11.249  17.605  0.00  0.00    +0.000 HD
ENDBRANCH  11  14
ENDBRANCH   9  10
ENDBRANCH   1   9
BRANCH   4  25
ATOM     25  N   UNL     1      43.424   6.160  12.367  0.00  0.00    +0.000 N 
ATOM     26  H   UNL     1      42.819   6.953  12.598  0.00  0.00    +0.000 HD
BRANCH  25  27
ATOM     27  C   UNL     1      43.184   5.626  11.013  0.00  0.00    +0.000 C 
BRANCH  27  28
ATOM     28  C   UNL     1      43.499   4.131  10.874  0.00  0.00    +0.000 C 
ATOM     29  O   UNL     1      42.816   3.274  11.441  0.00  0.00    +0.000 OA
ATOM     30  N   UNL     1      44.570   3.799  10.042  0.00  0.00    +0.000 N 
ATOM     31  C   UNL     1      45.482   4.751   9.392  0.00  0.00    +0.000 C 
ATOM     32  C   UNL     1      45.840   4.292   7.971  0.00  0.00    +0.000 C 
ATOM     33  O   UNL     1      46.328   2.945   7.960  0.00  0.00    +0.000 OA
ATOM     34  C   UNL     1      45.345   2.044   8.499  0.00  0.00    +0.000 C 
ATOM     35  C   UNL     1      45.010   2.405   9.949  0.00  0.00    +0.000 C 
ENDBRANCH  27  28
ENDBRANCH  25  27
ENDBRANCH   4  25
TORSDOF 6
ENDMDL
MODEL 6
REMARK VINA RESULT:    -6.914      2.037      2.633
REMARK INTER + INTRA:         -10.678
REMARK INTER:                  -9.147
REMARK INTRA:                  -1.531
REMARK UNBOUND:                -1.339
REMARK  Name = 
REMARK  7 active torsions:
REMARK  status: ('A' for Active; 'I' for Inactive)
REMARK    1  A    between atoms: C_1  and  C_2
REMARK    2  A    between atoms: C_2  and  N_3
REMARK    3  A    between atoms: C_2  and  C_16
REMARK    4  A    between atoms: C_4  and  C_6
REMARK    5  A    between atoms: C_19  and  N_20
REMARK    6  A    between atoms: N_20  and  C_21
REMARK    7  A    between atoms: C_21  and  C_22
REMARK                            x       y       z     vdW  Elec       q    Type
REMARK                         _______ _______ _______ _____ _____    ______ ____
ROOT
ATOM      1  C   UNL     1      47.434   7.877  12.807  0.00  0.00    +0.000 A 
ATOM      2  C   UNL     1      46.335   8.599  12.326  0.00  0.00    +0.000 A 
ATOM      3  C   UNL     1      45.093   7.984  12.164  0.00  0.00    +0.000 A 
ATOM      4  C   UNL     1      44.880   6.641  12.516  0.00  0.00    +0.000 A 
ATOM      5  C   UNL     1      46.006   5.904  12.931  0.00  0.00    +0.000 A 
ATOM      6 CL   UNL     1      45.878   4.230  13.352  0.00  0.00    +0.000 Cl
ATOM      7  C   UNL     1      47.261   6.513  13.080  0.00  0.00    +0.000 A 
ENDROOT
BRANCH   1   9
ATOM      8  C   UNL     1      48.709  10.047  12.774  0.00  0.00    +0.000 C 
ATOM      9  C   UNL     1      48.762   8.551  13.100  0.00  0.00    +0.000 C 
BRANCH   9  10
ATOM     10  N   UNL     1      49.119   8.317  14.490  0.00  0.00    +0.000 N 
ATOM     11  C   UNL     1      50.405   8.082  14.902  0.00  0.00    +0.000 C 
ATOM     12  O   UNL     1      51.351   8.062  14.120  0.00  0.00    +0.000 OA
ATOM     13  H   UNL     1      48.359   8.093  15.126  0.00  0.00    +0.000 HD
BRANCH  11  14
ATOM     14  C   UNL     1      50.603   7.906  16.346  0.00  0.00    +0.000 A 
ATOM     15  C   UNL     1      51.344   8.838  17.059  0.00  0.00    +0.000 A 
ATOM     16  S   UNL     1      51.468   8.486  18.723  0.00  0.00    +0.000 S 
ATOM     17  C   UNL     1      50.578   7.056  18.541  0.00  0.00    +0.000 A 
ATOM     18  N   UNL     1      50.348   6.234  19.602  0.00  0.00    +0.000 NA
ATOM     19  C   UNL     1      49.690   5.155  19.313  0.00  0.00    +0.000 A 
ATOM     20  N   UNL     1      49.223   4.839  18.064  0.00  0.00    +0.000 N 
ATOM     21  C   UNL     1      49.373   5.668  16.980  0.00  0.00    +0.000 A 
ATOM     22  O   UNL     1      48.847   5.408  15.904  0.00  0.00    +0.000 OA
ATOM     23  C   UNL     1      50.153   6.865  17.233  0.00  0.00    +0.000 A 
ATOM     24  H   UNL     1      48.693   3.996  17.913  0.00  0.00    +0.000 HD
ENDBRANCH  11  14
ENDBRANCH   9  10
ENDBRANCH   1   9
BRANCH   4  25
ATOM     25  N   UNL     1      43.596   6.072  12.383  0.00  0.00    +0.000 N 
ATOM     26  H   UNL     1      42.846   6.630  12.803  0.00  0.00    +0.000 HD
BRANCH  25  27
ATOM     27  C   UNL     1      43.254   5.564  11.041  0.00  0.00    +0.000 C 
BRANCH  27  28
ATOM     28  C   UNL     1      43.552   4.070  10.852  0.00  0.00    +0.000 C 
ATOM     29  O   UNL     1      42.868   3.203  11.401  0.00  0.00    +0.000 OA
ATOM     30  N   UNL     1      44.610   3.754   9.997  0.00  0.00    +0.000 N 
ATOM     31  C   UNL     1      45.523   4.718   9.365  0.00  0.00    +0.000 C 
ATOM     32  C   UNL     1      45.859   4.300   7.926  0.00  0.00    +0.000 C 
ATOM     33  O   UNL     1      46.333   2.949   7.867  0.00  0.00    +0.000 OA
ATOM     34  C   UNL     1      45.349   2.041   8.391  0.00  0.00    +0.000 C 
ATOM     35  C   UNL     1      45.035   2.360   9.855  0.00  0.00    +0.000 C 
ENDBRANCH  27  28
ENDBRANCH  25  27
ENDBRANCH   4  25
TORSDOF 6
ENDMDL
MODEL 7
REMARK VINA RESULT:    -6.914      3.221      8.404
REMARK INTER + INTRA:         -10.677
REMARK INTER:                  -9.694
REMARK INTRA:                  -0.984
REMARK UNBOUND:                -1.339
REMARK  Name = 
REMARK  7 active torsions:
REMARK  status: ('A' for Active; 'I' for Inactive)
REMARK    1  A    between atoms: C_1  and  C_2
REMARK    2  A    between atoms: C_2  and  N_3
REMARK    3  A    between atoms: C_2  and  C_16
REMARK    4  A    between atoms: C_4  and  C_6
REMARK    5  A    between atoms: C_19  and  N_20
REMARK    6  A    between atoms: N_20  and  C_21
REMARK    7  A    between atoms: C_21  and  C_22
REMARK                            x       y       z     vdW  Elec       q    Type
REMARK                         _______ _______ _______ _____ _____    ______ ____
ROOT
ATOM      1  C   UNL     1      48.434   7.889  13.971  0.00  0.00    +0.000 A 
ATOM      2  C   UNL     1      49.385   6.926  14.332  0.00  0.00    +0.000 A 
ATOM      3  C   UNL     1      49.856   6.846  15.643  0.00  0.00    +0.000 A 
ATOM      4  C   UNL     1      49.371   7.687  16.657  0.00  0.00    +0.000 A 
ATOM      5  C   UNL     1      48.470   8.698  16.272  0.00  0.00    +0.000 A 
ATOM      6 CL   UNL     1      47.833   9.821  17.424  0.00  0.00    +0.000 Cl
ATOM      7  C   UNL     1      48.004   8.794  14.951  0.00  0.00    +0.000 A 
ENDROOT
BRANCH   1   9
ATOM      8  C   UNL     1      48.903   8.030  11.503  0.00  0.00    +0.000 C 
ATOM      9  C   UNL     1      47.823   7.921  12.583  0.00  0.00    +0.000 C 
BRANCH   9  10
ATOM     10  N   UNL     1      46.997   6.739  12.399  0.00  0.00    +0.000 N 
ATOM     11  C   UNL     1      45.728   6.787  11.882  0.00  0.00    +0.000 C 
ATOM     12  O   UNL     1      45.202   7.838  11.527  0.00  0.00    +0.000 OA
ATOM     13  H   UNL     1      47.288   5.897  12.885  0.00  0.00    +0.000 HD
BRANCH  11  14
ATOM     14  C   UNL     1      45.042   5.498  11.722  0.00  0.00    +0.000 A 
ATOM     15  C   UNL     1      44.329   4.961  12.784  0.00  0.00    +0.000 A 
ATOM     16  S   UNL     1      43.589   3.466  12.424  0.00  0.00    +0.000 S 
ATOM     17  C   UNL     1      44.232   3.464  10.858  0.00  0.00    +0.000 A 
ATOM     18  N   UNL     1      44.011   2.421  10.011  0.00  0.00    +0.000 NA
ATOM     19  C   UNL     1      44.596   2.531   8.859  0.00  0.00    +0.000 A 
ATOM     20  N   UNL     1      45.361   3.599   8.473  0.00  0.00    +0.000 N 
ATOM     21  C   UNL     1      45.557   4.702   9.268  0.00  0.00    +0.000 A 
ATOM     22  O   UNL     1      46.152   5.689   8.850  0.00  0.00    +0.000 OA
ATOM     23  C   UNL     1      44.972   4.609  10.592  0.00  0.00    +0.000 A 
ATOM     24  H   UNL     1      45.765   3.635   7.551  0.00  0.00    +0.000 HD
ENDBRANCH  11  14
ENDBRANCH   9  10
ENDBRANCH   1   9
BRANCH   4  25
ATOM     25  N   UNL     1      49.838   7.539  17.981  0.00  0.00    +0.000 N 
ATOM     26  H   UNL     1      50.297   8.374  18.357  0.00  0.00    +0.000 HD
BRANCH  25  27
ATOM     27  C   UNL     1      48.893   6.924  18.931  0.00  0.00    +0.000 C 
BRANCH  27  28
ATOM     28  C   UNL     1      48.345   5.567  18.466  0.00  0.00    +0.000 C 
ATOM     29  O   UNL     1      47.161   5.425  18.151  0.00  0.00    +0.000 OA
ATOM     30  N   UNL     1      49.269   4.524  18.384  0.00  0.00    +0.000 N 
ATOM     31  C   UNL     1      50.674   4.582  18.812  0.00  0.00    +0.000 C 
ATOM     32  C   UNL     1      51.581   3.815  17.838  0.00  0.00    +0.000 C 
ATOM     33  O   UNL     1      51.111   2.478  17.623  0.00  0.00    +0.000 OA
ATOM     34  C   UNL     1      49.775   2.489  17.093  0.00  0.00    +0.000 C 
ATOM     35  C   UNL     1      48.807   3.171  18.065  0.00  0.00    +0.000 C 
ENDBRANCH  27  28
ENDBRANCH  25  27
ENDBRANCH   4  25
TORSDOF 6
ENDMDL
MODEL 8
REMARK VINA RESULT:    -6.826      4.139     10.039
REMARK INTER + INTRA:         -10.560
REMARK INTER:                  -9.204
REMARK INTRA:                  -1.355
REMARK UNBOUND:                -1.339
REMARK  Name = 
REMARK  7 active torsions:
REMARK  status: ('A' for Active; 'I' for Inactive)
REMARK    1  A    between atoms: C_1  and  C_2
REMARK    2  A    between atoms: C_2  and  N_3
REMARK    3  A    between atoms: C_2  and  C_16
REMARK    4  A    between atoms: C_4  and  C_6
REMARK    5  A    between atoms: C_19  and  N_20
REMARK    6  A    between atoms: N_20  and  C_21
REMARK    7  A    between atoms: C_21  and  C_22
REMARK                            x       y       z     vdW  Elec       q    Type
REMARK                         _______ _______ _______ _____ _____    ______ ____
ROOT
ATOM      1  C   UNL     1      49.058   4.436  16.909  0.00  0.00    +0.000 A 
ATOM      2  C   UNL     1      50.075   3.770  17.603  0.00  0.00    +0.000 A 
ATOM      3  C   UNL     1      51.131   4.479  18.176  0.00  0.00    +0.000 A 
ATOM      4  C   UNL     1      51.197   5.881  18.122  0.00  0.00    +0.000 A 
ATOM      5  C   UNL     1      50.209   6.537  17.361  0.00  0.00    +0.000 A 
ATOM      6 CL   UNL     1      50.207   8.259  17.187  0.00  0.00    +0.000 Cl
ATOM      7  C   UNL     1      49.154   5.827  16.770  0.00  0.00    +0.000 A 
ENDROOT
BRANCH   1   9
ATOM      8  C   UNL     1      46.967   3.177  17.521  0.00  0.00    +0.000 C 
ATOM      9  C   UNL     1      47.842   3.698  16.378  0.00  0.00    +0.000 C 
BRANCH   9  10
ATOM     10  N   UNL     1      47.100   4.579  15.492  0.00  0.00    +0.000 N 
ATOM     11  C   UNL     1      46.956   4.341  14.150  0.00  0.00    +0.000 C 
ATOM     12  O   UNL     1      47.440   3.354  13.602  0.00  0.00    +0.000 OA
ATOM     13  H   UNL     1      46.888   5.508  15.842  0.00  0.00    +0.000 HD
BRANCH  11  14
ATOM     14  C   UNL     1      46.140   5.306  13.402  0.00  0.00    +0.000 A 
ATOM     15  C   UNL     1      46.562   6.624  13.288  0.00  0.00    +0.000 A 
ATOM     16  S   UNL     1      45.503   7.605  12.381  0.00  0.00    +0.000 S 
ATOM     17  C   UNL     1      44.425   6.320  12.149  0.00  0.00    +0.000 A 
ATOM     18  N   UNL     1      43.257   6.499  11.471  0.00  0.00    +0.000 NA
ATOM     19  C   UNL     1      42.509   5.442  11.404  0.00  0.00    +0.000 A 
ATOM     20  N   UNL     1      42.834   4.222  11.933  0.00  0.00    +0.000 N 
ATOM     21  C   UNL     1      44.029   3.978  12.566  0.00  0.00    +0.000 A 
ATOM     22  O   UNL     1      44.337   2.848  12.928  0.00  0.00    +0.000 OA
ATOM     23  C   UNL     1      44.883   5.140  12.721  0.00  0.00    +0.000 A 
ATOM     24  H   UNL     1      42.218   3.432  11.820  0.00  0.00    +0.000 HD
ENDBRANCH  11  14
ENDBRANCH   9  10
ENDBRANCH   1   9
BRANCH   4  25
ATOM     25  N   UNL     1      52.256   6.563  18.757  0.00  0.00    +0.000 N 
ATOM     26  H   UNL     1      52.507   7.451  18.312  0.00  0.00    +0.000 HD
BRANCH  25  27
ATOM     27  C   UNL     1      52.167   6.660  20.226  0.00  0.00    +0.000 C 
BRANCH  27  28
ATOM     28  C   UNL     1      50.955   7.462  20.720  0.00  0.00    +0.000 C 
ATOM     29  O   UNL     1      50.902   8.688  20.600  0.00  0.00    +0.000 OA
ATOM     30  N   UNL     1      49.909   6.722  21.273  0.00  0.00    +0.000 N 
ATOM     31  C   UNL     1      49.918   5.274  21.527  0.00  0.00    +0.000 C 
ATOM     32  C   UNL     1      48.552   4.647  21.210  0.00  0.00    +0.000 C 
ATOM     33  O   UNL     1      47.489   5.332  21.884  0.00  0.00    +0.000 OA
ATOM     34  C   UNL     1      47.457   6.718  21.506  0.00  0.00    +0.000 C 
ATOM     35  C   UNL     1      48.768   7.417  21.876  0.00  0.00    +0.000 C 
ENDBRANCH  27  28
ENDBRANCH  25  27
ENDBRANCH   4  25
TORSDOF 6
ENDMDL
MODEL 9
REMARK VINA RESULT:    -6.773      4.123      7.999
REMARK INTER + INTRA:         -10.488
REMARK INTER:                  -8.700
REMARK INTRA:                  -1.788
REMARK UNBOUND:                -1.339
REMARK  Name = 
REMARK  7 active torsions:
REMARK  status: ('A' for Active; 'I' for Inactive)
REMARK    1  A    between atoms: C_1  and  C_2
REMARK    2  A    between atoms: C_2  and  N_3
REMARK    3  A    between atoms: C_2  and  C_16
REMARK    4  A    between atoms: C_4  and  C_6
REMARK    5  A    between atoms: C_19  and  N_20
REMARK    6  A    between atoms: N_20  and  C_21
REMARK    7  A    between atoms: C_21  and  C_22
REMARK                            x       y       z     vdW  Elec       q    Type
REMARK                         _______ _______ _______ _____ _____    ______ ____
ROOT
ATOM      1  C   UNL     1      49.201   8.609  15.253  0.00  0.00    +0.000 A 
ATOM      2  C   UNL     1      50.387   7.935  15.569  0.00  0.00    +0.000 A 
ATOM      3  C   UNL     1      50.641   7.512  16.874  0.00  0.00    +0.000 A 
ATOM      4  C   UNL     1      49.710   7.700  17.908  0.00  0.00    +0.000 A 
ATOM      5  C   UNL     1      48.553   8.441  17.599  0.00  0.00    +0.000 A 
ATOM      6 CL   UNL     1      47.351   8.773  18.799  0.00  0.00    +0.000 Cl
ATOM      7  C   UNL     1      48.300   8.883  16.291  0.00  0.00    +0.000 A 
ENDROOT
BRANCH   1   9
ATOM      8  C   UNL     1      50.112   9.169  12.975  0.00  0.00    +0.000 C 
ATOM      9  C   UNL     1      48.851   8.976  13.823  0.00  0.00    +0.000 C 
BRANCH   9  10
ATOM     10  N   UNL     1      47.982   7.951  13.267  0.00  0.00    +0.000 N 
ATOM     11  C   UNL     1      46.632   8.123  13.106  0.00  0.00    +0.000 C 
ATOM     12  O   UNL     1      46.061   9.166  13.413  0.00  0.00    +0.000 OA
ATOM     13  H   UNL     1      48.358   7.009  13.221  0.00  0.00    +0.000 HD
BRANCH  11  14
ATOM     14  C   UNL     1      45.903   7.006  12.491  0.00  0.00    +0.000 A 
ATOM     15  C   UNL     1      44.918   7.262  11.547  0.00  0.00    +0.000 A 
ATOM     16  S   UNL     1      44.180   5.853  10.930  0.00  0.00    +0.000 S 
ATOM     17  C   UNL     1      45.114   4.860  11.934  0.00  0.00    +0.000 A 
ATOM     18  N   UNL     1      44.946   3.508  11.935  0.00  0.00    +0.000 NA
ATOM     19  C   UNL     1      45.697   2.874  12.781  0.00  0.00    +0.000 A 
ATOM     20  N   UNL     1      46.613   3.469  13.606  0.00  0.00    +0.000 N 
ATOM     21  C   UNL     1      46.864   4.819  13.593  0.00  0.00    +0.000 A 
ATOM     22  O   UNL     1      47.769   5.304  14.263  0.00  0.00    +0.000 OA
ATOM     23  C   UNL     1      46.012   5.587  12.706  0.00  0.00    +0.000 A 
ATOM     24  H   UNL     1      47.187   2.914  14.222  0.00  0.00    +0.000 HD
ENDBRANCH  11  14
ENDBRANCH   9  10
ENDBRANCH   1   9
BRANCH   4  25
ATOM     25  N   UNL     1      49.985   7.212  19.204  0.00  0.00    +0.000 N 
ATOM     26  H   UNL     1      49.743   7.864  19.955  0.00  0.00    +0.000 HD
BRANCH  25  27
ATOM     27  C   UNL     1      49.547   5.830  19.476  0.00  0.00    +0.000 C 
BRANCH  27  28
ATOM     28  C   UNL     1      50.582   4.766  19.088  0.00  0.00    +0.000 C 
ATOM     29  O   UNL     1      51.625   4.619  19.730  0.00  0.00    +0.000 OA
ATOM     30  N   UNL     1      50.257   3.956  17.999  0.00  0.00    +0.000 N 
ATOM     31  C   UNL     1      49.080   4.110  17.132  0.00  0.00    +0.000 C 
ATOM     32  C   UNL     1      48.493   2.744  16.746  0.00  0.00    +0.000 C 
ATOM     33  O   UNL     1      49.493   1.879  16.193  0.00  0.00    +0.000 OA
ATOM     34  C   UNL     1      50.562   1.672  17.131  0.00  0.00    +0.000 C 
ATOM     35  C   UNL     1      51.240   2.997  17.489  0.00  0.00    +0.000 C 
ENDBRANCH  27  28
ENDBRANCH  25  27
ENDBRANCH   4  25
TORSDOF 6
ENDMDL
