MODEL 1
REMARK VINA RESULT:    -7.660      0.000      0.000
REMARK INTER + INTRA:         -12.307
REMARK INTER:                 -11.466
REMARK INTRA:                  -0.841
REMARK UNBOUND:                -0.841
REMARK  Name = 
REMARK  9 active torsions:
REMARK  status: ('A' for Active; 'I' for Inactive)
REMARK    1  A    between atoms: C_2  and  CA_13
REMARK    2  A    between atoms: N_3  and  CA_4
REMARK    3  A    between atoms: CA_4  and  C_5
REMARK    4  A    between atoms: CA_4  and  C_7
REMARK    5  A    between atoms: C_5  and  O_6
REMARK    6  A    between atoms: C_16  and  C_17
REMARK    7  A    between atoms: C_17  and  N_18
REMARK    8  A    between atoms: N_18  and  C_19
REMARK    9  A    between atoms: C_19  and  C_20
REMARK                            x       y       z     vdW  Elec       q    Type
REMARK                         _______ _______ _______ _____ _____    ______ ____
ROOT
ATOM      1  CA  UNL     1      47.304   5.712  14.044  0.00  0.00    +0.000 A 
ATOM      2  C   UNL     1      47.538   6.489  12.917  0.00  0.00    +0.000 A 
ATOM      3  C   UNL     1      46.691   6.338  11.826  0.00  0.00    +0.000 A 
ATOM      4  C   UNL     1      45.636   5.420  11.880  0.00  0.00    +0.000 A 
ATOM      5  C   UNL     1      45.486   4.692  13.061  0.00  0.00    +0.000 A 
ATOM      6  N   UNL     1      46.291   4.807  14.148  0.00  0.00    +0.000 NA
ENDROOT
BRANCH   1   8
ATOM      7  O   UNL     1      49.272   6.479  15.148  0.00  0.00    +0.000 OA
ATOM      8  C   UNL     1      48.207   5.872  15.230  0.00  0.00    +0.000 C 
ATOM      9  N   UNL     1      47.761   5.325  16.412  0.00  0.00    +0.000 N 
ATOM     10  H   UNL     1      46.814   4.955  16.403  0.00  0.00    +0.000 HD
BRANCH   9  11
ATOM     11  CA  UNL     1      48.546   5.381  17.651  0.00  0.00    +0.000 C 
BRANCH  11  12
ATOM     12  C   UNL     1      49.397   4.102  17.860  0.00  0.00    +0.000 C 
ATOM     13  C   UNL     1      50.891   4.377  17.608  0.00  0.00    +0.000 C 
ATOM     14  C   UNL     1      51.716   3.103  17.729  0.00  0.00    +0.000 C 
ATOM     15  O   UNL     1      51.216   2.098  16.848  0.00  0.00    +0.000 OA
ATOM     16  C   UNL     1      49.883   1.718  17.179  0.00  0.00    +0.000 C 
ATOM     17  C   UNL     1      48.930   2.898  17.027  0.00  0.00    +0.000 C 
ENDBRANCH  11  12
BRANCH  11  18
ATOM     18  C   UNL     1      47.654   5.696  18.873  0.00  0.00    +0.000 C 
BRANCH  18  19
ATOM     19  O   UNL     1      46.268   5.461  18.626  0.00  0.00    +0.000 OA
ATOM     20  H   UNL     1      45.807   5.439  19.489  0.00  0.00    +0.000 HD
ENDBRANCH  18  19
ENDBRANCH  11  18
ENDBRANCH   9  11
ENDBRANCH   1   8
BRANCH   4  21
ATOM     21  C   UNL     1      44.692   5.255  10.717  0.00  0.00    +0.000 C 
BRANCH  21  22
ATOM     22  N   UNL     1      45.403   5.299   9.446  0.00  0.00    +0.000 NA
ATOM     23  H   UNL     1      46.382   5.031   9.561  0.00  0.00    +0.000 HD
BRANCH  22  24
ATOM     24  C   UNL     1      44.810   4.397   8.446  0.00  0.00    +0.000 C 
BRANCH  24  25
ATOM     25  C   UNL     1      45.803   3.360   7.934  0.00  0.00    +0.000 A 
ATOM     26  N   UNL     1      46.861   3.832   7.207  0.00  0.00    +0.000 NA
ATOM     27  C   UNL     1      47.757   2.934   6.739  0.00  0.00    +0.000 A 
ATOM     28  C   UNL     1      47.678   1.573   6.983  0.00  0.00    +0.000 A 
ATOM     29  C   UNL     1      46.623   1.107   7.761  0.00  0.00    +0.000 A 
ATOM     30  C   UNL     1      45.675   2.003   8.253  0.00  0.00    +0.000 A 
ATOM     31 CL   UNL     1      44.407   1.383   9.242  0.00  0.00    +0.000 Cl
ENDBRANCH  24  25
ENDBRANCH  22  24
ENDBRANCH  21  22
ENDBRANCH   4  21
TORSDOF 9
ENDMDL
MODEL 2
REMARK VINA RESULT:    -7.640      1.516      2.942
REMARK INTER + INTRA:         -12.278
REMARK INTER:                 -11.328
REMARK INTRA:                  -0.950
REMARK UNBOUND:                -0.841
REMARK  Name = 
REMARK  9 active torsions:
REMARK  status: ('A' for Active; 'I' for Inactive)
REMARK    1  A    between atoms: C_2  and  CA_13
REMARK    2  A    between atoms: N_3  and  CA_4
REMARK    3  A    between atoms: CA_4  and  C_5
REMARK    4  A    between atoms: CA_4  and  C_7
REMARK    5  A    between atoms: C_5  and  O_6
REMARK    6  A    between atoms: C_16  and  C_17
REMARK    7  A    between atoms: C_17  and  N_18
REMARK    8  A    between atoms: N_18  and  C_19
REMARK    9  A    between atoms: C_19  and  C_20
REMARK                            x       y       z     vdW  Elec       q    Type
REMARK                         _______ _______ _______ _____ _____    ______ ____
ROOT
ATOM      1  CA  UNL     1      46.826   4.712  14.098  0.00  0.00    +0.000 A 
ATOM      2  C   UNL     1      47.220   5.921  13.539  0.00  0.00    +0.000 A 
ATOM      3  C   UNL     1      46.639   6.311  12.339  0.00  0.00    +0.000 A 
ATOM      4  C   UNL     1      45.687   5.493  11.723  0.00  0.00    +0.000 A 
ATOM      5  C   UNL     1      45.358   4.300  12.369  0.00  0.00    +0.000 A 
ATOM      6  N   UNL     1      45.902   3.881  13.540  0.00  0.00    +0.000 NA
ENDROOT
BRANCH   1   8
ATOM      7  O   UNL     1      47.700   3.106  15.626  0.00  0.00    +0.000 OA
ATOM      8  C   UNL     1      47.439   4.284  15.397  0.00  0.00    +0.000 C 
ATOM      9  N   UNL     1      47.714   5.288  16.300  0.00  0.00    +0.000 N 
ATOM     10  H   UNL     1      47.576   6.238  15.965  0.00  0.00    +0.000 HD
BRANCH   9  11
ATOM     11  CA  UNL     1      48.293   5.019  17.621  0.00  0.00    +0.000 C 
BRANCH  11  12
ATOM     12  C   UNL     1      47.703   5.946  18.715  0.00  0.00    +0.000 C 
ATOM     13  C   UNL     1      48.261   7.377  18.596  0.00  0.00    +0.000 C 
ATOM     14  C   UNL     1      47.750   8.265  19.722  0.00  0.00    +0.000 C 
ATOM     15  O   UNL     1      48.057   7.690  20.991  0.00  0.00    +0.000 OA
ATOM     16  C   UNL     1      47.409   6.434  21.177  0.00  0.00    +0.000 C 
ATOM     17  C   UNL     1      47.891   5.419  20.147  0.00  0.00    +0.000 C 
ENDBRANCH  11  12
BRANCH  11  18
ATOM     18  C   UNL     1      49.837   5.068  17.583  0.00  0.00    +0.000 C 
BRANCH  18  19
ATOM     19  O   UNL     1      50.420   3.881  17.047  0.00  0.00    +0.000 OA
ATOM     20  H   UNL     1      50.404   3.195  17.745  0.00  0.00    +0.000 HD
ENDBRANCH  18  19
ENDBRANCH  11  18
ENDBRANCH   9  11
ENDBRANCH   1   8
BRANCH   4  21
ATOM     21  C   UNL     1      45.028   5.907  10.431  0.00  0.00    +0.000 C 
BRANCH  21  22
ATOM     22  N   UNL     1      45.791   5.449   9.277  0.00  0.00    +0.000 NA
ATOM     23  H   UNL     1      46.660   4.994   9.565  0.00  0.00    +0.000 HD
BRANCH  22  24
ATOM     24  C   UNL     1      45.036   4.486   8.460  0.00  0.00    +0.000 C 
BRANCH  24  25
ATOM     25  C   UNL     1      45.897   3.322   7.985  0.00  0.00    +0.000 A 
ATOM     26  N   UNL     1      46.962   3.634   7.185  0.00  0.00    +0.000 NA
ATOM     27  C   UNL     1      47.743   2.621   6.748  0.00  0.00    +0.000 A 
ATOM     28  C   UNL     1      47.542   1.294   7.092  0.00  0.00    +0.000 A 
ATOM     29  C   UNL     1      46.484   0.991   7.942  0.00  0.00    +0.000 A 
ATOM     30  C   UNL     1      45.652   2.010   8.406  0.00  0.00    +0.000 A 
ATOM     31 CL   UNL     1      44.376   1.589   9.485  0.00  0.00    +0.000 Cl
ENDBRANCH  24  25
ENDBRANCH  22  24
ENDBRANCH  21  22
ENDBRANCH   4  21
TORSDOF 9
ENDMDL
MODEL 3
REMARK VINA RESULT:    -7.287      2.387      3.073
REMARK INTER + INTRA:         -11.749
REMARK INTER:                 -10.745
REMARK INTRA:                  -1.004
REMARK UNBOUND:                -0.841
REMARK  Name = 
REMARK  9 active torsions:
REMARK  status: ('A' for Active; 'I' for Inactive)
REMARK    1  A    between atoms: C_2  and  CA_13
REMARK    2  A    between atoms: N_3  and  CA_4
REMARK    3  A    between atoms: CA_4  and  C_5
REMARK    4  A    between atoms: CA_4  and  C_7
REMARK    5  A    between atoms: C_5  and  O_6
REMARK    6  A    between atoms: C_16  and  C_17
REMARK    7  A    between atoms: C_17  and  N_18
REMARK    8  A    between atoms: N_18  and  C_19
REMARK    9  A    between atoms: C_19  and  C_20
REMARK                            x       y       z     vdW  Elec       q    Type
REMARK                         _______ _______ _______ _____ _____    ______ ____
ROOT
ATOM      1  CA  UNL     1      47.419   5.901  13.638  0.00  0.00    +0.000 A 
ATOM      2  C   UNL     1      46.659   6.622  12.725  0.00  0.00    +0.000 A 
ATOM      3  C   UNL     1      45.675   5.949  12.011  0.00  0.00    +0.000 A 
ATOM      4  C   UNL     1      45.473   4.580  12.216  0.00  0.00    +0.000 A 
ATOM      5  C   UNL     1      46.288   3.950  13.159  0.00  0.00    +0.000 A 
ATOM      6  N   UNL     1      47.260   4.569  13.876  0.00  0.00    +0.000 NA
ENDROOT
BRANCH   1   8
ATOM      7  O   UNL     1      49.530   6.977  13.897  0.00  0.00    +0.000 OA
ATOM      8  C   UNL     1      48.477   6.618  14.420  0.00  0.00    +0.000 C 
ATOM      9  N   UNL     1      48.190   6.871  15.743  0.00  0.00    +0.000 N 
ATOM     10  H   UNL     1      47.245   6.645  16.044  0.00  0.00    +0.000 HD
BRANCH   9  11
ATOM     11  CA  UNL     1      49.138   7.542  16.639  0.00  0.00    +0.000 C 
BRANCH  11  12
ATOM     12  C   UNL     1      49.202   6.867  18.033  0.00  0.00    +0.000 C 
ATOM     13  C   UNL     1      48.179   5.722  18.147  0.00  0.00    +0.000 C 
ATOM     14  C   UNL     1      48.181   5.116  19.544  0.00  0.00    +0.000 C 
ATOM     15  O   UNL     1      47.948   6.123  20.527  0.00  0.00    +0.000 OA
ATOM     16  C   UNL     1      48.982   7.104  20.539  0.00  0.00    +0.000 C 
ATOM     17  C   UNL     1      49.041   7.845  19.208  0.00  0.00    +0.000 C 
ENDBRANCH  11  12
BRANCH  11  18
ATOM     18  C   UNL     1      48.847   9.058  16.737  0.00  0.00    +0.000 C 
BRANCH  18  19
ATOM     19  O   UNL     1      47.548   9.408  16.261  0.00  0.00    +0.000 OA
ATOM     20  H   UNL     1      47.207  10.134  16.822  0.00  0.00    +0.000 HD
ENDBRANCH  18  19
ENDBRANCH  11  18
ENDBRANCH   9  11
ENDBRANCH   1   8
BRANCH   4  21
ATOM     21  C   UNL     1      44.398   3.834  11.468  0.00  0.00    +0.000 C 
BRANCH  21  22
ATOM     22  N   UNL     1      44.890   2.558  10.965  0.00  0.00    +0.000 NA
ATOM     23  H   UNL     1      44.573   1.783  11.552  0.00  0.00    +0.000 HD
BRANCH  22  24
ATOM     24  C   UNL     1      44.434   2.289   9.592  0.00  0.00    +0.000 C 
BRANCH  24  25
ATOM     25  C   UNL     1      45.591   2.123   8.616  0.00  0.00    +0.000 A 
ATOM     26  N   UNL     1      45.951   0.841   8.304  0.00  0.00    +0.000 NA
ATOM     27  C   UNL     1      46.976   0.663   7.441  0.00  0.00    +0.000 A 
ATOM     28  C   UNL     1      47.657   1.706   6.833  0.00  0.00    +0.000 A 
ATOM     29  C   UNL     1      47.255   3.006   7.121  0.00  0.00    +0.000 A 
ATOM     30  C   UNL     1      46.207   3.227   8.014  0.00  0.00    +0.000 A 
ATOM     31 CL   UNL     1      45.722   4.854   8.312  0.00  0.00    +0.000 Cl
ENDBRANCH  24  25
ENDBRANCH  22  24
ENDBRANCH  21  22
ENDBRANCH   4  21
TORSDOF 9
ENDMDL
MODEL 4
REMARK VINA RESULT:    -6.775      1.661      2.903
REMARK INTER + INTRA:         -10.983
REMARK INTER:                 -10.016
REMARK INTRA:                  -0.966
REMARK UNBOUND:                -0.841
REMARK  Name = 
REMARK  9 active torsions:
REMARK  status: ('A' for Active; 'I' for Inactive)
REMARK    1  A    between atoms: C_2  and  CA_13
REMARK    2  A    between atoms: N_3  and  CA_4
REMARK    3  A    between atoms: CA_4  and  C_5
REMARK    4  A    between atoms: CA_4  and  C_7
REMARK    5  A    between atoms: C_5  and  O_6
REMARK    6  A    between atoms: C_16  and  C_17
REMARK    7  A    between atoms: C_17  and  N_18
REMARK    8  A    between atoms: N_18  and  C_19
REMARK    9  A    between atoms: C_19  and  C_20
REMARK                            x       y       z     vdW  Elec       q    Type
REMARK                         _______ _______ _______ _____ _____    ______ ____
ROOT
ATOM      1  CA  UNL     1      46.970   4.651  14.924  0.00  0.00    +0.000 A 
ATOM      2  C   UNL     1      45.841   4.195  14.255  0.00  0.00    +0.000 A 
ATOM      3  C   UNL     1      45.449   4.858  13.099  0.00  0.00    +0.000 A 
ATOM      4  C   UNL     1      46.181   5.957  12.639  0.00  0.00    +0.000 A 
ATOM      5  C   UNL     1      47.301   6.333  13.383  0.00  0.00    +0.000 A 
ATOM      6  N   UNL     1      47.718   5.714  14.517  0.00  0.00    +0.000 NA
ENDROOT
BRANCH   1   8
ATOM      7  O   UNL     1      46.601   3.368  16.899  0.00  0.00    +0.000 OA
ATOM      8  C   UNL     1      47.407   3.938  16.168  0.00  0.00    +0.000 C 
ATOM      9  N   UNL     1      48.760   3.940  16.426  0.00  0.00    +0.000 N 
ATOM     10  H   UNL     1      49.352   4.331  15.697  0.00  0.00    +0.000 HD
BRANCH   9  11
ATOM     11  CA  UNL     1      49.335   3.304  17.617  0.00  0.00    +0.000 C 
BRANCH  11  12
ATOM     12  C   UNL     1      50.015   4.333  18.557  0.00  0.00    +0.000 C 
ATOM     13  C   UNL     1      49.121   4.660  19.768  0.00  0.00    +0.000 C 
ATOM     14  C   UNL     1      49.750   5.735  20.644  0.00  0.00    +0.000 C 
ATOM     15  O   UNL     1      50.036   6.902  19.877  0.00  0.00    +0.000 OA
ATOM     16  C   UNL     1      50.992   6.644  18.852  0.00  0.00    +0.000 C 
ATOM     17  C   UNL     1      50.453   5.627  17.853  0.00  0.00    +0.000 C 
ENDBRANCH  11  12
BRANCH  11  18
ATOM     18  C   UNL     1      50.282   2.143  17.238  0.00  0.00    +0.000 C 
BRANCH  18  19
ATOM     19  O   UNL     1      49.981   1.571  15.965  0.00  0.00    +0.000 OA
ATOM     20  H   UNL     1      49.100   1.148  16.025  0.00  0.00    +0.000 HD
ENDBRANCH  18  19
ENDBRANCH  11  18
ENDBRANCH   9  11
ENDBRANCH   1   8
BRANCH   4  21
ATOM     21  C   UNL     1      45.786   6.678  11.375  0.00  0.00    +0.000 C 
BRANCH  21  22
ATOM     22  N   UNL     1      46.276   5.983  10.192  0.00  0.00    +0.000 NA
ATOM     23  H   UNL     1      46.965   5.270  10.442  0.00  0.00    +0.000 HD
BRANCH  22  24
ATOM     24  C   UNL     1      45.194   5.314   9.453  0.00  0.00    +0.000 C 
BRANCH  24  25
ATOM     25  C   UNL     1      45.673   4.071   8.715  0.00  0.00    +0.000 A 
ATOM     26  N   UNL     1      46.557   4.269   7.690  0.00  0.00    +0.000 NA
ATOM     27  C   UNL     1      46.999   3.183   7.016  0.00  0.00    +0.000 A 
ATOM     28  C   UNL     1      46.629   1.885   7.328  0.00  0.00    +0.000 A 
ATOM     29  C   UNL     1      45.764   1.689   8.399  0.00  0.00    +0.000 A 
ATOM     30  C   UNL     1      45.283   2.787   9.112  0.00  0.00    +0.000 A 
ATOM     31 CL   UNL     1      44.242   2.491  10.454  0.00  0.00    +0.000 Cl
ENDBRANCH  24  25
ENDBRANCH  22  24
ENDBRANCH  21  22
ENDBRANCH   4  21
TORSDOF 9
ENDMDL
MODEL 5
REMARK VINA RESULT:    -6.593      2.021      2.889
REMARK INTER + INTRA:         -10.711
REMARK INTER:                 -10.029
REMARK INTRA:                  -0.681
REMARK UNBOUND:                -0.841
REMARK  Name = 
REMARK  9 active torsions:
REMARK  status: ('A' for Active; 'I' for Inactive)
REMARK    1  A    between atoms: C_2  and  CA_13
REMARK    2  A    between atoms: N_3  and  CA_4
REMARK    3  A    between atoms: CA_4  and  C_5
REMARK    4  A    between atoms: CA_4  and  C_7
REMARK    5  A    between atoms: C_5  and  O_6
REMARK    6  A    between atoms: C_16  and  C_17
REMARK    7  A    between atoms: C_17  and  N_18
REMARK    8  A    between atoms: N_18  and  C_19
REMARK    9  A    between atoms: C_19  and  C_20
REMARK                            x       y       z     vdW  Elec       q    Type
REMARK                         _______ _______ _______ _____ _____    ______ ____
ROOT
ATOM      1  CA  UNL     1      47.935   6.624  13.790  0.00  0.00    +0.000 A 
ATOM      2  C   UNL     1      47.699   7.458  12.705  0.00  0.00    +0.000 A 
ATOM      3  C   UNL     1      46.808   7.031  11.728  0.00  0.00    +0.000 A 
ATOM      4  C   UNL     1      46.178   5.788  11.850  0.00  0.00    +0.000 A 
ATOM      5  C   UNL     1      46.482   5.028  12.981  0.00  0.00    +0.000 A 
ATOM      6  N   UNL     1      47.347   5.407  13.956  0.00  0.00    +0.000 NA
ENDROOT
BRANCH   1   8
ATOM      7  O   UNL     1      50.100   6.909  14.745  0.00  0.00    +0.000 OA
ATOM      8  C   UNL     1      48.888   7.078  14.854  0.00  0.00    +0.000 C 
ATOM      9  N   UNL     1      48.328   7.714  15.941  0.00  0.00    +0.000 N 
ATOM     10  H   UNL     1      47.334   7.914  15.876  0.00  0.00    +0.000 HD
BRANCH   9  11
ATOM     11  CA  UNL     1      49.132   8.192  17.072  0.00  0.00    +0.000 C 
BRANCH  11  12
ATOM     12  C   UNL     1      48.921   7.331  18.343  0.00  0.00    +0.000 C 
ATOM     13  C   UNL     1      48.272   5.977  18.000  0.00  0.00    +0.000 C 
ATOM     14  C   UNL     1      47.985   5.167  19.257  0.00  0.00    +0.000 C 
ATOM     15  O   UNL     1      47.178   5.918  20.162  0.00  0.00    +0.000 OA
ATOM     16  C   UNL     1      47.841   7.095  20.615  0.00  0.00    +0.000 C 
ATOM     17  C   UNL     1      48.125   8.038  19.451  0.00  0.00    +0.000 C 
ENDBRANCH  11  12
BRANCH  11  18
ATOM     18  C   UNL     1      48.894   9.696  17.338  0.00  0.00    +0.000 C 
BRANCH  18  19
ATOM     19  O   UNL     1      47.753  10.210  16.652  0.00  0.00    +0.000 OA
ATOM     20  H   UNL     1      47.136  10.572  17.319  0.00  0.00    +0.000 HD
ENDBRANCH  18  19
ENDBRANCH  11  18
ENDBRANCH   9  11
ENDBRANCH   1   8
BRANCH   4  21
ATOM     21  C   UNL     1      45.192   5.313  10.813  0.00  0.00    +0.000 C 
BRANCH  21  22
ATOM     22  N   UNL     1      45.765   5.364   9.474  0.00  0.00    +0.000 NA
ATOM     23  H   UNL     1      46.745   5.072   9.480  0.00  0.00    +0.000 HD
BRANCH  22  24
ATOM     24  C   UNL     1      45.048   4.493   8.530  0.00  0.00    +0.000 C 
BRANCH  24  25
ATOM     25  C   UNL     1      45.918   3.356   8.008  0.00  0.00    +0.000 A 
ATOM     26  N   UNL     1      46.990   3.709   7.235  0.00  0.00    +0.000 NA
ATOM     27  C   UNL     1      47.779   2.721   6.758  0.00  0.00    +0.000 A 
ATOM     28  C   UNL     1      47.579   1.378   7.035  0.00  0.00    +0.000 A 
ATOM     29  C   UNL     1      46.513   1.032   7.858  0.00  0.00    +0.000 A 
ATOM     30  C   UNL     1      45.673   2.024   8.362  0.00  0.00    +0.000 A 
ATOM     31 CL   UNL     1      44.387   1.548   9.407  0.00  0.00    +0.000 Cl
ENDBRANCH  24  25
ENDBRANCH  22  24
ENDBRANCH  21  22
ENDBRANCH   4  21
TORSDOF 9
ENDMDL
MODEL 6
REMARK VINA RESULT:    -6.567      2.263      3.723
REMARK INTER + INTRA:         -10.671
REMARK INTER:                  -9.872
REMARK INTRA:                  -0.800
REMARK UNBOUND:                -0.841
REMARK  Name = 
REMARK  9 active torsions:
REMARK  status: ('A' for Active; 'I' for Inactive)
REMARK    1  A    between atoms: C_2  and  CA_13
REMARK    2  A    between atoms: N_3  and  CA_4
REMARK    3  A    between atoms: CA_4  and  C_5
REMARK    4  A    between atoms: CA_4  and  C_7
REMARK    5  A    between atoms: C_5  and  O_6
REMARK    6  A    between atoms: C_16  and  C_17
REMARK    7  A    between atoms: C_17  and  N_18
REMARK    8  A    between atoms: N_18  and  C_19
REMARK    9  A    between atoms: C_19  and  C_20
REMARK                            x       y       z     vdW  Elec       q    Type
REMARK                         _______ _______ _______ _____ _____    ______ ____
ROOT
ATOM      1  CA  UNL     1      47.098   5.480  14.060  0.00  0.00    +0.000 A 
ATOM      2  C   UNL     1      47.241   6.284  12.936  0.00  0.00    +0.000 A 
ATOM      3  C   UNL     1      46.417   6.040  11.844  0.00  0.00    +0.000 A 
ATOM      4  C   UNL     1      45.478   5.005  11.891  0.00  0.00    +0.000 A 
ATOM      5  C   UNL     1      45.413   4.258  13.069  0.00  0.00    +0.000 A 
ATOM      6  N   UNL     1      46.198   4.461  14.157  0.00  0.00    +0.000 NA
ENDROOT
BRANCH   1   8
ATOM      7  O   UNL     1      48.477   4.817  15.887  0.00  0.00    +0.000 OA
ATOM      8  C   UNL     1      47.975   5.738  15.247  0.00  0.00    +0.000 C 
ATOM      9  N   UNL     1      48.202   7.060  15.559  0.00  0.00    +0.000 N 
ATOM     10  H   UNL     1      47.844   7.743  14.896  0.00  0.00    +0.000 HD
BRANCH   9  11
ATOM     11  CA  UNL     1      49.020   7.468  16.708  0.00  0.00    +0.000 C 
BRANCH  11  12
ATOM     12  C   UNL     1      48.416   8.688  17.450  0.00  0.00    +0.000 C 
ATOM     13  C   UNL     1      49.442   9.829  17.575  0.00  0.00    +0.000 C 
ATOM     14  C   UNL     1      48.879  10.993  18.380  0.00  0.00    +0.000 C 
ATOM     15  O   UNL     1      48.436  10.547  19.661  0.00  0.00    +0.000 OA
ATOM     16  C   UNL     1      47.369   9.608  19.557  0.00  0.00    +0.000 C 
ATOM     17  C   UNL     1      47.825   8.350  18.828  0.00  0.00    +0.000 C 
ENDBRANCH  11  12
BRANCH  11  18
ATOM     18  C   UNL     1      50.492   7.702  16.299  0.00  0.00    +0.000 C 
BRANCH  18  19
ATOM     19  O   UNL     1      50.964   6.750  15.346  0.00  0.00    +0.000 OA
ATOM     20  H   UNL     1      50.311   6.023  15.296  0.00  0.00    +0.000 HD
ENDBRANCH  18  19
ENDBRANCH  11  18
ENDBRANCH   9  11
ENDBRANCH   1   8
BRANCH   4  21
ATOM     21  C   UNL     1      44.560   4.737  10.726  0.00  0.00    +0.000 C 
BRANCH  21  22
ATOM     22  N   UNL     1      45.166   5.152   9.467  0.00  0.00    +0.000 NA
ATOM     23  H   UNL     1      46.185   5.078   9.505  0.00  0.00    +0.000 HD
BRANCH  22  24
ATOM     24  C   UNL     1      44.704   4.337   8.333  0.00  0.00    +0.000 C 
BRANCH  24  25
ATOM     25  C   UNL     1      45.757   3.341   7.863  0.00  0.00    +0.000 A 
ATOM     26  N   UNL     1      46.789   3.845   7.121  0.00  0.00    +0.000 NA
ATOM     27  C   UNL     1      47.738   2.984   6.689  0.00  0.00    +0.000 A 
ATOM     28  C   UNL     1      47.737   1.630   6.985  0.00  0.00    +0.000 A 
ATOM     29  C   UNL     1      46.707   1.134   7.776  0.00  0.00    +0.000 A 
ATOM     30  C   UNL     1      45.706   1.992   8.232  0.00  0.00    +0.000 A 
ATOM     31 CL   UNL     1      44.471   1.337   9.241  0.00  0.00    +0.000 Cl
ENDBRANCH  24  25
ENDBRANCH  22  24
ENDBRANCH  21  22
ENDBRANCH   4  21
TORSDOF 9
ENDMDL
MODEL 7
REMARK VINA RESULT:    -6.503      3.861      9.441
REMARK INTER + INTRA:         -10.576
REMARK INTER:                  -9.614
REMARK INTRA:                  -0.961
REMARK UNBOUND:                -0.841
REMARK  Name = 
REMARK  9 active torsions:
REMARK  status: ('A' for Active; 'I' for Inactive)
REMARK    1  A    between atoms: C_2  and  CA_13
REMARK    2  A    between atoms: N_3  and  CA_4
REMARK    3  A    between atoms: CA_4  and  C_5
REMARK    4  A    between atoms: CA_4  and  C_7
REMARK    5  A    between atoms: C_5  and  O_6
REMARK    6  A    between atoms: C_16  and  C_17
REMARK    7  A    between atoms: C_17  and  N_18
REMARK    8  A    between atoms: N_18  and  C_19
REMARK    9  A    between atoms: C_19  and  C_20
REMARK                            x       y       z     vdW  Elec       q    Type
REMARK                         _______ _______ _______ _____ _____    ______ ____
ROOT
ATOM      1  CA  UNL     1      47.536   5.246  14.699  0.00  0.00    +0.000 A 
ATOM      2  C   UNL     1      47.878   6.441  14.079  0.00  0.00    +0.000 A 
ATOM      3  C   UNL     1      48.703   7.325  14.763  0.00  0.00    +0.000 A 
ATOM      4  C   UNL     1      49.164   7.004  16.044  0.00  0.00    +0.000 A 
ATOM      5  C   UNL     1      48.765   5.776  16.575  0.00  0.00    +0.000 A 
ATOM      6  N   UNL     1      47.960   4.885  15.942  0.00  0.00    +0.000 NA
ENDROOT
BRANCH   1   8
ATOM      7  O   UNL     1      46.952   3.094  13.857  0.00  0.00    +0.000 OA
ATOM      8  C   UNL     1      46.653   4.281  13.967  0.00  0.00    +0.000 C 
ATOM      9  N   UNL     1      45.484   4.796  13.452  0.00  0.00    +0.000 N 
ATOM     10  H   UNL     1      45.272   5.758  13.704  0.00  0.00    +0.000 HD
BRANCH   9  11
ATOM     11  CA  UNL     1      44.532   3.978  12.691  0.00  0.00    +0.000 C 
BRANCH  11  12
ATOM     12  C   UNL     1      44.997   3.750  11.230  0.00  0.00    +0.000 C 
ATOM     13  C   UNL     1      45.214   5.086  10.497  0.00  0.00    +0.000 C 
ATOM     14  C   UNL     1      45.586   4.862   9.037  0.00  0.00    +0.000 C 
ATOM     15  O   UNL     1      44.598   4.065   8.387  0.00  0.00    +0.000 OA
ATOM     16  C   UNL     1      44.505   2.762   8.957  0.00  0.00    +0.000 C 
ATOM     17  C   UNL     1      44.065   2.840  10.414  0.00  0.00    +0.000 C 
ENDBRANCH  11  12
BRANCH  11  18
ATOM     18  C   UNL     1      43.102   4.560  12.766  0.00  0.00    +0.000 C 
BRANCH  18  19
ATOM     19  O   UNL     1      43.056   5.853  13.366  0.00  0.00    +0.000 OA
ATOM     20  H   UNL     1      42.123   6.055  13.579  0.00  0.00    +0.000 HD
ENDBRANCH  18  19
ENDBRANCH  11  18
ENDBRANCH   9  11
ENDBRANCH   1   8
BRANCH   4  21
ATOM     21  C   UNL     1      50.077   7.938  16.796  0.00  0.00    +0.000 C 
BRANCH  21  22
ATOM     22  N   UNL     1      49.453   8.417  18.023  0.00  0.00    +0.000 NA
ATOM     23  H   UNL     1      48.486   8.093  18.095  0.00  0.00    +0.000 HD
BRANCH  22  24
ATOM     24  C   UNL     1      50.166   7.958  19.225  0.00  0.00    +0.000 C 
BRANCH  24  25
ATOM     25  C   UNL     1      49.317   7.034  20.090  0.00  0.00    +0.000 A 
ATOM     26  N   UNL     1      48.191   7.577  20.643  0.00  0.00    +0.000 NA
ATOM     27  C   UNL     1      47.419   6.780  21.416  0.00  0.00    +0.000 A 
ATOM     28  C   UNL     1      47.691   5.442  21.651  0.00  0.00    +0.000 A 
ATOM     29  C   UNL     1      48.815   4.887  21.048  0.00  0.00    +0.000 A 
ATOM     30  C   UNL     1      49.638   5.681  20.251  0.00  0.00    +0.000 A 
ATOM     31 CL   UNL     1      51.000   4.940  19.497  0.00  0.00    +0.000 Cl
ENDBRANCH  24  25
ENDBRANCH  22  24
ENDBRANCH  21  22
ENDBRANCH   4  21
TORSDOF 9
ENDMDL
MODEL 8
REMARK VINA RESULT:    -6.417      3.697      8.887
REMARK INTER + INTRA:         -10.448
REMARK INTER:                  -9.351
REMARK INTRA:                  -1.097
REMARK UNBOUND:                -0.841
REMARK  Name = 
REMARK  9 active torsions:
REMARK  status: ('A' for Active; 'I' for Inactive)
REMARK    1  A    between atoms: C_2  and  CA_13
REMARK    2  A    between atoms: N_3  and  CA_4
REMARK    3  A    between atoms: CA_4  and  C_5
REMARK    4  A    between atoms: CA_4  and  C_7
REMARK    5  A    between atoms: C_5  and  O_6
REMARK    6  A    between atoms: C_16  and  C_17
REMARK    7  A    between atoms: C_17  and  N_18
REMARK    8  A    between atoms: N_18  and  C_19
REMARK    9  A    between atoms: C_19  and  C_20
REMARK                            x       y       z     vdW  Elec       q    Type
REMARK                         _______ _______ _______ _____ _____    ______ ____
ROOT
ATOM      1  CA  UNL     1      47.004   5.480  13.486  0.00  0.00    +0.000 A 
ATOM      2  C   UNL     1      47.593   6.425  12.657  0.00  0.00    +0.000 A 
ATOM      3  C   UNL     1      48.664   7.158  13.151  0.00  0.00    +0.000 A 
ATOM      4  C   UNL     1      49.121   6.939  14.455  0.00  0.00    +0.000 A 
ATOM      5  C   UNL     1      48.461   5.963  15.205  0.00  0.00    +0.000 A 
ATOM      6  N   UNL     1      47.411   5.227  14.761  0.00  0.00    +0.000 NA
ENDROOT
BRANCH   1   8
ATOM      7  O   UNL     1      45.710   3.492  13.251  0.00  0.00    +0.000 OA
ATOM      8  C   UNL     1      45.852   4.677  12.961  0.00  0.00    +0.000 C 
ATOM      9  N   UNL     1      44.956   5.351  12.160  0.00  0.00    +0.000 N 
ATOM     10  H   UNL     1      45.095   6.355  12.083  0.00  0.00    +0.000 HD
BRANCH   9  11
ATOM     11  CA  UNL     1      43.794   4.691  11.553  0.00  0.00    +0.000 C 
BRANCH  11  12
ATOM     12  C   UNL     1      44.111   4.129  10.144  0.00  0.00    +0.000 C 
ATOM     13  C   UNL     1      44.300   2.602  10.181  0.00  0.00    +0.000 C 
ATOM     14  C   UNL     1      44.698   2.060   8.814  0.00  0.00    +0.000 C 
ATOM     15  O   UNL     1      45.870   2.720   8.337  0.00  0.00    +0.000 OA
ATOM     16  C   UNL     1      45.653   4.114   8.143  0.00  0.00    +0.000 C 
ATOM     17  C   UNL     1      45.315   4.799   9.462  0.00  0.00    +0.000 C 
ENDBRANCH  11  12
BRANCH  11  18
ATOM     18  C   UNL     1      42.557   5.619  11.548  0.00  0.00    +0.000 C 
BRANCH  18  19
ATOM     19  O   UNL     1      42.851   6.937  11.089  0.00  0.00    +0.000 OA
ATOM     20  H   UNL     1      42.012   7.353  10.806  0.00  0.00    +0.000 HD
ENDBRANCH  18  19
ENDBRANCH  11  18
ENDBRANCH   9  11
ENDBRANCH   1   8
BRANCH   4  21
ATOM     21  C   UNL     1      50.295   7.708  15.006  0.00  0.00    +0.000 C 
BRANCH  21  22
ATOM     22  N   UNL     1      49.934   8.430  16.218  0.00  0.00    +0.000 NA
ATOM     23  H   UNL     1      48.956   8.268  16.468  0.00  0.00    +0.000 HD
BRANCH  22  24
ATOM     24  C   UNL     1      50.758   8.029  17.370  0.00  0.00    +0.000 C 
BRANCH  24  25
ATOM     25  C   UNL     1      50.215   6.793  18.074  0.00  0.00    +0.000 A 
ATOM     26  N   UNL     1      49.014   6.930  18.714  0.00  0.00    +0.000 NA
ATOM     27  C   UNL     1      48.508   5.848  19.349  0.00  0.00    +0.000 A 
ATOM     28  C   UNL     1      49.123   4.607  19.357  0.00  0.00    +0.000 A 
ATOM     29  C   UNL     1      50.321   4.465  18.667  0.00  0.00    +0.000 A 
ATOM     30  C   UNL     1      50.877   5.561  18.008  0.00  0.00    +0.000 A 
ATOM     31 CL   UNL     1      52.345   5.327  17.135  0.00  0.00    +0.000 Cl
ENDBRANCH  24  25
ENDBRANCH  22  24
ENDBRANCH  21  22
ENDBRANCH   4  21
TORSDOF 9
ENDMDL
MODEL 9
REMARK VINA RESULT:    -6.310      4.943      8.188
REMARK INTER + INTRA:         -10.287
REMARK INTER:                  -9.104
REMARK INTRA:                  -1.183
REMARK UNBOUND:                -0.841
REMARK  Name = 
REMARK  9 active torsions:
REMARK  status: ('A' for Active; 'I' for Inactive)
REMARK    1  A    between atoms: C_2  and  CA_13
REMARK    2  A    between atoms: N_3  and  CA_4
REMARK    3  A    between atoms: CA_4  and  C_5
REMARK    4  A    between atoms: CA_4  and  C_7
REMARK    5  A    between atoms: C_5  and  O_6
REMARK    6  A    between atoms: C_16  and  C_17
REMARK    7  A    between atoms: C_17  and  N_18
REMARK    8  A    between atoms: N_18  and  C_19
REMARK    9  A    between atoms: C_19  and  C_20
REMARK                            x       y       z     vdW  Elec       q    Type
REMARK                         _______ _______ _______ _____ _____    ______ ____
ROOT
ATOM      1  CA  UNL     1      47.365   6.237  12.846  0.00  0.00    +0.000 A 
ATOM      2  C   UNL     1      47.710   7.081  11.798  0.00  0.00    +0.000 A 
ATOM      3  C   UNL     1      48.806   7.920  11.962  0.00  0.00    +0.000 A 
ATOM      4  C   UNL     1      49.529   7.902  13.159  0.00  0.00    +0.000 A 
ATOM      5  C   UNL     1      49.102   7.014  14.148  0.00  0.00    +0.000 A 
ATOM      6  N   UNL     1      48.037   6.180  14.030  0.00  0.00    +0.000 NA
ENDROOT
BRANCH   1   8
ATOM      7  O   UNL     1      46.010   4.365  13.426  0.00  0.00    +0.000 OA
ATOM      8  C   UNL     1      46.190   5.322  12.678  0.00  0.00    +0.000 C 
ATOM      9  N   UNL     1      45.318   5.633  11.658  0.00  0.00    +0.000 N 
ATOM     10  H   UNL     1      45.489   6.513  11.179  0.00  0.00    +0.000 HD
BRANCH   9  11
ATOM     11  CA  UNL     1      44.136   4.817  11.358  0.00  0.00    +0.000 C 
BRANCH  11  12
ATOM     12  C   UNL     1      44.278   4.057  10.014  0.00  0.00    +0.000 C 
ATOM     13  C   UNL     1      44.513   2.553  10.244  0.00  0.00    +0.000 C 
ATOM     14  C   UNL     1      44.740   1.820   8.929  0.00  0.00    +0.000 C 
ATOM     15  O   UNL     1      45.819   2.411   8.207  0.00  0.00    +0.000 OA
ATOM     16  C   UNL     1      45.540   3.761   7.845  0.00  0.00    +0.000 C 
ATOM     17  C   UNL     1      45.362   4.629   9.085  0.00  0.00    +0.000 C 
ENDBRANCH  11  12
BRANCH  11  18
ATOM     18  C   UNL     1      42.839   5.655  11.421  0.00  0.00    +0.000 C 
BRANCH  18  19
ATOM     19  O   UNL     1      43.038   7.020  11.053  0.00  0.00    +0.000 OA
ATOM     20  H   UNL     1      43.619   7.039  10.266  0.00  0.00    +0.000 HD
ENDBRANCH  18  19
ENDBRANCH  11  18
ENDBRANCH   9  11
ENDBRANCH   1   8
BRANCH   4  21
ATOM     21  C   UNL     1      50.734   8.787  13.350  0.00  0.00    +0.000 C 
BRANCH  21  22
ATOM     22  N   UNL     1      51.038   9.538  12.139  0.00  0.00    +0.000 NA
ATOM     23  H   UNL     1      50.561   9.139  11.328  0.00  0.00    +0.000 HD
BRANCH  22  24
ATOM     24  C   UNL     1      50.632  10.949  12.243  0.00  0.00    +0.000 C 
BRANCH  24  25
ATOM     25  C   UNL     1      49.984  11.465  10.965  0.00  0.00    +0.000 A 
ATOM     26  N   UNL     1      50.819  11.708   9.909  0.00  0.00    +0.000 NA
ATOM     27  C   UNL     1      50.272  12.168   8.762  0.00  0.00    +0.000 A 
ATOM     28  C   UNL     1      48.912  12.376   8.590  0.00  0.00    +0.000 A 
ATOM     29  C   UNL     1      48.066  12.085   9.654  0.00  0.00    +0.000 A 
ATOM     30  C   UNL     1      48.597  11.616  10.856  0.00  0.00    +0.000 A 
ATOM     31 CL   UNL     1      47.504  11.236  12.134  0.00  0.00    +0.000 Cl
ENDBRANCH  24  25
ENDBRANCH  22  24
ENDBRANCH  21  22
ENDBRANCH   4  21
TORSDOF 9
ENDMDL
