MODEL 1
REMARK VINA RESULT:    -6.676      0.000      0.000
REMARK INTER + INTRA:          -9.554
REMARK INTER:                  -8.628
REMARK INTRA:                  -0.926
REMARK UNBOUND:                -0.926
REMARK  Name = 
REMARK  6 active torsions:
REMARK  status: ('A' for Active; 'I' for Inactive)
REMARK    1  A    between atoms: C_1  and  S_2
REMARK    2  A    between atoms: S_2  and  C_5
REMARK    3  A    between atoms: C_8  and  O_9
REMARK    4  A    between atoms: O_9  and  C_10
REMARK    5  A    between atoms: C_10  and  C_11
REMARK    6  A    between atoms: C_15  and  C_16
REMARK                            x       y       z     vdW  Elec       q    Type
REMARK                         _______ _______ _______ _____ _____    ______ ____
ROOT
ATOM      1  C   UNL     1      48.494   8.080  12.433  0.00  0.00    +0.000 C 
ATOM      2  C   UNL     1      49.420   8.818  11.468  0.00  0.00    +0.000 C 
ATOM      3  C   UNL     1      49.238   9.326  12.862  0.00  0.00    +0.000 C 
ENDROOT
BRANCH   1   4
ATOM      4  C   UNL     1      47.006   8.127  12.136  0.00  0.00    +0.000 A 
ATOM      5  C   UNL     1      46.299   9.334  12.261  0.00  0.00    +0.000 A 
ATOM      6  C   UNL     1      44.940   9.409  11.982  0.00  0.00    +0.000 A 
ATOM      7  C   UNL     1      44.254   8.276  11.557  0.00  0.00    +0.000 A 
ATOM      8  C   UNL     1      44.907   7.050  11.389  0.00  0.00    +0.000 A 
ATOM      9  C   UNL     1      46.282   6.996  11.697  0.00  0.00    +0.000 A 
BRANCH   8  10
ATOM     10  C   UNL     1      44.214   5.817  10.807  0.00  0.00    +0.000 C 
ATOM     11  C   UNL     1      42.801   5.649  11.394  0.00  0.00    +0.000 C 
ATOM     12  C   UNL     1      42.845   5.087  12.814  0.00  0.00    +0.000 C 
ATOM     13  C   UNL     1      43.687   3.812  12.908  0.00  0.00    +0.000 C 
ATOM     14  N   UNL     1      45.013   3.940  12.310  0.00  0.00    +0.000 NA
ATOM     15  C   UNL     1      44.971   4.472  10.943  0.00  0.00    +0.000 C 
ATOM     16  H   UNL     1      45.490   3.039  12.318  0.00  0.00    +0.000 HD
ENDBRANCH   8  10
ENDBRANCH   1   4
BRANCH   1  17
ATOM     17  O   UNL     1      49.064   6.790  12.761  0.00  0.00    +0.000 OA
BRANCH  17  21
ATOM     18  C   UNL     1      47.807   5.081  16.272  0.00  0.00    +0.000 A 
ATOM     19  C   UNL     1      48.713   6.137  16.303  0.00  0.00    +0.000 A 
ATOM     20  C   UNL     1      49.130   6.689  15.098  0.00  0.00    +0.000 A 
ATOM     21  C   UNL     1      48.627   6.165  13.912  0.00  0.00    +0.000 A 
ATOM     22  N   UNL     1      47.741   5.146  13.857  0.00  0.00    +0.000 NA
ATOM     23  C   UNL     1      47.368   4.604  15.041  0.00  0.00    +0.000 A 
BRANCH  18  25
ATOM     24  C   UNL     1      48.755   3.890  18.593  0.00  0.00    +0.000 C 
ATOM     25  S   UNL     1      47.253   4.314  17.752  0.00  0.00    +0.000 S 
ATOM     26  O   UNL     1      46.589   3.080  17.378  0.00  0.00    +0.000 OA
ATOM     27  O   UNL     1      46.562   5.319  18.537  0.00  0.00    +0.000 OA
ENDBRANCH  18  25
ENDBRANCH  17  21
ENDBRANCH   1  17
TORSDOF 5
ENDMDL
MODEL 2
REMARK VINA RESULT:    -6.365      2.334      3.944
REMARK INTER + INTRA:          -9.152
REMARK INTER:                  -8.674
REMARK INTRA:                  -0.478
REMARK UNBOUND:                -0.926
REMARK  Name = 
REMARK  6 active torsions:
REMARK  status: ('A' for Active; 'I' for Inactive)
REMARK    1  A    between atoms: C_1  and  S_2
REMARK    2  A    between atoms: S_2  and  C_5
REMARK    3  A    between atoms: C_8  and  O_9
REMARK    4  A    between atoms: O_9  and  C_10
REMARK    5  A    between atoms: C_10  and  C_11
REMARK    6  A    between atoms: C_15  and  C_16
REMARK                            x       y       z     vdW  Elec       q    Type
REMARK                         _______ _______ _______ _____ _____    ______ ____
ROOT
ATOM      1  C   UNL     1      46.082   6.085  12.357  0.00  0.00    +0.000 C 
ATOM      2  C   UNL     1      46.029   7.345  11.496  0.00  0.00    +0.000 C 
ATOM      3  C   UNL     1      45.444   7.357  12.871  0.00  0.00    +0.000 C 
ENDROOT
BRANCH   1   4
ATOM      4  C   UNL     1      45.227   4.909  11.917  0.00  0.00    +0.000 A 
ATOM      5  C   UNL     1      44.423   4.234  12.849  0.00  0.00    +0.000 A 
ATOM      6  C   UNL     1      43.621   3.164  12.472  0.00  0.00    +0.000 A 
ATOM      7  C   UNL     1      43.594   2.750  11.144  0.00  0.00    +0.000 A 
ATOM      8  C   UNL     1      44.353   3.398  10.164  0.00  0.00    +0.000 A 
ATOM      9  C   UNL     1      45.173   4.469  10.576  0.00  0.00    +0.000 A 
BRANCH   8  10
ATOM     10  C   UNL     1      44.253   3.051   8.677  0.00  0.00    +0.000 C 
ATOM     11  C   UNL     1      44.651   1.586   8.425  0.00  0.00    +0.000 C 
ATOM     12  C   UNL     1      46.166   1.397   8.479  0.00  0.00    +0.000 C 
ATOM     13  C   UNL     1      46.906   2.382   7.571  0.00  0.00    +0.000 C 
ATOM     14  N   UNL     1      46.504   3.772   7.763  0.00  0.00    +0.000 NA
ATOM     15  C   UNL     1      45.049   3.956   7.704  0.00  0.00    +0.000 C 
ATOM     16  H   UNL     1      46.959   4.368   7.072  0.00  0.00    +0.000 HD
ENDBRANCH   8  10
ENDBRANCH   1   4
BRANCH   1  17
ATOM     17  O   UNL     1      47.455   5.805  12.724  0.00  0.00    +0.000 OA
BRANCH  17  21
ATOM     18  C   UNL     1      48.291   5.270  16.703  0.00  0.00    +0.000 A 
ATOM     19  C   UNL     1      47.417   4.399  16.058  0.00  0.00    +0.000 A 
ATOM     20  C   UNL     1      47.144   4.612  14.712  0.00  0.00    +0.000 A 
ATOM     21  C   UNL     1      47.753   5.683  14.066  0.00  0.00    +0.000 A 
ATOM     22  N   UNL     1      48.610   6.536  14.670  0.00  0.00    +0.000 NA
ATOM     23  C   UNL     1      48.843   6.328  15.988  0.00  0.00    +0.000 A 
BRANCH  18  25
ATOM     24  C   UNL     1      47.290   5.842  19.228  0.00  0.00    +0.000 C 
ATOM     25  S   UNL     1      48.666   5.082  18.409  0.00  0.00    +0.000 S 
ATOM     26  O   UNL     1      49.845   5.882  18.684  0.00  0.00    +0.000 OA
ATOM     27  O   UNL     1      48.646   3.664  18.711  0.00  0.00    +0.000 OA
ENDBRANCH  18  25
ENDBRANCH  17  21
ENDBRANCH   1  17
TORSDOF 5
ENDMDL
MODEL 3
REMARK VINA RESULT:    -6.298      3.210      5.244
REMARK INTER + INTRA:          -9.065
REMARK INTER:                  -7.920
REMARK INTRA:                  -1.144
REMARK UNBOUND:                -0.926
REMARK  Name = 
REMARK  6 active torsions:
REMARK  status: ('A' for Active; 'I' for Inactive)
REMARK    1  A    between atoms: C_1  and  S_2
REMARK    2  A    between atoms: S_2  and  C_5
REMARK    3  A    between atoms: C_8  and  O_9
REMARK    4  A    between atoms: O_9  and  C_10
REMARK    5  A    between atoms: C_10  and  C_11
REMARK    6  A    between atoms: C_15  and  C_16
REMARK                            x       y       z     vdW  Elec       q    Type
REMARK                         _______ _______ _______ _____ _____    ______ ____
ROOT
ATOM      1  C   UNL     1      48.592   8.297  13.276  0.00  0.00    +0.000 C 
ATOM      2  C   UNL     1      49.762   8.479  14.240  0.00  0.00    +0.000 C 
ATOM      3  C   UNL     1      48.369   8.377  14.771  0.00  0.00    +0.000 C 
ENDROOT
BRANCH   1   4
ATOM      4  C   UNL     1      48.249   9.470  12.375  0.00  0.00    +0.000 A 
ATOM      5  C   UNL     1      49.187   9.940  11.442  0.00  0.00    +0.000 A 
ATOM      6  C   UNL     1      48.897  11.003  10.596  0.00  0.00    +0.000 A 
ATOM      7  C   UNL     1      47.650  11.616  10.653  0.00  0.00    +0.000 A 
ATOM      8  C   UNL     1      46.663  11.178  11.543  0.00  0.00    +0.000 A 
ATOM      9  C   UNL     1      46.990  10.110  12.404  0.00  0.00    +0.000 A 
BRANCH   8  10
ATOM     10  C   UNL     1      45.242  11.744  11.548  0.00  0.00    +0.000 C 
ATOM     11  C   UNL     1      44.205  10.631  11.776  0.00  0.00    +0.000 C 
ATOM     12  C   UNL     1      43.985   9.799  10.514  0.00  0.00    +0.000 C 
ATOM     13  C   UNL     1      43.671  10.668   9.294  0.00  0.00    +0.000 C 
ATOM     14  N   UNL     1      44.618  11.760   9.093  0.00  0.00    +0.000 NA
ATOM     15  C   UNL     1      44.824  12.564  10.302  0.00  0.00    +0.000 C 
ATOM     16  H   UNL     1      44.308  12.357   8.326  0.00  0.00    +0.000 HD
ENDBRANCH   8  10
ENDBRANCH   1   4
BRANCH   1  17
ATOM     17  O   UNL     1      48.669   6.988  12.660  0.00  0.00    +0.000 OA
BRANCH  17  21
ATOM     18  C   UNL     1      45.196   4.876  12.118  0.00  0.00    +0.000 A 
ATOM     19  C   UNL     1      45.541   5.879  11.217  0.00  0.00    +0.000 A 
ATOM     20  C   UNL     1      46.718   6.586  11.433  0.00  0.00    +0.000 A 
ATOM     21  C   UNL     1      47.501   6.263  12.536  0.00  0.00    +0.000 A 
ATOM     22  N   UNL     1      47.190   5.288  13.418  0.00  0.00    +0.000 NA
ATOM     23  C   UNL     1      46.025   4.629  13.207  0.00  0.00    +0.000 A 
BRANCH  18  25
ATOM     24  C   UNL     1      42.454   5.202  11.835  0.00  0.00    +0.000 C 
ATOM     25  S   UNL     1      43.711   3.956  11.928  0.00  0.00    +0.000 S 
ATOM     26  O   UNL     1      43.506   3.207  13.153  0.00  0.00    +0.000 OA
ATOM     27  O   UNL     1      43.773   3.279  10.647  0.00  0.00    +0.000 OA
ENDBRANCH  18  25
ENDBRANCH  17  21
ENDBRANCH   1  17
TORSDOF 5
ENDMDL
MODEL 4
REMARK VINA RESULT:    -6.215      3.488      6.546
REMARK INTER + INTRA:          -8.957
REMARK INTER:                  -8.107
REMARK INTRA:                  -0.850
REMARK UNBOUND:                -0.926
REMARK  Name = 
REMARK  6 active torsions:
REMARK  status: ('A' for Active; 'I' for Inactive)
REMARK    1  A    between atoms: C_1  and  S_2
REMARK    2  A    between atoms: S_2  and  C_5
REMARK    3  A    between atoms: C_8  and  O_9
REMARK    4  A    between atoms: O_9  and  C_10
REMARK    5  A    between atoms: C_10  and  C_11
REMARK    6  A    between atoms: C_15  and  C_16
REMARK                            x       y       z     vdW  Elec       q    Type
REMARK                         _______ _______ _______ _____ _____    ______ ____
ROOT
ATOM      1  C   UNL     1      49.126   7.567  13.535  0.00  0.00    +0.000 C 
ATOM      2  C   UNL     1      49.731   7.566  14.937  0.00  0.00    +0.000 C 
ATOM      3  C   UNL     1      48.366   8.133  14.715  0.00  0.00    +0.000 C 
ENDROOT
BRANCH   1   4
ATOM      4  C   UNL     1      49.763   8.486  12.507  0.00  0.00    +0.000 A 
ATOM      5  C   UNL     1      49.084   9.636  12.073  0.00  0.00    +0.000 A 
ATOM      6  C   UNL     1      49.647  10.502  11.144  0.00  0.00    +0.000 A 
ATOM      7  C   UNL     1      50.915  10.244  10.634  0.00  0.00    +0.000 A 
ATOM      8  C   UNL     1      51.653   9.128  11.046  0.00  0.00    +0.000 A 
ATOM      9  C   UNL     1      51.051   8.256  11.975  0.00  0.00    +0.000 A 
BRANCH   8  10
ATOM     10  C   UNL     1      53.095   8.881  10.602  0.00  0.00    +0.000 C 
ATOM     11  C   UNL     1      53.196   8.807   9.068  0.00  0.00    +0.000 C 
ATOM     12  C   UNL     1      52.687   7.469   8.534  0.00  0.00    +0.000 C 
ATOM     13  C   UNL     1      53.346   6.278   9.234  0.00  0.00    +0.000 C 
ATOM     14  N   UNL     1      53.303   6.358  10.692  0.00  0.00    +0.000 NA
ATOM     15  C   UNL     1      53.799   7.639  11.205  0.00  0.00    +0.000 C 
ATOM     16  H   UNL     1      53.835   5.590  11.101  0.00  0.00    +0.000 HD
ENDBRANCH   8  10
ENDBRANCH   1   4
BRANCH   1  17
ATOM     17  O   UNL     1      48.849   6.205  13.125  0.00  0.00    +0.000 OA
BRANCH  17  21
ATOM     18  C   UNL     1      44.962   5.222  12.260  0.00  0.00    +0.000 A 
ATOM     19  C   UNL     1      45.633   6.150  11.468  0.00  0.00    +0.000 A 
ATOM     20  C   UNL     1      46.945   6.472  11.792  0.00  0.00    +0.000 A 
ATOM     21  C   UNL     1      47.534   5.857  12.891  0.00  0.00    +0.000 A 
ATOM     22  N   UNL     1      46.906   4.947  13.669  0.00  0.00    +0.000 NA
ATOM     23  C   UNL     1      45.618   4.667  13.354  0.00  0.00    +0.000 A 
BRANCH  18  25
ATOM     24  C   UNL     1      43.361   3.027  11.694  0.00  0.00    +0.000 C 
ATOM     25  S   UNL     1      43.294   4.783  11.931  0.00  0.00    +0.000 S 
ATOM     26  O   UNL     1      42.928   5.388  10.664  0.00  0.00    +0.000 OA
ATOM     27  O   UNL     1      42.522   5.049  13.129  0.00  0.00    +0.000 OA
ENDBRANCH  18  25
ENDBRANCH  17  21
ENDBRANCH   1  17
TORSDOF 5
ENDMDL
MODEL 5
REMARK VINA RESULT:    -6.110      2.768      6.115
REMARK INTER + INTRA:          -8.822
REMARK INTER:                  -8.403
REMARK INTRA:                  -0.419
REMARK UNBOUND:                -0.926
REMARK  Name = 
REMARK  6 active torsions:
REMARK  status: ('A' for Active; 'I' for Inactive)
REMARK    1  A    between atoms: C_1  and  S_2
REMARK    2  A    between atoms: S_2  and  C_5
REMARK    3  A    between atoms: C_8  and  O_9
REMARK    4  A    between atoms: O_9  and  C_10
REMARK    5  A    between atoms: C_10  and  C_11
REMARK    6  A    between atoms: C_15  and  C_16
REMARK                            x       y       z     vdW  Elec       q    Type
REMARK                         _______ _______ _______ _____ _____    ______ ____
ROOT
ATOM      1  C   UNL     1      48.823   7.661  13.480  0.00  0.00    +0.000 C 
ATOM      2  C   UNL     1      49.365   8.814  12.636  0.00  0.00    +0.000 C 
ATOM      3  C   UNL     1      49.344   7.428  12.079  0.00  0.00    +0.000 C 
ENDROOT
BRANCH   1   4
ATOM      4  C   UNL     1      49.639   7.248  14.692  0.00  0.00    +0.000 A 
ATOM      5  C   UNL     1      50.988   7.623  14.795  0.00  0.00    +0.000 A 
ATOM      6  C   UNL     1      51.756   7.271  15.899  0.00  0.00    +0.000 A 
ATOM      7  C   UNL     1      51.186   6.542  16.937  0.00  0.00    +0.000 A 
ATOM      8  C   UNL     1      49.839   6.160  16.905  0.00  0.00    +0.000 A 
ATOM      9  C   UNL     1      49.088   6.514  15.766  0.00  0.00    +0.000 A 
BRANCH   8  10
ATOM     10  C   UNL     1      49.148   5.468  18.081  0.00  0.00    +0.000 C 
ATOM     11  C   UNL     1      49.672   4.032  18.261  0.00  0.00    +0.000 C 
ATOM     12  C   UNL     1      49.084   3.084  17.217  0.00  0.00    +0.000 C 
ATOM     13  C   UNL     1      47.556   3.161  17.159  0.00  0.00    +0.000 C 
ATOM     14  N   UNL     1      47.042   4.522  17.039  0.00  0.00    +0.000 NA
ATOM     15  C   UNL     1      47.600   5.431  18.045  0.00  0.00    +0.000 C 
ATOM     16  H   UNL     1      46.024   4.519  17.098  0.00  0.00    +0.000 HD
ENDBRANCH   8  10
ENDBRANCH   1   4
BRANCH   1  17
ATOM     17  O   UNL     1      47.396   7.826  13.666  0.00  0.00    +0.000 OA
BRANCH  17  21
ATOM     18  C   UNL     1      44.906   4.896  12.237  0.00  0.00    +0.000 A 
ATOM     19  C   UNL     1      44.803   6.193  11.742  0.00  0.00    +0.000 A 
ATOM     20  C   UNL     1      45.652   7.168  12.253  0.00  0.00    +0.000 A 
ATOM     21  C   UNL     1      46.568   6.809  13.236  0.00  0.00    +0.000 A 
ATOM     22  N   UNL     1      46.692   5.555  13.726  0.00  0.00    +0.000 NA
ATOM     23  C   UNL     1      45.837   4.626  13.234  0.00  0.00    +0.000 A 
BRANCH  18  25
ATOM     24  C   UNL     1      44.754   2.906  10.309  0.00  0.00    +0.000 C 
ATOM     25  S   UNL     1      43.852   3.616  11.660  0.00  0.00    +0.000 S 
ATOM     26  O   UNL     1      42.662   4.246  11.118  0.00  0.00    +0.000 OA
ATOM     27  O   UNL     1      43.751   2.621  12.709  0.00  0.00    +0.000 OA
ENDBRANCH  18  25
ENDBRANCH  17  21
ENDBRANCH   1  17
TORSDOF 5
ENDMDL
MODEL 6
REMARK VINA RESULT:    -6.109      1.589      1.853
REMARK INTER + INTRA:          -8.820
REMARK INTER:                  -7.957
REMARK INTRA:                  -0.863
REMARK UNBOUND:                -0.926
REMARK  Name = 
REMARK  6 active torsions:
REMARK  status: ('A' for Active; 'I' for Inactive)
REMARK    1  A    between atoms: C_1  and  S_2
REMARK    2  A    between atoms: S_2  and  C_5
REMARK    3  A    between atoms: C_8  and  O_9
REMARK    4  A    between atoms: O_9  and  C_10
REMARK    5  A    between atoms: C_10  and  C_11
REMARK    6  A    between atoms: C_15  and  C_16
REMARK                            x       y       z     vdW  Elec       q    Type
REMARK                         _______ _______ _______ _____ _____    ______ ____
ROOT
ATOM      1  C   UNL     1      49.036   7.854  12.605  0.00  0.00    +0.000 C 
ATOM      2  C   UNL     1      49.969   7.992  11.403  0.00  0.00    +0.000 C 
ATOM      3  C   UNL     1      49.842   9.114  12.381  0.00  0.00    +0.000 C 
ENDROOT
BRANCH   1   4
ATOM      4  C   UNL     1      47.544   7.824  12.323  0.00  0.00    +0.000 A 
ATOM      5  C   UNL     1      46.777   8.991  12.462  0.00  0.00    +0.000 A 
ATOM      6  C   UNL     1      45.413   8.997  12.198  0.00  0.00    +0.000 A 
ATOM      7  C   UNL     1      44.782   7.832  11.774  0.00  0.00    +0.000 A 
ATOM      8  C   UNL     1      45.497   6.642  11.592  0.00  0.00    +0.000 A 
ATOM      9  C   UNL     1      46.876   6.659  11.885  0.00  0.00    +0.000 A 
BRANCH   8  10
ATOM     10  C   UNL     1      44.863   5.378  11.010  0.00  0.00    +0.000 C 
ATOM     11  C   UNL     1      43.326   5.457  11.062  0.00  0.00    +0.000 C 
ATOM     12  C   UNL     1      42.797   5.203  12.472  0.00  0.00    +0.000 C 
ATOM     13  C   UNL     1      43.350   3.910  13.075  0.00  0.00    +0.000 C 
ATOM     14  N   UNL     1      44.803   3.797  12.988  0.00  0.00    +0.000 NA
ATOM     15  C   UNL     1      45.312   4.033  11.632  0.00  0.00    +0.000 C 
ATOM     16  H   UNL     1      45.105   2.880  13.319  0.00  0.00    +0.000 HD
ENDBRANCH   8  10
ENDBRANCH   1   4
BRANCH   1  17
ATOM     17  O   UNL     1      49.559   6.853  13.512  0.00  0.00    +0.000 OA
BRANCH  17  21
ATOM     18  C   UNL     1      48.446   7.267  17.438  0.00  0.00    +0.000 A 
ATOM     19  C   UNL     1      48.888   8.377  16.725  0.00  0.00    +0.000 A 
ATOM     20  C   UNL     1      49.270   8.205  15.399  0.00  0.00    +0.000 A 
ATOM     21  C   UNL     1      49.194   6.933  14.841  0.00  0.00    +0.000 A 
ATOM     22  N   UNL     1      48.761   5.843  15.512  0.00  0.00    +0.000 NA
ATOM     23  C   UNL     1      48.419   6.026  16.810  0.00  0.00    +0.000 A 
BRANCH  18  25
ATOM     24  C   UNL     1      49.512   7.577  19.981  0.00  0.00    +0.000 C 
ATOM     25  S   UNL     1      47.971   7.400  19.124  0.00  0.00    +0.000 S 
ATOM     26  O   UNL     1      47.390   6.128  19.512  0.00  0.00    +0.000 OA
ATOM     27  O   UNL     1      47.224   8.633  19.276  0.00  0.00    +0.000 OA
ENDBRANCH  18  25
ENDBRANCH  17  21
ENDBRANCH   1  17
TORSDOF 5
ENDMDL
MODEL 7
REMARK VINA RESULT:    -6.074      2.837      5.735
REMARK INTER + INTRA:          -8.775
REMARK INTER:                  -7.639
REMARK INTRA:                  -1.136
REMARK UNBOUND:                -0.926
REMARK  Name = 
REMARK  6 active torsions:
REMARK  status: ('A' for Active; 'I' for Inactive)
REMARK    1  A    between atoms: C_1  and  S_2
REMARK    2  A    between atoms: S_2  and  C_5
REMARK    3  A    between atoms: C_8  and  O_9
REMARK    4  A    between atoms: O_9  and  C_10
REMARK    5  A    between atoms: C_10  and  C_11
REMARK    6  A    between atoms: C_15  and  C_16
REMARK                            x       y       z     vdW  Elec       q    Type
REMARK                         _______ _______ _______ _____ _____    ______ ____
ROOT
ATOM      1  C   UNL     1      49.661   8.828  14.226  0.00  0.00    +0.000 C 
ATOM      2  C   UNL     1      50.831   9.789  14.023  0.00  0.00    +0.000 C 
ATOM      3  C   UNL     1      51.038   8.318  13.860  0.00  0.00    +0.000 C 
ENDROOT
BRANCH   1   4
ATOM      4  C   UNL     1      49.126   8.677  15.639  0.00  0.00    +0.000 A 
ATOM      5  C   UNL     1      48.358   9.701  16.215  0.00  0.00    +0.000 A 
ATOM      6  C   UNL     1      47.844   9.585  17.501  0.00  0.00    +0.000 A 
ATOM      7  C   UNL     1      48.077   8.430  18.241  0.00  0.00    +0.000 A 
ATOM      8  C   UNL     1      48.814   7.364  17.713  0.00  0.00    +0.000 A 
ATOM      9  C   UNL     1      49.340   7.515  16.414  0.00  0.00    +0.000 A 
BRANCH   8  10
ATOM     10  C   UNL     1      48.984   6.034  18.448  0.00  0.00    +0.000 C 
ATOM     11  C   UNL     1      49.430   4.922  17.480  0.00  0.00    +0.000 C 
ATOM     12  C   UNL     1      48.268   4.424  16.622  0.00  0.00    +0.000 C 
ATOM     13  C   UNL     1      47.052   4.031  17.464  0.00  0.00    +0.000 C 
ATOM     14  N   UNL     1      46.647   5.056  18.423  0.00  0.00    +0.000 NA
ATOM     15  C   UNL     1      47.761   5.529  19.253  0.00  0.00    +0.000 C 
ATOM     16  H   UNL     1      45.896   4.704  19.016  0.00  0.00    +0.000 HD
ENDBRANCH   8  10
ENDBRANCH   1   4
BRANCH   1  17
ATOM     17  O   UNL     1      48.691   9.014  13.166  0.00  0.00    +0.000 OA
BRANCH  17  21
ATOM     18  C   UNL     1      45.796   6.122  12.877  0.00  0.00    +0.000 A 
ATOM     19  C   UNL     1      47.138   5.755  12.918  0.00  0.00    +0.000 A 
ATOM     20  C   UNL     1      48.098   6.757  13.004  0.00  0.00    +0.000 A 
ATOM     21  C   UNL     1      47.679   8.082  13.047  0.00  0.00    +0.000 A 
ATOM     22  N   UNL     1      46.382   8.463  13.017  0.00  0.00    +0.000 NA
ATOM     23  C   UNL     1      45.464   7.473  12.905  0.00  0.00    +0.000 A 
BRANCH  18  25
ATOM     24  C   UNL     1      44.270   4.771  10.994  0.00  0.00    +0.000 C 
ATOM     25  S   UNL     1      44.527   4.916  12.742  0.00  0.00    +0.000 S 
ATOM     26  O   UNL     1      43.325   5.485  13.322  0.00  0.00    +0.000 OA
ATOM     27  O   UNL     1      45.061   3.658  13.227  0.00  0.00    +0.000 OA
ENDBRANCH  18  25
ENDBRANCH  17  21
ENDBRANCH   1  17
TORSDOF 5
ENDMDL
MODEL 8
REMARK VINA RESULT:    -6.070      3.419      7.200
REMARK INTER + INTRA:          -8.770
REMARK INTER:                  -7.933
REMARK INTRA:                  -0.837
REMARK UNBOUND:                -0.926
REMARK  Name = 
REMARK  6 active torsions:
REMARK  status: ('A' for Active; 'I' for Inactive)
REMARK    1  A    between atoms: C_1  and  S_2
REMARK    2  A    between atoms: S_2  and  C_5
REMARK    3  A    between atoms: C_8  and  O_9
REMARK    4  A    between atoms: O_9  and  C_10
REMARK    5  A    between atoms: C_10  and  C_11
REMARK    6  A    between atoms: C_15  and  C_16
REMARK                            x       y       z     vdW  Elec       q    Type
REMARK                         _______ _______ _______ _____ _____    ______ ____
ROOT
ATOM      1  C   UNL     1      47.822   4.326  16.564  0.00  0.00    +0.000 C 
ATOM      2  C   UNL     1      48.451   3.027  17.062  0.00  0.00    +0.000 C 
ATOM      3  C   UNL     1      46.964   3.156  16.992  0.00  0.00    +0.000 C 
ENDROOT
BRANCH   1   4
ATOM      4  C   UNL     1      47.967   5.550  17.452  0.00  0.00    +0.000 A 
ATOM      5  C   UNL     1      47.228   5.649  18.641  0.00  0.00    +0.000 A 
ATOM      6  C   UNL     1      47.351   6.751  19.480  0.00  0.00    +0.000 A 
ATOM      7  C   UNL     1      48.229   7.779  19.153  0.00  0.00    +0.000 A 
ATOM      8  C   UNL     1      49.012   7.726  17.994  0.00  0.00    +0.000 A 
ATOM      9  C   UNL     1      48.855   6.607  17.151  0.00  0.00    +0.000 A 
BRANCH   8  10
ATOM     10  C   UNL     1      50.076   8.775  17.667  0.00  0.00    +0.000 C 
ATOM     11  C   UNL     1      49.616  10.180  18.096  0.00  0.00    +0.000 C 
ATOM     12  C   UNL     1      48.592  10.759  17.121  0.00  0.00    +0.000 C 
ATOM     13  C   UNL     1      49.077  10.705  15.671  0.00  0.00    +0.000 C 
ATOM     14  N   UNL     1      49.563   9.390  15.264  0.00  0.00    +0.000 NA
ATOM     15  C   UNL     1      50.553   8.837  16.195  0.00  0.00    +0.000 C 
ATOM     16  H   UNL     1      49.957   9.437  14.324  0.00  0.00    +0.000 HD
ENDBRANCH   8  10
ENDBRANCH   1   4
BRANCH   1  17
ATOM     17  O   UNL     1      48.107   4.494  15.153  0.00  0.00    +0.000 OA
BRANCH  17  21
ATOM     18  C   UNL     1      44.996   4.320  12.486  0.00  0.00    +0.000 A 
ATOM     19  C   UNL     1      45.293   5.521  13.124  0.00  0.00    +0.000 A 
ATOM     20  C   UNL     1      46.345   5.547  14.032  0.00  0.00    +0.000 A 
ATOM     21  C   UNL     1      47.057   4.376  14.264  0.00  0.00    +0.000 A 
ATOM     22  N   UNL     1      46.793   3.201  13.651  0.00  0.00    +0.000 NA
ATOM     23  C   UNL     1      45.747   3.189  12.791  0.00  0.00    +0.000 A 
BRANCH  18  25
ATOM     24  C   UNL     1      42.479   5.365  11.962  0.00  0.00    +0.000 C 
ATOM     25  S   UNL     1      43.665   4.200  11.346  0.00  0.00    +0.000 S 
ATOM     26  O   UNL     1      43.097   2.873  11.481  0.00  0.00    +0.000 OA
ATOM     27  O   UNL     1      44.141   4.676  10.061  0.00  0.00    +0.000 OA
ENDBRANCH  18  25
ENDBRANCH  17  21
ENDBRANCH   1  17
TORSDOF 5
ENDMDL
MODEL 9
REMARK VINA RESULT:    -5.690      3.143      6.686
REMARK INTER + INTRA:          -8.279
REMARK INTER:                  -7.447
REMARK INTRA:                  -0.832
REMARK UNBOUND:                -0.926
REMARK  Name = 
REMARK  6 active torsions:
REMARK  status: ('A' for Active; 'I' for Inactive)
REMARK    1  A    between atoms: C_1  and  S_2
REMARK    2  A    between atoms: S_2  and  C_5
REMARK    3  A    between atoms: C_8  and  O_9
REMARK    4  A    between atoms: O_9  and  C_10
REMARK    5  A    between atoms: C_10  and  C_11
REMARK    6  A    between atoms: C_15  and  C_16
REMARK                            x       y       z     vdW  Elec       q    Type
REMARK                         _______ _______ _______ _____ _____    ______ ____
ROOT
ATOM      1  C   UNL     1      49.638   7.954  15.586  0.00  0.00    +0.000 C 
ATOM      2  C   UNL     1      50.970   8.700  15.531  0.00  0.00    +0.000 C 
ATOM      3  C   UNL     1      50.950   7.206  15.516  0.00  0.00    +0.000 C 
ENDROOT
BRANCH   1   4
ATOM      4  C   UNL     1      48.855   8.032  16.886  0.00  0.00    +0.000 A 
ATOM      5  C   UNL     1      48.280   9.248  17.290  0.00  0.00    +0.000 A 
ATOM      6  C   UNL     1      47.548   9.346  18.467  0.00  0.00    +0.000 A 
ATOM      7  C   UNL     1      47.361   8.222  19.265  0.00  0.00    +0.000 A 
ATOM      8  C   UNL     1      47.887   6.976  18.903  0.00  0.00    +0.000 A 
ATOM      9  C   UNL     1      48.642   6.908  17.714  0.00  0.00    +0.000 A 
BRANCH   8  10
ATOM     10  C   UNL     1      47.597   5.696  19.688  0.00  0.00    +0.000 C 
ATOM     11  C   UNL     1      47.536   5.979  21.200  0.00  0.00    +0.000 C 
ATOM     12  C   UNL     1      48.932   6.158  21.796  0.00  0.00    +0.000 C 
ATOM     13  C   UNL     1      49.867   4.999  21.441  0.00  0.00    +0.000 C 
ATOM     14  N   UNL     1      49.897   4.685  20.015  0.00  0.00    +0.000 NA
ATOM     15  C   UNL     1      48.558   4.506  19.444  0.00  0.00    +0.000 C 
ATOM     16  H   UNL     1      50.460   3.851  19.851  0.00  0.00    +0.000 HD
ENDBRANCH   8  10
ENDBRANCH   1   4
BRANCH   1  17
ATOM     17  O   UNL     1      48.905   8.178  14.357  0.00  0.00    +0.000 OA
BRANCH  17  21
ATOM     18  C   UNL     1      46.047   5.502  13.133  0.00  0.00    +0.000 A 
ATOM     19  C   UNL     1      45.942   6.841  12.766  0.00  0.00    +0.000 A 
ATOM     20  C   UNL     1      46.919   7.727  13.205  0.00  0.00    +0.000 A 
ATOM     21  C   UNL     1      47.959   7.241  13.990  0.00  0.00    +0.000 A 
ATOM     22  N   UNL     1      48.086   5.945  14.352  0.00  0.00    +0.000 NA
ATOM     23  C   UNL     1      47.109   5.103  13.938  0.00  0.00    +0.000 A 
BRANCH  18  25
ATOM     24  C   UNL     1      44.676   4.599  10.895  0.00  0.00    +0.000 C 
ATOM     25  S   UNL     1      44.839   4.327  12.639  0.00  0.00    +0.000 S 
ATOM     26  O   UNL     1      43.586   4.703  13.266  0.00  0.00    +0.000 OA
ATOM     27  O   UNL     1      45.401   3.005  12.840  0.00  0.00    +0.000 OA
ENDBRANCH  18  25
ENDBRANCH  17  21
ENDBRANCH   1  17
TORSDOF 5
ENDMDL
