MODEL 1
REMARK VINA RESULT:    -7.899      0.000      0.000
REMARK INTER + INTRA:         -11.914
REMARK INTER:                 -10.670
REMARK INTRA:                  -1.243
REMARK UNBOUND:                -1.243
REMARK  Name = 
REMARK  7 active torsions:
REMARK  status: ('A' for Active; 'I' for Inactive)
REMARK    1  A    between atoms: C_1  and  C_2
REMARK    2  A    between atoms: C_2  and  N_3
REMARK    3  A    between atoms: C_2  and  C_16
REMARK    4  A    between atoms: C_4  and  C_6
REMARK    5  A    between atoms: C_19  and  C_20
REMARK    6  A    between atoms: C_20  and  N_21
REMARK    7  A    between atoms: C_22  and  C_24
REMARK                            x       y       z     vdW  Elec       q    Type
REMARK                         _______ _______ _______ _____ _____    ______ ____
ROOT
ATOM      1  C   UNL     1      48.090   9.245  14.171  0.00  0.00    +0.000 C 
ATOM      2  C   UNL     1      48.178   7.712  14.194  0.00  0.00    +0.000 C 
ENDROOT
BRANCH   2   3
ATOM      3  C   UNL     1      47.094   7.112  13.306  0.00  0.00    +0.000 A 
ATOM      4  C   UNL     1      46.778   5.749  13.390  0.00  0.00    +0.000 A 
ATOM      5  C   UNL     1      45.838   5.178  12.523  0.00  0.00    +0.000 A 
ATOM      6  C   UNL     1      45.198   5.953  11.548  0.00  0.00    +0.000 A 
ATOM      7  C   UNL     1      45.466   7.326  11.502  0.00  0.00    +0.000 A 
ATOM      8  C   UNL     1      46.403   7.898  12.369  0.00  0.00    +0.000 A 
BRANCH   6   9
ATOM      9  C   UNL     1      44.276   5.321  10.539  0.00  0.00    +0.000 C 
BRANCH   9  10
ATOM     10  N   UNL     1      44.968   4.658   9.467  0.00  0.00    +0.000 N 
ATOM     11  C   UNL     1      45.094   3.283   9.453  0.00  0.00    +0.000 C 
ATOM     12  O   UNL     1      44.640   2.554  10.330  0.00  0.00    +0.000 OA
ATOM     13  H   UNL     1      45.325   5.173   8.668  0.00  0.00    +0.000 HD
BRANCH  11  14
ATOM     14  C   UNL     1      45.837   2.717   8.282  0.00  0.00    +0.000 A 
ATOM     15  C   UNL     1      46.078   3.517   7.170  0.00  0.00    +0.000 A 
ATOM     16  C   UNL     1      46.748   2.959   6.087  0.00  0.00    +0.000 A 
ATOM     17  C   UNL     1      47.151   1.629   6.150  0.00  0.00    +0.000 A 
ATOM     18  C   UNL     1      46.869   0.906   7.302  0.00  0.00    +0.000 A 
ATOM     19  N   UNL     1      46.226   1.414   8.377  0.00  0.00    +0.000 NA
ENDBRANCH  11  14
ENDBRANCH   9  10
ENDBRANCH   6   9
ENDBRANCH   2   3
BRANCH   2  20
ATOM     20  N   UNL     1      48.074   7.165  15.538  0.00  0.00    +0.000 N 
ATOM     21  C   UNL     1      49.130   6.556  16.173  0.00  0.00    +0.000 C 
ATOM     22  O   UNL     1      50.251   6.485  15.679  0.00  0.00    +0.000 OA
ATOM     23  H   UNL     1      47.136   6.926  15.847  0.00  0.00    +0.000 HD
BRANCH  21  24
ATOM     24  C   UNL     1      48.872   6.043  17.522  0.00  0.00    +0.000 A 
ATOM     25  C   UNL     1      49.111   4.705  17.805  0.00  0.00    +0.000 A 
ATOM     26  S   UNL     1      48.764   4.275  19.419  0.00  0.00    +0.000 S 
ATOM     27  C   UNL     1      48.239   5.853  19.781  0.00  0.00    +0.000 A 
ATOM     28  N   UNL     1      47.759   6.164  21.016  0.00  0.00    +0.000 NA
ATOM     29  C   UNL     1      47.363   7.387  21.140  0.00  0.00    +0.000 A 
ATOM     30  N   UNL     1      47.417   8.331  20.146  0.00  0.00    +0.000 N 
ATOM     31  C   UNL     1      47.931   8.072  18.897  0.00  0.00    +0.000 A 
ATOM     32  O   UNL     1      48.027   8.951  18.048  0.00  0.00    +0.000 OA
ATOM     33  C   UNL     1      48.359   6.702  18.697  0.00  0.00    +0.000 A 
ATOM     34  H   UNL     1      47.106   9.276  20.313  0.00  0.00    +0.000 HD
ENDBRANCH  21  24
ENDBRANCH   2  20
TORSDOF 6
ENDMDL
MODEL 2
REMARK VINA RESULT:    -7.803      1.458      1.921
REMARK INTER + INTRA:         -11.783
REMARK INTER:                 -10.811
REMARK INTRA:                  -0.973
REMARK UNBOUND:                -1.243
REMARK  Name = 
REMARK  7 active torsions:
REMARK  status: ('A' for Active; 'I' for Inactive)
REMARK    1  A    between atoms: C_1  and  C_2
REMARK    2  A    between atoms: C_2  and  N_3
REMARK    3  A    between atoms: C_2  and  C_16
REMARK    4  A    between atoms: C_4  and  C_6
REMARK    5  A    between atoms: C_19  and  C_20
REMARK    6  A    between atoms: C_20  and  N_21
REMARK    7  A    between atoms: C_22  and  C_24
REMARK                            x       y       z     vdW  Elec       q    Type
REMARK                         _______ _______ _______ _____ _____    ______ ____
ROOT
ATOM      1  C   UNL     1      47.901  10.183  13.196  0.00  0.00    +0.000 C 
ATOM      2  C   UNL     1      47.980   8.792  13.843  0.00  0.00    +0.000 C 
ENDROOT
BRANCH   2   3
ATOM      3  C   UNL     1      46.999   7.843  13.165  0.00  0.00    +0.000 A 
ATOM      4  C   UNL     1      47.210   6.458  13.198  0.00  0.00    +0.000 A 
ATOM      5  C   UNL     1      46.354   5.587  12.511  0.00  0.00    +0.000 A 
ATOM      6  C   UNL     1      45.272   6.081  11.770  0.00  0.00    +0.000 A 
ATOM      7  C   UNL     1      45.024   7.458  11.786  0.00  0.00    +0.000 A 
ATOM      8  C   UNL     1      45.877   8.328  12.474  0.00  0.00    +0.000 A 
BRANCH   6   9
ATOM      9  C   UNL     1      44.421   5.161  10.937  0.00  0.00    +0.000 C 
BRANCH   9  10
ATOM     10  N   UNL     1      45.145   4.513   9.877  0.00  0.00    +0.000 N 
ATOM     11  C   UNL     1      44.840   3.219   9.503  0.00  0.00    +0.000 C 
ATOM     12  O   UNL     1      43.958   2.552  10.034  0.00  0.00    +0.000 OA
ATOM     13  H   UNL     1      45.853   5.005   9.340  0.00  0.00    +0.000 HD
BRANCH  11  14
ATOM     14  C   UNL     1      45.669   2.660   8.387  0.00  0.00    +0.000 A 
ATOM     15  C   UNL     1      45.976   3.462   7.292  0.00  0.00    +0.000 A 
ATOM     16  C   UNL     1      46.726   2.910   6.259  0.00  0.00    +0.000 A 
ATOM     17  C   UNL     1      47.139   1.585   6.354  0.00  0.00    +0.000 A 
ATOM     18  C   UNL     1      46.788   0.860   7.485  0.00  0.00    +0.000 A 
ATOM     19  N   UNL     1      46.067   1.362   8.512  0.00  0.00    +0.000 NA
ENDBRANCH  11  14
ENDBRANCH   9  10
ENDBRANCH   6   9
ENDBRANCH   2   3
BRANCH   2  20
ATOM     20  N   UNL     1      47.727   8.824  15.275  0.00  0.00    +0.000 N 
ATOM     21  C   UNL     1      48.630   8.353  16.198  0.00  0.00    +0.000 C 
ATOM     22  O   UNL     1      49.738   7.930  15.886  0.00  0.00    +0.000 OA
ATOM     23  H   UNL     1      46.749   8.867  15.550  0.00  0.00    +0.000 HD
BRANCH  21  24
ATOM     24  C   UNL     1      48.231   8.442  17.605  0.00  0.00    +0.000 A 
ATOM     25  C   UNL     1      48.092   9.688  18.202  0.00  0.00    +0.000 A 
ATOM     26  S   UNL     1      47.618   9.613  19.838  0.00  0.00    +0.000 S 
ATOM     27  C   UNL     1      47.627   7.912  19.818  0.00  0.00    +0.000 A 
ATOM     28  N   UNL     1      47.345   7.197  20.941  0.00  0.00    +0.000 NA
ATOM     29  C   UNL     1      47.425   5.917  20.790  0.00  0.00    +0.000 A 
ATOM     30  N   UNL     1      47.746   5.286  19.616  0.00  0.00    +0.000 N 
ATOM     31  C   UNL     1      47.998   5.966  18.448  0.00  0.00    +0.000 A 
ATOM     32  O   UNL     1      48.219   5.375  17.396  0.00  0.00    +0.000 OA
ATOM     33  C   UNL     1      47.954   7.409  18.572  0.00  0.00    +0.000 A 
ATOM     34  H   UNL     1      47.774   4.279  19.560  0.00  0.00    +0.000 HD
ENDBRANCH  21  24
ENDBRANCH   2  20
TORSDOF 6
ENDMDL
MODEL 3
REMARK VINA RESULT:    -7.465      1.639      2.228
REMARK INTER + INTRA:         -11.327
REMARK INTER:                 -10.175
REMARK INTRA:                  -1.152
REMARK UNBOUND:                -1.243
REMARK  Name = 
REMARK  7 active torsions:
REMARK  status: ('A' for Active; 'I' for Inactive)
REMARK    1  A    between atoms: C_1  and  C_2
REMARK    2  A    between atoms: C_2  and  N_3
REMARK    3  A    between atoms: C_2  and  C_16
REMARK    4  A    between atoms: C_4  and  C_6
REMARK    5  A    between atoms: C_19  and  C_20
REMARK    6  A    between atoms: C_20  and  N_21
REMARK    7  A    between atoms: C_22  and  C_24
REMARK                            x       y       z     vdW  Elec       q    Type
REMARK                         _______ _______ _______ _____ _____    ______ ____
ROOT
ATOM      1  C   UNL     1      48.229   9.592  14.063  0.00  0.00    +0.000 C 
ATOM      2  C   UNL     1      48.438   8.071  14.074  0.00  0.00    +0.000 C 
ENDROOT
BRANCH   2   3
ATOM      3  C   UNL     1      47.338   7.385  13.273  0.00  0.00    +0.000 A 
ATOM      4  C   UNL     1      47.117   6.007  13.402  0.00  0.00    +0.000 A 
ATOM      5  C   UNL     1      46.158   5.359  12.612  0.00  0.00    +0.000 A 
ATOM      6  C   UNL     1      45.404   6.072  11.671  0.00  0.00    +0.000 A 
ATOM      7  C   UNL     1      45.580   7.457  11.583  0.00  0.00    +0.000 A 
ATOM      8  C   UNL     1      46.535   8.106  12.374  0.00  0.00    +0.000 A 
BRANCH   6   9
ATOM      9  C   UNL     1      44.458   5.362  10.740  0.00  0.00    +0.000 C 
BRANCH   9  10
ATOM     10  N   UNL     1      45.113   4.749   9.615  0.00  0.00    +0.000 N 
ATOM     11  C   UNL     1      45.059   3.382   9.427  0.00  0.00    +0.000 C 
ATOM     12  O   UNL     1      44.468   2.618  10.185  0.00  0.00    +0.000 OA
ATOM     13  H   UNL     1      45.577   5.305   8.904  0.00  0.00    +0.000 HD
BRANCH  11  14
ATOM     14  C   UNL     1      45.782   2.869   8.220  0.00  0.00    +0.000 A 
ATOM     15  C   UNL     1      46.234   1.553   8.197  0.00  0.00    +0.000 A 
ATOM     16  C   UNL     1      46.924   1.111   7.074  0.00  0.00    +0.000 A 
ATOM     17  C   UNL     1      47.139   1.992   6.019  0.00  0.00    +0.000 A 
ATOM     18  C   UNL     1      46.649   3.287   6.127  0.00  0.00    +0.000 A 
ATOM     19  N   UNL     1      45.970   3.753   7.198  0.00  0.00    +0.000 NA
ENDBRANCH  11  14
ENDBRANCH   9  10
ENDBRANCH   6   9
ENDBRANCH   2   3
BRANCH   2  20
ATOM     20  N   UNL     1      48.486   7.521  15.420  0.00  0.00    +0.000 N 
ATOM     21  C   UNL     1      49.665   7.175  16.037  0.00  0.00    +0.000 C 
ATOM     22  O   UNL     1      50.763   7.362  15.524  0.00  0.00    +0.000 OA
ATOM     23  H   UNL     1      47.633   7.074  15.746  0.00  0.00    +0.000 HD
BRANCH  21  24
ATOM     24  C   UNL     1      49.554   6.623  17.391  0.00  0.00    +0.000 A 
ATOM     25  C   UNL     1      50.010   7.364  18.473  0.00  0.00    +0.000 A 
ATOM     26  S   UNL     1      49.802   6.580  19.973  0.00  0.00    +0.000 S 
ATOM     27  C   UNL     1      49.139   5.205  19.223  0.00  0.00    +0.000 A 
ATOM     28  N   UNL     1      48.775   4.116  19.953  0.00  0.00    +0.000 NA
ATOM     29  C   UNL     1      48.321   3.132  19.251  0.00  0.00    +0.000 A 
ATOM     30  N   UNL     1      48.183   3.143  17.886  0.00  0.00    +0.000 N 
ATOM     31  C   UNL     1      48.499   4.235  17.113  0.00  0.00    +0.000 A 
ATOM     32  O   UNL     1      48.305   4.241  15.902  0.00  0.00    +0.000 OA
ATOM     33  C   UNL     1      49.045   5.355  17.852  0.00  0.00    +0.000 A 
ATOM     34  H   UNL     1      47.804   2.346  17.399  0.00  0.00    +0.000 HD
ENDBRANCH  21  24
ENDBRANCH   2  20
TORSDOF 6
ENDMDL
MODEL 4
REMARK VINA RESULT:    -7.178      4.109      6.241
REMARK INTER + INTRA:         -10.939
REMARK INTER:                  -9.753
REMARK INTRA:                  -1.186
REMARK UNBOUND:                -1.243
REMARK  Name = 
REMARK  7 active torsions:
REMARK  status: ('A' for Active; 'I' for Inactive)
REMARK    1  A    between atoms: C_1  and  C_2
REMARK    2  A    between atoms: C_2  and  N_3
REMARK    3  A    between atoms: C_2  and  C_16
REMARK    4  A    between atoms: C_4  and  C_6
REMARK    5  A    between atoms: C_19  and  C_20
REMARK    6  A    between atoms: C_20  and  N_21
REMARK    7  A    between atoms: C_22  and  C_24
REMARK                            x       y       z     vdW  Elec       q    Type
REMARK                         _______ _______ _______ _____ _____    ______ ____
ROOT
ATOM      1  C   UNL     1      48.003   8.693  15.103  0.00  0.00    +0.000 C 
ATOM      2  C   UNL     1      47.731   9.157  13.664  0.00  0.00    +0.000 C 
ENDROOT
BRANCH   2   3
ATOM      3  C   UNL     1      46.773   8.193  12.975  0.00  0.00    +0.000 A 
ATOM      4  C   UNL     1      47.052   6.820  12.935  0.00  0.00    +0.000 A 
ATOM      5  C   UNL     1      46.213   5.940  12.237  0.00  0.00    +0.000 A 
ATOM      6  C   UNL     1      45.083   6.413  11.558  0.00  0.00    +0.000 A 
ATOM      7  C   UNL     1      44.769   7.774  11.649  0.00  0.00    +0.000 A 
ATOM      8  C   UNL     1      45.604   8.653  12.347  0.00  0.00    +0.000 A 
BRANCH   6   9
ATOM      9  C   UNL     1      44.247   5.491  10.712  0.00  0.00    +0.000 C 
BRANCH   9  10
ATOM     10  N   UNL     1      44.983   4.866   9.646  0.00  0.00    +0.000 N 
ATOM     11  C   UNL     1      44.894   3.505   9.431  0.00  0.00    +0.000 C 
ATOM     12  O   UNL     1      44.204   2.757  10.115  0.00  0.00    +0.000 OA
ATOM     13  H   UNL     1      45.535   5.413   8.992  0.00  0.00    +0.000 HD
BRANCH  11  14
ATOM     14  C   UNL     1      45.711   2.980   8.290  0.00  0.00    +0.000 A 
ATOM     15  C   UNL     1      46.143   1.657   8.307  0.00  0.00    +0.000 A 
ATOM     16  C   UNL     1      46.920   1.202   7.247  0.00  0.00    +0.000 A 
ATOM     17  C   UNL     1      47.238   2.078   6.214  0.00  0.00    +0.000 A 
ATOM     18  C   UNL     1      46.760   3.380   6.279  0.00  0.00    +0.000 A 
ATOM     19  N   UNL     1      45.998   3.858   7.288  0.00  0.00    +0.000 NA
ENDBRANCH  11  14
ENDBRANCH   9  10
ENDBRANCH   6   9
ENDBRANCH   2   3
BRANCH   2  20
ATOM     20  N   UNL     1      48.948   9.291  12.878  0.00  0.00    +0.000 N 
ATOM     21  C   UNL     1      49.048  10.148  11.808  0.00  0.00    +0.000 C 
ATOM     22  O   UNL     1      48.143  10.907  11.478  0.00  0.00    +0.000 OA
ATOM     23  H   UNL     1      49.584   8.499  12.910  0.00  0.00    +0.000 HD
BRANCH  21  24
ATOM     24  C   UNL     1      50.335  10.166  11.106  0.00  0.00    +0.000 A 
ATOM     25  C   UNL     1      50.849  11.371  10.646  0.00  0.00    +0.000 A 
ATOM     26  S   UNL     1      52.353  11.216   9.857  0.00  0.00    +0.000 S 
ATOM     27  C   UNL     1      52.346   9.527  10.062  0.00  0.00    +0.000 A 
ATOM     28  N   UNL     1      53.352   8.758   9.567  0.00  0.00    +0.000 NA
ATOM     29  C   UNL     1      53.200   7.490   9.763  0.00  0.00    +0.000 A 
ATOM     30  N   UNL     1      52.139   6.924  10.423  0.00  0.00    +0.000 N 
ATOM     31  C   UNL     1      51.121   7.664  10.975  0.00  0.00    +0.000 A 
ATOM     32  O   UNL     1      50.218   7.137  11.616  0.00  0.00    +0.000 OA
ATOM     33  C   UNL     1      51.229   9.092  10.752  0.00  0.00    +0.000 A 
ATOM     34  H   UNL     1      52.088   5.926  10.558  0.00  0.00    +0.000 HD
ENDBRANCH  21  24
ENDBRANCH   2  20
TORSDOF 6
ENDMDL
MODEL 5
REMARK VINA RESULT:    -7.100      4.003      9.050
REMARK INTER + INTRA:         -10.834
REMARK INTER:                  -9.825
REMARK INTRA:                  -1.009
REMARK UNBOUND:                -1.243
REMARK  Name = 
REMARK  7 active torsions:
REMARK  status: ('A' for Active; 'I' for Inactive)
REMARK    1  A    between atoms: C_1  and  C_2
REMARK    2  A    between atoms: C_2  and  N_3
REMARK    3  A    between atoms: C_2  and  C_16
REMARK    4  A    between atoms: C_4  and  C_6
REMARK    5  A    between atoms: C_19  and  C_20
REMARK    6  A    between atoms: C_20  and  N_21
REMARK    7  A    between atoms: C_22  and  C_24
REMARK                            x       y       z     vdW  Elec       q    Type
REMARK                         _______ _______ _______ _____ _____    ______ ____
ROOT
ATOM      1  C   UNL     1      49.585   7.520  12.743  0.00  0.00    +0.000 C 
ATOM      2  C   UNL     1      48.233   7.089  13.332  0.00  0.00    +0.000 C 
ENDROOT
BRANCH   2   3
ATOM      3  C   UNL     1      48.438   6.455  14.703  0.00  0.00    +0.000 A 
ATOM      4  C   UNL     1      49.461   6.903  15.549  0.00  0.00    +0.000 A 
ATOM      5  C   UNL     1      49.702   6.273  16.777  0.00  0.00    +0.000 A 
ATOM      6  C   UNL     1      48.931   5.176  17.183  0.00  0.00    +0.000 A 
ATOM      7  C   UNL     1      47.871   4.765  16.368  0.00  0.00    +0.000 A 
ATOM      8  C   UNL     1      47.628   5.395  15.143  0.00  0.00    +0.000 A 
BRANCH   6   9
ATOM      9  C   UNL     1      49.261   4.423  18.444  0.00  0.00    +0.000 C 
BRANCH   9  10
ATOM     10  N   UNL     1      50.571   3.830  18.432  0.00  0.00    +0.000 N 
ATOM     11  C   UNL     1      50.842   2.737  17.633  0.00  0.00    +0.000 C 
ATOM     12  O   UNL     1      50.009   2.210  16.902  0.00  0.00    +0.000 OA
ATOM     13  H   UNL     1      51.341   4.232  18.958  0.00  0.00    +0.000 HD
BRANCH  11  14
ATOM     14  C   UNL     1      52.244   2.214  17.712  0.00  0.00    +0.000 A 
ATOM     15  C   UNL     1      52.485   0.860  17.500  0.00  0.00    +0.000 A 
ATOM     16  C   UNL     1      53.792   0.397  17.603  0.00  0.00    +0.000 A 
ATOM     17  C   UNL     1      54.807   1.296  17.914  0.00  0.00    +0.000 A 
ATOM     18  C   UNL     1      54.475   2.631  18.106  0.00  0.00    +0.000 A 
ATOM     19  N   UNL     1      53.219   3.120  18.008  0.00  0.00    +0.000 NA
ENDBRANCH  11  14
ENDBRANCH   9  10
ENDBRANCH   6   9
ENDBRANCH   2   3
BRANCH   2  20
ATOM     20  N   UNL     1      47.511   6.171  12.466  0.00  0.00    +0.000 N 
ATOM     21  C   UNL     1      46.360   6.529  11.804  0.00  0.00    +0.000 C 
ATOM     22  O   UNL     1      45.895   7.662  11.845  0.00  0.00    +0.000 OA
ATOM     23  H   UNL     1      47.668   5.182  12.640  0.00  0.00    +0.000 HD
BRANCH  21  24
ATOM     24  C   UNL     1      45.737   5.493  10.974  0.00  0.00    +0.000 A 
ATOM     25  C   UNL     1      45.832   5.572   9.591  0.00  0.00    +0.000 A 
ATOM     26  S   UNL     1      45.058   4.288   8.778  0.00  0.00    +0.000 S 
ATOM     27  C   UNL     1      44.531   3.607  10.245  0.00  0.00    +0.000 A 
ATOM     28  N   UNL     1      43.762   2.485  10.259  0.00  0.00    +0.000 NA
ATOM     29  C   UNL     1      43.404   2.100  11.439  0.00  0.00    +0.000 A 
ATOM     30  N   UNL     1      43.758   2.727  12.607  0.00  0.00    +0.000 N 
ATOM     31  C   UNL     1      44.566   3.838  12.643  0.00  0.00    +0.000 A 
ATOM     32  O   UNL     1      44.920   4.341  13.704  0.00  0.00    +0.000 OA
ATOM     33  C   UNL     1      44.968   4.330  11.340  0.00  0.00    +0.000 A 
ATOM     34  H   UNL     1      43.459   2.364  13.499  0.00  0.00    +0.000 HD
ENDBRANCH  21  24
ENDBRANCH   2  20
TORSDOF 6
ENDMDL
MODEL 6
REMARK VINA RESULT:    -6.808      3.388      9.238
REMARK INTER + INTRA:         -10.439
REMARK INTER:                  -9.350
REMARK INTRA:                  -1.088
REMARK UNBOUND:                -1.243
REMARK  Name = 
REMARK  7 active torsions:
REMARK  status: ('A' for Active; 'I' for Inactive)
REMARK    1  A    between atoms: C_1  and  C_2
REMARK    2  A    between atoms: C_2  and  N_3
REMARK    3  A    between atoms: C_2  and  C_16
REMARK    4  A    between atoms: C_4  and  C_6
REMARK    5  A    between atoms: C_19  and  C_20
REMARK    6  A    between atoms: C_20  and  N_21
REMARK    7  A    between atoms: C_22  and  C_24
REMARK                            x       y       z     vdW  Elec       q    Type
REMARK                         _______ _______ _______ _____ _____    ______ ____
ROOT
ATOM      1  C   UNL     1      48.742   8.042  11.385  0.00  0.00    +0.000 C 
ATOM      2  C   UNL     1      47.708   7.694  12.465  0.00  0.00    +0.000 C 
ENDROOT
BRANCH   2   3
ATOM      3  C   UNL     1      48.397   7.521  13.814  0.00  0.00    +0.000 A 
ATOM      4  C   UNL     1      49.341   8.457  14.255  0.00  0.00    +0.000 A 
ATOM      5  C   UNL     1      50.033   8.263  15.458  0.00  0.00    +0.000 A 
ATOM      6  C   UNL     1      49.802   7.126  16.243  0.00  0.00    +0.000 A 
ATOM      7  C   UNL     1      48.816   6.221  15.835  0.00  0.00    +0.000 A 
ATOM      8  C   UNL     1      48.122   6.416  14.635  0.00  0.00    +0.000 A 
BRANCH   6   9
ATOM      9  C   UNL     1      50.625   6.855  17.474  0.00  0.00    +0.000 C 
BRANCH   9  10
ATOM     10  N   UNL     1      51.345   5.611  17.419  0.00  0.00    +0.000 N 
ATOM     11  C   UNL     1      50.893   4.504  18.109  0.00  0.00    +0.000 C 
ATOM     12  O   UNL     1      49.879   4.505  18.800  0.00  0.00    +0.000 OA
ATOM     13  H   UNL     1      52.163   5.497  16.827  0.00  0.00    +0.000 HD
BRANCH  11  14
ATOM     14  C   UNL     1      51.734   3.271  17.970  0.00  0.00    +0.000 A 
ATOM     15  C   UNL     1      51.159   2.101  17.484  0.00  0.00    +0.000 A 
ATOM     16  C   UNL     1      51.956   0.965  17.387  0.00  0.00    +0.000 A 
ATOM     17  C   UNL     1      53.289   1.036  17.778  0.00  0.00    +0.000 A 
ATOM     18  C   UNL     1      53.778   2.248  18.248  0.00  0.00    +0.000 A 
ATOM     19  N   UNL     1      53.039   3.374  18.351  0.00  0.00    +0.000 NA
ENDBRANCH  11  14
ENDBRANCH   9  10
ENDBRANCH   6   9
ENDBRANCH   2   3
BRANCH   2  20
ATOM     20  N   UNL     1      46.943   6.499  12.145  0.00  0.00    +0.000 N 
ATOM     21  C   UNL     1      45.570   6.494  12.074  0.00  0.00    +0.000 C 
ATOM     22  O   UNL     1      44.895   7.509  12.214  0.00  0.00    +0.000 OA
ATOM     23  H   UNL     1      47.409   5.614  12.325  0.00  0.00    +0.000 HD
BRANCH  21  24
ATOM     24  C   UNL     1      44.938   5.212  11.750  0.00  0.00    +0.000 A 
ATOM     25  C   UNL     1      44.219   4.535  12.727  0.00  0.00    +0.000 A 
ATOM     26  S   UNL     1      43.546   3.066  12.184  0.00  0.00    +0.000 S 
ATOM     27  C   UNL     1      44.231   3.261  10.639  0.00  0.00    +0.000 A 
ATOM     28  N   UNL     1      44.072   2.311   9.678  0.00  0.00    +0.000 NA
ATOM     29  C   UNL     1      44.676   2.573   8.567  0.00  0.00    +0.000 A 
ATOM     30  N   UNL     1      45.413   3.704   8.325  0.00  0.00    +0.000 N 
ATOM     31  C   UNL     1      45.567   4.707   9.251  0.00  0.00    +0.000 A 
ATOM     32  O   UNL     1      46.177   5.738   8.986  0.00  0.00    +0.000 OA
ATOM     33  C   UNL     1      44.935   4.446  10.529  0.00  0.00    +0.000 A 
ATOM     34  H   UNL     1      45.846   3.856   7.426  0.00  0.00    +0.000 HD
ENDBRANCH  21  24
ENDBRANCH   2  20
TORSDOF 6
ENDMDL
MODEL 7
REMARK VINA RESULT:    -6.682      2.141      2.938
REMARK INTER + INTRA:         -10.269
REMARK INTER:                  -9.724
REMARK INTRA:                  -0.545
REMARK UNBOUND:                -1.243
REMARK  Name = 
REMARK  7 active torsions:
REMARK  status: ('A' for Active; 'I' for Inactive)
REMARK    1  A    between atoms: C_1  and  C_2
REMARK    2  A    between atoms: C_2  and  N_3
REMARK    3  A    between atoms: C_2  and  C_16
REMARK    4  A    between atoms: C_4  and  C_6
REMARK    5  A    between atoms: C_19  and  C_20
REMARK    6  A    between atoms: C_20  and  N_21
REMARK    7  A    between atoms: C_22  and  C_24
REMARK                            x       y       z     vdW  Elec       q    Type
REMARK                         _______ _______ _______ _____ _____    ______ ____
ROOT
ATOM      1  C   UNL     1      47.877   9.342  14.975  0.00  0.00    +0.000 C 
ATOM      2  C   UNL     1      48.365   7.984  14.447  0.00  0.00    +0.000 C 
ENDROOT
BRANCH   2   3
ATOM      3  C   UNL     1      47.293   7.348  13.570  0.00  0.00    +0.000 A 
ATOM      4  C   UNL     1      47.214   5.955  13.442  0.00  0.00    +0.000 A 
ATOM      5  C   UNL     1      46.280   5.368  12.577  0.00  0.00    +0.000 A 
ATOM      6  C   UNL     1      45.410   6.160  11.817  0.00  0.00    +0.000 A 
ATOM      7  C   UNL     1      45.447   7.549  11.989  0.00  0.00    +0.000 A 
ATOM      8  C   UNL     1      46.377   8.135  12.854  0.00  0.00    +0.000 A 
BRANCH   6   9
ATOM      9  C   UNL     1      44.487   5.541  10.802  0.00  0.00    +0.000 C 
BRANCH   9  10
ATOM     10  N   UNL     1      45.178   4.881   9.726  0.00  0.00    +0.000 N 
ATOM     11  C   UNL     1      44.869   3.581   9.382  0.00  0.00    +0.000 C 
ATOM     12  O   UNL     1      44.010   2.916   9.953  0.00  0.00    +0.000 OA
ATOM     13  H   UNL     1      45.863   5.371   9.158  0.00  0.00    +0.000 HD
BRANCH  11  14
ATOM     14  C   UNL     1      45.661   3.010   8.245  0.00  0.00    +0.000 A 
ATOM     15  C   UNL     1      46.112   1.696   8.315  0.00  0.00    +0.000 A 
ATOM     16  C   UNL     1      46.866   1.199   7.257  0.00  0.00    +0.000 A 
ATOM     17  C   UNL     1      47.143   2.027   6.174  0.00  0.00    +0.000 A 
ATOM     18  C   UNL     1      46.650   3.325   6.189  0.00  0.00    +0.000 A 
ATOM     19  N   UNL     1      45.909   3.842   7.194  0.00  0.00    +0.000 NA
ENDBRANCH  11  14
ENDBRANCH   9  10
ENDBRANCH   6   9
ENDBRANCH   2   3
BRANCH   2  20
ATOM     20  N   UNL     1      48.738   7.069  15.514  0.00  0.00    +0.000 N 
ATOM     21  C   UNL     1      49.966   7.112  16.131  0.00  0.00    +0.000 C 
ATOM     22  O   UNL     1      50.811   7.962  15.871  0.00  0.00    +0.000 OA
ATOM     23  H   UNL     1      48.225   6.193  15.545  0.00  0.00    +0.000 HD
BRANCH  21  24
ATOM     24  C   UNL     1      50.202   6.118  17.183  0.00  0.00    +0.000 A 
ATOM     25  C   UNL     1      49.153   5.721  18.001  0.00  0.00    +0.000 A 
ATOM     26  S   UNL     1      49.597   4.558  19.166  0.00  0.00    +0.000 S 
ATOM     27  C   UNL     1      51.217   4.580  18.648  0.00  0.00    +0.000 A 
ATOM     28  N   UNL     1      52.160   3.823  19.270  0.00  0.00    +0.000 NA
ATOM     29  C   UNL     1      53.354   3.965  18.796  0.00  0.00    +0.000 A 
ATOM     30  N   UNL     1      53.686   4.785  17.748  0.00  0.00    +0.000 N 
ATOM     31  C   UNL     1      52.760   5.536  17.064  0.00  0.00    +0.000 A 
ATOM     32  O   UNL     1      53.074   6.211  16.089  0.00  0.00    +0.000 OA
ATOM     33  C   UNL     1      51.409   5.436  17.580  0.00  0.00    +0.000 A 
ATOM     34  H   UNL     1      54.637   4.837  17.414  0.00  0.00    +0.000 HD
ENDBRANCH  21  24
ENDBRANCH   2  20
TORSDOF 6
ENDMDL
MODEL 8
REMARK VINA RESULT:    -6.565      4.852      8.079
REMARK INTER + INTRA:         -10.112
REMARK INTER:                  -9.060
REMARK INTRA:                  -1.052
REMARK UNBOUND:                -1.243
REMARK  Name = 
REMARK  7 active torsions:
REMARK  status: ('A' for Active; 'I' for Inactive)
REMARK    1  A    between atoms: C_1  and  C_2
REMARK    2  A    between atoms: C_2  and  N_3
REMARK    3  A    between atoms: C_2  and  C_16
REMARK    4  A    between atoms: C_4  and  C_6
REMARK    5  A    between atoms: C_19  and  C_20
REMARK    6  A    between atoms: C_20  and  N_21
REMARK    7  A    between atoms: C_22  and  C_24
REMARK                            x       y       z     vdW  Elec       q    Type
REMARK                         _______ _______ _______ _____ _____    ______ ____
ROOT
ATOM      1  C   UNL     1      45.076   9.433  12.494  0.00  0.00    +0.000 C 
ATOM      2  C   UNL     1      45.938   8.187  12.746  0.00  0.00    +0.000 C 
ENDROOT
BRANCH   2   3
ATOM      3  C   UNL     1      47.354   8.417  12.231  0.00  0.00    +0.000 A 
ATOM      4  C   UNL     1      48.258   7.351  12.134  0.00  0.00    +0.000 A 
ATOM      5  C   UNL     1      49.583   7.570  11.735  0.00  0.00    +0.000 A 
ATOM      6  C   UNL     1      50.036   8.860  11.430  0.00  0.00    +0.000 A 
ATOM      7  C   UNL     1      49.119   9.917  11.468  0.00  0.00    +0.000 A 
ATOM      8  C   UNL     1      47.795   9.699  11.864  0.00  0.00    +0.000 A 
BRANCH   6   9
ATOM      9  C   UNL     1      51.485   9.117  11.115  0.00  0.00    +0.000 C 
BRANCH   9  10
ATOM     10  N   UNL     1      52.041   8.181  10.175  0.00  0.00    +0.000 N 
ATOM     11  C   UNL     1      53.161   7.440  10.497  0.00  0.00    +0.000 C 
ATOM     12  O   UNL     1      53.744   7.529  11.573  0.00  0.00    +0.000 OA
ATOM     13  H   UNL     1      51.593   7.997   9.282  0.00  0.00    +0.000 HD
BRANCH  11  14
ATOM     14  C   UNL     1      53.640   6.502   9.431  0.00  0.00    +0.000 A 
ATOM     15  C   UNL     1      52.950   6.425   8.224  0.00  0.00    +0.000 A 
ATOM     16  C   UNL     1      53.402   5.528   7.262  0.00  0.00    +0.000 A 
ATOM     17  C   UNL     1      54.518   4.744   7.536  0.00  0.00    +0.000 A 
ATOM     18  C   UNL     1      55.144   4.890   8.767  0.00  0.00    +0.000 A 
ATOM     19  N   UNL     1      54.741   5.754   9.725  0.00  0.00    +0.000 NA
ENDBRANCH  11  14
ENDBRANCH   9  10
ENDBRANCH   6   9
ENDBRANCH   2   3
BRANCH   2  20
ATOM     20  N   UNL     1      45.381   6.988  12.140  0.00  0.00    +0.000 N 
ATOM     21  C   UNL     1      45.434   5.757  12.750  0.00  0.00    +0.000 C 
ATOM     22  O   UNL     1      45.897   5.592  13.873  0.00  0.00    +0.000 OA
ATOM     23  H   UNL     1      45.277   7.010  11.130  0.00  0.00    +0.000 HD
BRANCH  21  24
ATOM     24  C   UNL     1      44.838   4.638  12.013  0.00  0.00    +0.000 A 
ATOM     25  C   UNL     1      44.056   3.710  12.687  0.00  0.00    +0.000 A 
ATOM     26  S   UNL     1      43.438   2.479  11.682  0.00  0.00    +0.000 S 
ATOM     27  C   UNL     1      44.233   3.118  10.321  0.00  0.00    +0.000 A 
ATOM     28  N   UNL     1      44.153   2.501   9.111  0.00  0.00    +0.000 NA
ATOM     29  C   UNL     1      44.835   3.074   8.176  0.00  0.00    +0.000 A 
ATOM     30  N   UNL     1      45.578   4.216   8.337  0.00  0.00    +0.000 N 
ATOM     31  C   UNL     1      45.654   4.895   9.530  0.00  0.00    +0.000 A 
ATOM     32  O   UNL     1      46.272   5.949   9.630  0.00  0.00    +0.000 OA
ATOM     33  C   UNL     1      44.932   4.272  10.621  0.00  0.00    +0.000 A 
ATOM     34  H   UNL     1      46.074   4.624   7.559  0.00  0.00    +0.000 HD
ENDBRANCH  21  24
ENDBRANCH   2  20
TORSDOF 6
ENDMDL
MODEL 9
REMARK VINA RESULT:    -6.455      3.979      8.330
REMARK INTER + INTRA:          -9.962
REMARK INTER:                  -8.415
REMARK INTRA:                  -1.547
REMARK UNBOUND:                -1.243
REMARK  Name = 
REMARK  7 active torsions:
REMARK  status: ('A' for Active; 'I' for Inactive)
REMARK    1  A    between atoms: C_1  and  C_2
REMARK    2  A    between atoms: C_2  and  N_3
REMARK    3  A    between atoms: C_2  and  C_16
REMARK    4  A    between atoms: C_4  and  C_6
REMARK    5  A    between atoms: C_19  and  C_20
REMARK    6  A    between atoms: C_20  and  N_21
REMARK    7  A    between atoms: C_22  and  C_24
REMARK                            x       y       z     vdW  Elec       q    Type
REMARK                         _______ _______ _______ _____ _____    ______ ____
ROOT
ATOM      1  C   UNL     1      49.474   9.576  11.514  0.00  0.00    +0.000 C 
ATOM      2  C   UNL     1      48.459   9.252  12.620  0.00  0.00    +0.000 C 
ENDROOT
BRANCH   2   3
ATOM      3  C   UNL     1      49.186   8.903  13.913  0.00  0.00    +0.000 A 
ATOM      4  C   UNL     1      50.307   8.062  13.894  0.00  0.00    +0.000 A 
ATOM      5  C   UNL     1      50.932   7.676  15.087  0.00  0.00    +0.000 A 
ATOM      6  C   UNL     1      50.448   8.117  16.326  0.00  0.00    +0.000 A 
ATOM      7  C   UNL     1      49.368   9.006  16.343  0.00  0.00    +0.000 A 
ATOM      8  C   UNL     1      48.744   9.394  15.152  0.00  0.00    +0.000 A 
BRANCH   6   9
ATOM      9  C   UNL     1      51.044   7.614  17.613  0.00  0.00    +0.000 C 
BRANCH   9  10
ATOM     10  N   UNL     1      51.422   6.227  17.565  0.00  0.00    +0.000 N 
ATOM     11  C   UNL     1      50.486   5.233  17.769  0.00  0.00    +0.000 C 
ATOM     12  O   UNL     1      49.302   5.457  18.001  0.00  0.00    +0.000 OA
ATOM     13  H   UNL     1      52.367   5.943  17.322  0.00  0.00    +0.000 HD
BRANCH  11  14
ATOM     14  C   UNL     1      51.009   3.831  17.693  0.00  0.00    +0.000 A 
ATOM     15  C   UNL     1      52.280   3.545  18.183  0.00  0.00    +0.000 A 
ATOM     16  C   UNL     1      52.750   2.240  18.078  0.00  0.00    +0.000 A 
ATOM     17  C   UNL     1      51.942   1.273  17.490  0.00  0.00    +0.000 A 
ATOM     18  C   UNL     1      50.686   1.649  17.031  0.00  0.00    +0.000 A 
ATOM     19  N   UNL     1      50.191   2.903  17.120  0.00  0.00    +0.000 NA
ENDBRANCH  11  14
ENDBRANCH   9  10
ENDBRANCH   6   9
ENDBRANCH   2   3
BRANCH   2  20
ATOM     20  N   UNL     1      47.557   8.171  12.253  0.00  0.00    +0.000 N 
ATOM     21  C   UNL     1      46.238   8.145  12.639  0.00  0.00    +0.000 C 
ATOM     22  O   UNL     1      45.710   9.058  13.264  0.00  0.00    +0.000 OA
ATOM     23  H   UNL     1      47.999   7.286  12.021  0.00  0.00    +0.000 HD
BRANCH  21  24
ATOM     24  C   UNL     1      45.454   6.985  12.202  0.00  0.00    +0.000 A 
ATOM     25  C   UNL     1      44.309   7.177  11.440  0.00  0.00    +0.000 A 
ATOM     26  S   UNL     1      43.521   5.727  11.013  0.00  0.00    +0.000 S 
ATOM     27  C   UNL     1      44.656   4.795  11.872  0.00  0.00    +0.000 A 
ATOM     28  N   UNL     1      44.536   3.442  11.948  0.00  0.00    +0.000 NA
ATOM     29  C   UNL     1      45.447   2.867  12.661  0.00  0.00    +0.000 A 
ATOM     30  N   UNL     1      46.474   3.520  13.293  0.00  0.00    +0.000 N 
ATOM     31  C   UNL     1      46.658   4.880  13.210  0.00  0.00    +0.000 A 
ATOM     32  O   UNL     1      47.622   5.431  13.730  0.00  0.00    +0.000 OA
ATOM     33  C   UNL     1      45.641   5.577  12.446  0.00  0.00    +0.000 A 
ATOM     34  H   UNL     1      47.164   3.009  13.821  0.00  0.00    +0.000 HD
ENDBRANCH  21  24
ENDBRANCH   2  20
TORSDOF 6
ENDMDL
