MODEL 1
REMARK VINA RESULT:    -8.229      0.000      0.000
REMARK INTER + INTRA:         -12.384
REMARK INTER:                 -11.116
REMARK INTRA:                  -1.268
REMARK UNBOUND:                -1.268
REMARK  Name = 
REMARK  7 active torsions:
REMARK  status: ('A' for Active; 'I' for Inactive)
REMARK    1  A    between atoms: C_1  and  C_2
REMARK    2  A    between atoms: C_2  and  N_3
REMARK    3  A    between atoms: C_2  and  C_16
REMARK    4  A    between atoms: C_4  and  C_6
REMARK    5  A    between atoms: C_19  and  C_20
REMARK    6  A    between atoms: C_20  and  N_21
REMARK    7  A    between atoms: C_22  and  C_24
REMARK                            x       y       z     vdW  Elec       q    Type
REMARK                         _______ _______ _______ _____ _____    ______ ____
ROOT
ATOM      1  C   UNL     1      48.194   8.865  13.072  0.00  0.00    +0.000 C 
ATOM      2  C   UNL     1      47.414   7.943  14.016  0.00  0.00    +0.000 C 
ENDROOT
BRANCH   2   3
ATOM      3  C   UNL     1      46.335   7.208  13.235  0.00  0.00    +0.000 A 
ATOM      4  C   UNL     1      45.550   7.926  12.320  0.00  0.00    +0.000 A 
ATOM      5  C   UNL     1      44.713   7.266  11.417  0.00  0.00    +0.000 A 
ATOM      6  C   UNL     1      44.615   5.872  11.423  0.00  0.00    +0.000 A 
ATOM      7  C   UNL     1      45.340   5.153  12.385  0.00  0.00    +0.000 A 
ATOM      8  C   UNL     1      46.186   5.814  13.286  0.00  0.00    +0.000 A 
BRANCH   6   9
ATOM      9  C   UNL     1      43.781   5.163  10.383  0.00  0.00    +0.000 C 
BRANCH   9  10
ATOM     10  N   UNL     1      44.596   4.523   9.375  0.00  0.00    +0.000 N 
ATOM     11  C   UNL     1      44.818   3.161   9.377  0.00  0.00    +0.000 C 
ATOM     12  O   UNL     1      44.347   2.398  10.214  0.00  0.00    +0.000 OA
ATOM     13  H   UNL     1      44.993   5.057   8.607  0.00  0.00    +0.000 HD
BRANCH  11  14
ATOM     14  C   UNL     1      45.698   2.658   8.269  0.00  0.00    +0.000 A 
ATOM     15  C   UNL     1      45.995   3.484   7.189  0.00  0.00    +0.000 A 
ATOM     16  C   UNL     1      46.788   2.973   6.165  0.00  0.00    +0.000 A 
ATOM     17  C   UNL     1      47.252   1.664   6.251  0.00  0.00    +0.000 A 
ATOM     18  C   UNL     1      46.910   0.915   7.368  0.00  0.00    +0.000 A 
ATOM     19  N   UNL     1      46.149   1.377   8.385  0.00  0.00    +0.000 NA
ENDBRANCH  11  14
ENDBRANCH   9  10
ENDBRANCH   6   9
ENDBRANCH   2   3
BRANCH   2  20
ATOM     20  N   UNL     1      48.294   7.048  14.745  0.00  0.00    +0.000 N 
ATOM     21  C   UNL     1      48.813   7.399  15.972  0.00  0.00    +0.000 C 
ATOM     22  O   UNL     1      48.487   8.430  16.553  0.00  0.00    +0.000 OA
ATOM     23  H   UNL     1      48.717   6.284  14.233  0.00  0.00    +0.000 HD
BRANCH  21  24
ATOM     24  C   UNL     1      49.751   6.453  16.586  0.00  0.00    +0.000 A 
ATOM     25  C   UNL     1      51.047   6.854  16.880  0.00  0.00    +0.000 A 
ATOM     26  S   UNL     1      52.010   5.615  17.549  0.00  0.00    +0.000 S 
ATOM     27  C   UNL     1      50.748   4.486  17.413  0.00  0.00    +0.000 A 
ATOM     28  N   UNL     1      50.932   3.181  17.751  0.00  0.00    +0.000 NA
ATOM     29  C   UNL     1      49.906   2.428  17.542  0.00  0.00    +0.000 A 
ATOM     30  N   UNL     1      48.702   2.863  17.051  0.00  0.00    +0.000 N 
ATOM     31  C   UNL     1      48.443   4.186  16.773  0.00  0.00    +0.000 A 
ATOM     32  O   UNL     1      47.316   4.570  16.464  0.00  0.00    +0.000 OA
ATOM     33  C   UNL     1      49.589   5.061  16.921  0.00  0.00    +0.000 A 
ATOM     34  H   UNL     1      47.927   2.225  16.946  0.00  0.00    +0.000 HD
ENDBRANCH  21  24
ENDBRANCH   2  20
TORSDOF 6
ENDMDL
MODEL 2
REMARK VINA RESULT:    -8.002      1.438      2.009
REMARK INTER + INTRA:         -12.077
REMARK INTER:                 -11.066
REMARK INTRA:                  -1.011
REMARK UNBOUND:                -1.268
REMARK  Name = 
REMARK  7 active torsions:
REMARK  status: ('A' for Active; 'I' for Inactive)
REMARK    1  A    between atoms: C_1  and  C_2
REMARK    2  A    between atoms: C_2  and  N_3
REMARK    3  A    between atoms: C_2  and  C_16
REMARK    4  A    between atoms: C_4  and  C_6
REMARK    5  A    between atoms: C_19  and  C_20
REMARK    6  A    between atoms: C_20  and  N_21
REMARK    7  A    between atoms: C_22  and  C_24
REMARK                            x       y       z     vdW  Elec       q    Type
REMARK                         _______ _______ _______ _____ _____    ______ ____
ROOT
ATOM      1  C   UNL     1      49.018   8.670  14.736  0.00  0.00    +0.000 C 
ATOM      2  C   UNL     1      48.481   7.303  15.175  0.00  0.00    +0.000 C 
ENDROOT
BRANCH   2   3
ATOM      3  C   UNL     1      47.728   6.657  14.021  0.00  0.00    +0.000 A 
ATOM      4  C   UNL     1      47.100   5.419  14.228  0.00  0.00    +0.000 A 
ATOM      5  C   UNL     1      46.211   4.897  13.286  0.00  0.00    +0.000 A 
ATOM      6  C   UNL     1      45.946   5.584  12.098  0.00  0.00    +0.000 A 
ATOM      7  C   UNL     1      46.626   6.786  11.852  0.00  0.00    +0.000 A 
ATOM      8  C   UNL     1      47.514   7.314  12.800  0.00  0.00    +0.000 A 
BRANCH   6   9
ATOM      9  C   UNL     1      44.913   5.060  11.130  0.00  0.00    +0.000 C 
BRANCH   9  10
ATOM     10  N   UNL     1      45.514   4.494   9.944  0.00  0.00    +0.000 N 
ATOM     11  C   UNL     1      45.100   3.284   9.426  0.00  0.00    +0.000 C 
ATOM     12  O   UNL     1      44.201   2.608   9.917  0.00  0.00    +0.000 OA
ATOM     13  H   UNL     1      46.233   4.996   9.431  0.00  0.00    +0.000 HD
BRANCH  11  14
ATOM     14  C   UNL     1      45.837   2.830   8.198  0.00  0.00    +0.000 A 
ATOM     15  C   UNL     1      46.317   1.526   8.120  0.00  0.00    +0.000 A 
ATOM     16  C   UNL     1      47.022   1.150   6.980  0.00  0.00    +0.000 A 
ATOM     17  C   UNL     1      47.227   2.081   5.967  0.00  0.00    +0.000 A 
ATOM     18  C   UNL     1      46.707   3.358   6.130  0.00  0.00    +0.000 A 
ATOM     19  N   UNL     1      46.012   3.759   7.216  0.00  0.00    +0.000 NA
ENDBRANCH  11  14
ENDBRANCH   9  10
ENDBRANCH   6   9
ENDBRANCH   2   3
BRANCH   2  20
ATOM     20  N   UNL     1      49.533   6.457  15.708  0.00  0.00    +0.000 N 
ATOM     21  C   UNL     1      49.442   5.914  16.970  0.00  0.00    +0.000 C 
ATOM     22  O   UNL     1      48.438   6.033  17.666  0.00  0.00    +0.000 OA
ATOM     23  H   UNL     1      50.435   6.478  15.247  0.00  0.00    +0.000 HD
BRANCH  21  24
ATOM     24  C   UNL     1      50.595   5.136  17.439  0.00  0.00    +0.000 A 
ATOM     25  C   UNL     1      51.717   5.789  17.931  0.00  0.00    +0.000 A 
ATOM     26  S   UNL     1      52.975   4.732  18.389  0.00  0.00    +0.000 S 
ATOM     27  C   UNL     1      52.088   3.372  17.889  0.00  0.00    +0.000 A 
ATOM     28  N   UNL     1      52.626   2.123  17.941  0.00  0.00    +0.000 NA
ATOM     29  C   UNL     1      51.861   1.195  17.476  0.00  0.00    +0.000 A 
ATOM     30  N   UNL     1      50.595   1.394  16.988  0.00  0.00    +0.000 N 
ATOM     31  C   UNL     1      49.979   2.625  16.993  0.00  0.00    +0.000 A 
ATOM     32  O   UNL     1      48.797   2.754  16.677  0.00  0.00    +0.000 OA
ATOM     33  C   UNL     1      50.826   3.714  17.436  0.00  0.00    +0.000 A 
ATOM     34  H   UNL     1      50.035   0.616  16.673  0.00  0.00    +0.000 HD
ENDBRANCH  21  24
ENDBRANCH   2  20
TORSDOF 6
ENDMDL
MODEL 3
REMARK VINA RESULT:    -7.759      2.330      3.787
REMARK INTER + INTRA:         -11.749
REMARK INTER:                 -10.528
REMARK INTRA:                  -1.221
REMARK UNBOUND:                -1.268
REMARK  Name = 
REMARK  7 active torsions:
REMARK  status: ('A' for Active; 'I' for Inactive)
REMARK    1  A    between atoms: C_1  and  C_2
REMARK    2  A    between atoms: C_2  and  N_3
REMARK    3  A    between atoms: C_2  and  C_16
REMARK    4  A    between atoms: C_4  and  C_6
REMARK    5  A    between atoms: C_19  and  C_20
REMARK    6  A    between atoms: C_20  and  N_21
REMARK    7  A    between atoms: C_22  and  C_24
REMARK                            x       y       z     vdW  Elec       q    Type
REMARK                         _______ _______ _______ _____ _____    ______ ____
ROOT
ATOM      1  C   UNL     1      47.469   3.577  15.985  0.00  0.00    +0.000 C 
ATOM      2  C   UNL     1      47.901   4.889  15.320  0.00  0.00    +0.000 C 
ENDROOT
BRANCH   2   3
ATOM      3  C   UNL     1      46.952   5.220  14.179  0.00  0.00    +0.000 A 
ATOM      4  C   UNL     1      47.355   6.147  13.206  0.00  0.00    +0.000 A 
ATOM      5  C   UNL     1      46.629   6.312  12.024  0.00  0.00    +0.000 A 
ATOM      6  C   UNL     1      45.463   5.577  11.795  0.00  0.00    +0.000 A 
ATOM      7  C   UNL     1      45.013   4.702  12.795  0.00  0.00    +0.000 A 
ATOM      8  C   UNL     1      45.746   4.530  13.978  0.00  0.00    +0.000 A 
BRANCH   6   9
ATOM      9  C   UNL     1      44.737   5.692  10.476  0.00  0.00    +0.000 C 
BRANCH   9  10
ATOM     10  N   UNL     1      45.392   4.946   9.426  0.00  0.00    +0.000 N 
ATOM     11  C   UNL     1      45.060   3.635   9.150  0.00  0.00    +0.000 C 
ATOM     12  O   UNL     1      44.195   3.012   9.758  0.00  0.00    +0.000 OA
ATOM     13  H   UNL     1      46.088   5.383   8.829  0.00  0.00    +0.000 HD
BRANCH  11  14
ATOM     14  C   UNL     1      45.845   3.000   8.038  0.00  0.00    +0.000 A 
ATOM     15  C   UNL     1      46.261   1.677   8.151  0.00  0.00    +0.000 A 
ATOM     16  C   UNL     1      47.013   1.131   7.114  0.00  0.00    +0.000 A 
ATOM     17  C   UNL     1      47.324   1.918   6.009  0.00  0.00    +0.000 A 
ATOM     18  C   UNL     1      46.861   3.225   5.981  0.00  0.00    +0.000 A 
ATOM     19  N   UNL     1      46.124   3.790   6.962  0.00  0.00    +0.000 NA
ENDBRANCH  11  14
ENDBRANCH   9  10
ENDBRANCH   6   9
ENDBRANCH   2   3
BRANCH   2  20
ATOM     20  N   UNL     1      48.024   5.967  16.284  0.00  0.00    +0.000 N 
ATOM     21  C   UNL     1      49.225   6.244  16.898  0.00  0.00    +0.000 C 
ATOM     22  O   UNL     1      50.266   5.667  16.596  0.00  0.00    +0.000 OA
ATOM     23  H   UNL     1      47.171   6.343  16.683  0.00  0.00    +0.000 HD
BRANCH  21  24
ATOM     24  C   UNL     1      49.220   7.305  17.912  0.00  0.00    +0.000 A 
ATOM     25  C   UNL     1      49.643   7.030  19.205  0.00  0.00    +0.000 A 
ATOM     26  S   UNL     1      49.528   8.366  20.259  0.00  0.00    +0.000 S 
ATOM     27  C   UNL     1      48.854   9.339  19.040  0.00  0.00    +0.000 A 
ATOM     28  N   UNL     1      48.447  10.611  19.300  0.00  0.00    +0.000 NA
ATOM     29  C   UNL     1      47.902  11.211  18.296  0.00  0.00    +0.000 A 
ATOM     30  N   UNL     1      47.750  10.666  17.047  0.00  0.00    +0.000 N 
ATOM     31  C   UNL     1      48.221   9.416  16.715  0.00  0.00    +0.000 A 
ATOM     32  O   UNL     1      48.194   9.005  15.556  0.00  0.00    +0.000 OA
ATOM     33  C   UNL     1      48.774   8.673  17.830  0.00  0.00    +0.000 A 
ATOM     34  H   UNL     1      47.347  11.205  16.295  0.00  0.00    +0.000 HD
ENDBRANCH  21  24
ENDBRANCH   2  20
TORSDOF 6
ENDMDL
MODEL 4
REMARK VINA RESULT:    -7.734      1.807      2.044
REMARK INTER + INTRA:         -11.715
REMARK INTER:                 -10.574
REMARK INTRA:                  -1.141
REMARK UNBOUND:                -1.268
REMARK  Name = 
REMARK  7 active torsions:
REMARK  status: ('A' for Active; 'I' for Inactive)
REMARK    1  A    between atoms: C_1  and  C_2
REMARK    2  A    between atoms: C_2  and  N_3
REMARK    3  A    between atoms: C_2  and  C_16
REMARK    4  A    between atoms: C_4  and  C_6
REMARK    5  A    between atoms: C_19  and  C_20
REMARK    6  A    between atoms: C_20  and  N_21
REMARK    7  A    between atoms: C_22  and  C_24
REMARK                            x       y       z     vdW  Elec       q    Type
REMARK                         _______ _______ _______ _____ _____    ______ ____
ROOT
ATOM      1  C   UNL     1      49.350   7.591  13.313  0.00  0.00    +0.000 C 
ATOM      2  C   UNL     1      48.019   7.905  14.005  0.00  0.00    +0.000 C 
ENDROOT
BRANCH   2   3
ATOM      3  C   UNL     1      46.885   7.204  13.273  0.00  0.00    +0.000 A 
ATOM      4  C   UNL     1      46.087   7.945  12.389  0.00  0.00    +0.000 A 
ATOM      5  C   UNL     1      45.191   7.310  11.524  0.00  0.00    +0.000 A 
ATOM      6  C   UNL     1      45.048   5.920  11.540  0.00  0.00    +0.000 A 
ATOM      7  C   UNL     1      45.789   5.180  12.473  0.00  0.00    +0.000 A 
ATOM      8  C   UNL     1      46.693   5.815  13.336  0.00  0.00    +0.000 A 
BRANCH   6   9
ATOM      9  C   UNL     1      44.149   5.236  10.539  0.00  0.00    +0.000 C 
BRANCH   9  10
ATOM     10  N   UNL     1      44.899   4.574   9.496  0.00  0.00    +0.000 N 
ATOM     11  C   UNL     1      44.940   3.199   9.391  0.00  0.00    +0.000 C 
ATOM     12  O   UNL     1      44.351   2.442  10.157  0.00  0.00    +0.000 OA
ATOM     13  H   UNL     1      45.383   5.108   8.779  0.00  0.00    +0.000 HD
BRANCH  11  14
ATOM     14  C   UNL     1      45.776   2.670   8.260  0.00  0.00    +0.000 A 
ATOM     15  C   UNL     1      46.063   3.486   7.170  0.00  0.00    +0.000 A 
ATOM     16  C   UNL     1      46.814   2.953   6.126  0.00  0.00    +0.000 A 
ATOM     17  C   UNL     1      47.247   1.633   6.203  0.00  0.00    +0.000 A 
ATOM     18  C   UNL     1      46.918   0.896   7.332  0.00  0.00    +0.000 A 
ATOM     19  N   UNL     1      46.197   1.379   8.368  0.00  0.00    +0.000 NA
ENDBRANCH  11  14
ENDBRANCH   9  10
ENDBRANCH   6   9
ENDBRANCH   2   3
BRANCH   2  20
ATOM     20  N   UNL     1      48.060   7.587  15.421  0.00  0.00    +0.000 N 
ATOM     21  C   UNL     1      48.527   8.496  16.344  0.00  0.00    +0.000 C 
ATOM     22  O   UNL     1      48.837   9.644  16.038  0.00  0.00    +0.000 OA
ATOM     23  H   UNL     1      47.981   6.613  15.688  0.00  0.00    +0.000 HD
BRANCH  21  24
ATOM     24  C   UNL     1      48.596   8.045  17.739  0.00  0.00    +0.000 A 
ATOM     25  C   UNL     1      48.072   8.838  18.751  0.00  0.00    +0.000 A 
ATOM     26  S   UNL     1      48.279   8.179  20.310  0.00  0.00    +0.000 S 
ATOM     27  C   UNL     1      49.127   6.843  19.692  0.00  0.00    +0.000 A 
ATOM     28  N   UNL     1      49.662   5.905  20.521  0.00  0.00    +0.000 NA
ATOM     29  C   UNL     1      50.327   4.980  19.917  0.00  0.00    +0.000 A 
ATOM     30  N   UNL     1      50.487   4.889  18.558  0.00  0.00    +0.000 N 
ATOM     31  C   UNL     1      49.896   5.766  17.677  0.00  0.00    +0.000 A 
ATOM     32  O   UNL     1      49.940   5.585  16.461  0.00  0.00    +0.000 OA
ATOM     33  C   UNL     1      49.199   6.868  18.311  0.00  0.00    +0.000 A 
ATOM     34  H   UNL     1      50.990   4.117  18.148  0.00  0.00    +0.000 HD
ENDBRANCH  21  24
ENDBRANCH   2  20
TORSDOF 6
ENDMDL
MODEL 5
REMARK VINA RESULT:    -7.648      4.274      7.023
REMARK INTER + INTRA:         -11.599
REMARK INTER:                 -10.424
REMARK INTRA:                  -1.175
REMARK UNBOUND:                -1.268
REMARK  Name = 
REMARK  7 active torsions:
REMARK  status: ('A' for Active; 'I' for Inactive)
REMARK    1  A    between atoms: C_1  and  C_2
REMARK    2  A    between atoms: C_2  and  N_3
REMARK    3  A    between atoms: C_2  and  C_16
REMARK    4  A    between atoms: C_4  and  C_6
REMARK    5  A    between atoms: C_19  and  C_20
REMARK    6  A    between atoms: C_20  and  N_21
REMARK    7  A    between atoms: C_22  and  C_24
REMARK                            x       y       z     vdW  Elec       q    Type
REMARK                         _______ _______ _______ _____ _____    ______ ____
ROOT
ATOM      1  C   UNL     1      44.447   4.494  13.226  0.00  0.00    +0.000 C 
ATOM      2  C   UNL     1      45.803   5.200  13.123  0.00  0.00    +0.000 C 
ENDROOT
BRANCH   2   3
ATOM      3  C   UNL     1      45.609   6.596  12.550  0.00  0.00    +0.000 A 
ATOM      4  C   UNL     1      44.660   6.787  11.534  0.00  0.00    +0.000 A 
ATOM      5  C   UNL     1      44.279   8.072  11.138  0.00  0.00    +0.000 A 
ATOM      6  C   UNL     1      44.857   9.200  11.727  0.00  0.00    +0.000 A 
ATOM      7  C   UNL     1      45.859   9.016  12.691  0.00  0.00    +0.000 A 
ATOM      8  C   UNL     1      46.236   7.727  13.094  0.00  0.00    +0.000 A 
BRANCH   6   9
ATOM      9  C   UNL     1      44.371  10.582  11.361  0.00  0.00    +0.000 C 
BRANCH   9  10
ATOM     10  N   UNL     1      43.127  10.914  12.017  0.00  0.00    +0.000 N 
ATOM     11  C   UNL     1      41.924  10.900  11.343  0.00  0.00    +0.000 C 
ATOM     12  O   UNL     1      41.813  10.604  10.157  0.00  0.00    +0.000 OA
ATOM     13  H   UNL     1      43.099  11.126  13.011  0.00  0.00    +0.000 HD
BRANCH  11  14
ATOM     14  C   UNL     1      40.727  11.284  12.166  0.00  0.00    +0.000 A 
ATOM     15  C   UNL     1      39.456  10.869  11.778  0.00  0.00    +0.000 A 
ATOM     16  C   UNL     1      38.368  11.269  12.549  0.00  0.00    +0.000 A 
ATOM     17  C   UNL     1      38.581  12.066  13.668  0.00  0.00    +0.000 A 
ATOM     18  C   UNL     1      39.884  12.427  13.982  0.00  0.00    +0.000 A 
ATOM     19  N   UNL     1      40.967  12.054  13.265  0.00  0.00    +0.000 NA
ENDBRANCH  11  14
ENDBRANCH   9  10
ENDBRANCH   6   9
ENDBRANCH   2   3
BRANCH   2  20
ATOM     20  N   UNL     1      46.508   5.203  14.392  0.00  0.00    +0.000 N 
ATOM     21  C   UNL     1      47.192   4.091  14.832  0.00  0.00    +0.000 C 
ATOM     22  O   UNL     1      47.325   3.085  14.141  0.00  0.00    +0.000 OA
ATOM     23  H   UNL     1      46.281   5.933  15.056  0.00  0.00    +0.000 HD
BRANCH  21  24
ATOM     24  C   UNL     1      47.804   4.176  16.163  0.00  0.00    +0.000 A 
ATOM     25  C   UNL     1      47.496   3.229  17.129  0.00  0.00    +0.000 A 
ATOM     26  S   UNL     1      48.264   3.508  18.627  0.00  0.00    +0.000 S 
ATOM     27  C   UNL     1      48.984   4.935  18.054  0.00  0.00    +0.000 A 
ATOM     28  N   UNL     1      49.735   5.722  18.872  0.00  0.00    +0.000 NA
ATOM     29  C   UNL     1      50.170   6.802  18.318  0.00  0.00    +0.000 A 
ATOM     30  N   UNL     1      49.949   7.157  17.012  0.00  0.00    +0.000 N 
ATOM     31  C   UNL     1      49.268   6.354  16.126  0.00  0.00    +0.000 A 
ATOM     32  O   UNL     1      49.200   6.630  14.929  0.00  0.00    +0.000 OA
ATOM     33  C   UNL     1      48.693   5.164  16.720  0.00  0.00    +0.000 A 
ATOM     34  H   UNL     1      50.351   8.001  16.632  0.00  0.00    +0.000 HD
ENDBRANCH  21  24
ENDBRANCH   2  20
TORSDOF 6
ENDMDL
MODEL 6
REMARK VINA RESULT:    -7.517      2.635      3.366
REMARK INTER + INTRA:         -11.423
REMARK INTER:                 -10.217
REMARK INTRA:                  -1.206
REMARK UNBOUND:                -1.268
REMARK  Name = 
REMARK  7 active torsions:
REMARK  status: ('A' for Active; 'I' for Inactive)
REMARK    1  A    between atoms: C_1  and  C_2
REMARK    2  A    between atoms: C_2  and  N_3
REMARK    3  A    between atoms: C_2  and  C_16
REMARK    4  A    between atoms: C_4  and  C_6
REMARK    5  A    between atoms: C_19  and  C_20
REMARK    6  A    between atoms: C_20  and  N_21
REMARK    7  A    between atoms: C_22  and  C_24
REMARK                            x       y       z     vdW  Elec       q    Type
REMARK                         _______ _______ _______ _____ _____    ______ ____
ROOT
ATOM      1  C   UNL     1      47.413   3.987  16.072  0.00  0.00    +0.000 C 
ATOM      2  C   UNL     1      47.958   5.155  15.242  0.00  0.00    +0.000 C 
ENDROOT
BRANCH   2   3
ATOM      3  C   UNL     1      47.011   5.444  14.087  0.00  0.00    +0.000 A 
ATOM      4  C   UNL     1      47.381   6.399  13.127  0.00  0.00    +0.000 A 
ATOM      5  C   UNL     1      46.666   6.535  11.935  0.00  0.00    +0.000 A 
ATOM      6  C   UNL     1      45.543   5.742  11.682  0.00  0.00    +0.000 A 
ATOM      7  C   UNL     1      45.124   4.838  12.669  0.00  0.00    +0.000 A 
ATOM      8  C   UNL     1      45.846   4.695  13.862  0.00  0.00    +0.000 A 
BRANCH   6   9
ATOM      9  C   UNL     1      44.834   5.830  10.352  0.00  0.00    +0.000 C 
BRANCH   9  10
ATOM     10  N   UNL     1      45.463   5.009   9.343  0.00  0.00    +0.000 N 
ATOM     11  C   UNL     1      45.064   3.709   9.111  0.00  0.00    +0.000 C 
ATOM     12  O   UNL     1      44.156   3.157   9.727  0.00  0.00    +0.000 OA
ATOM     13  H   UNL     1      46.191   5.384   8.742  0.00  0.00    +0.000 HD
BRANCH  11  14
ATOM     14  C   UNL     1      45.829   2.988   8.038  0.00  0.00    +0.000 A 
ATOM     15  C   UNL     1      46.239   1.674   8.241  0.00  0.00    +0.000 A 
ATOM     16  C   UNL     1      46.973   1.049   7.237  0.00  0.00    +0.000 A 
ATOM     17  C   UNL     1      47.274   1.751   6.074  0.00  0.00    +0.000 A 
ATOM     18  C   UNL     1      46.818   3.057   5.957  0.00  0.00    +0.000 A 
ATOM     19  N   UNL     1      46.098   3.696   6.904  0.00  0.00    +0.000 NA
ENDBRANCH  11  14
ENDBRANCH   9  10
ENDBRANCH   6   9
ENDBRANCH   2   3
BRANCH   2  20
ATOM     20  N   UNL     1      48.223   6.322  16.062  0.00  0.00    +0.000 N 
ATOM     21  C   UNL     1      49.475   6.559  16.584  0.00  0.00    +0.000 C 
ATOM     22  O   UNL     1      50.446   5.861  16.307  0.00  0.00    +0.000 OA
ATOM     23  H   UNL     1      47.428   6.816  16.450  0.00  0.00    +0.000 HD
BRANCH  21  24
ATOM     24  C   UNL     1      49.615   7.727  17.461  0.00  0.00    +0.000 A 
ATOM     25  C   UNL     1      50.580   8.687  17.190  0.00  0.00    +0.000 A 
ATOM     26  S   UNL     1      50.629   9.949  18.336  0.00  0.00    +0.000 S 
ATOM     27  C   UNL     1      49.405   9.225  19.265  0.00  0.00    +0.000 A 
ATOM     28  N   UNL     1      49.007   9.767  20.449  0.00  0.00    +0.000 NA
ATOM     29  C   UNL     1      48.112   9.081  21.074  0.00  0.00    +0.000 A 
ATOM     30  N   UNL     1      47.556   7.914  20.613  0.00  0.00    +0.000 N 
ATOM     31  C   UNL     1      47.866   7.374  19.386  0.00  0.00    +0.000 A 
ATOM     32  O   UNL     1      47.256   6.405  18.937  0.00  0.00    +0.000 OA
ATOM     33  C   UNL     1      48.923   8.069  18.678  0.00  0.00    +0.000 A 
ATOM     34  H   UNL     1      46.832   7.447  21.137  0.00  0.00    +0.000 HD
ENDBRANCH  21  24
ENDBRANCH   2  20
TORSDOF 6
ENDMDL
MODEL 7
REMARK VINA RESULT:    -7.123      2.535      4.521
REMARK INTER + INTRA:         -10.889
REMARK INTER:                  -9.685
REMARK INTRA:                  -1.204
REMARK UNBOUND:                -1.268
REMARK  Name = 
REMARK  7 active torsions:
REMARK  status: ('A' for Active; 'I' for Inactive)
REMARK    1  A    between atoms: C_1  and  C_2
REMARK    2  A    between atoms: C_2  and  N_3
REMARK    3  A    between atoms: C_2  and  C_16
REMARK    4  A    between atoms: C_4  and  C_6
REMARK    5  A    between atoms: C_19  and  C_20
REMARK    6  A    between atoms: C_20  and  N_21
REMARK    7  A    between atoms: C_22  and  C_24
REMARK                            x       y       z     vdW  Elec       q    Type
REMARK                         _______ _______ _______ _____ _____    ______ ____
ROOT
ATOM      1  C   UNL     1      47.527   4.995  16.073  0.00  0.00    +0.000 C 
ATOM      2  C   UNL     1      47.783   5.620  14.696  0.00  0.00    +0.000 C 
ENDROOT
BRANCH   2   3
ATOM      3  C   UNL     1      46.654   5.247  13.749  0.00  0.00    +0.000 A 
ATOM      4  C   UNL     1      46.064   6.251  12.966  0.00  0.00    +0.000 A 
ATOM      5  C   UNL     1      45.192   5.931  11.922  0.00  0.00    +0.000 A 
ATOM      6  C   UNL     1      44.863   4.600  11.651  0.00  0.00    +0.000 A 
ATOM      7  C   UNL     1      45.390   3.596  12.476  0.00  0.00    +0.000 A 
ATOM      8  C   UNL     1      46.271   3.916  13.519  0.00  0.00    +0.000 A 
BRANCH   6   9
ATOM      9  C   UNL     1      43.996   4.257  10.463  0.00  0.00    +0.000 C 
BRANCH   9  10
ATOM     10  N   UNL     1      44.712   3.491   9.469  0.00  0.00    +0.000 N 
ATOM     11  C   UNL     1      45.600   4.084   8.595  0.00  0.00    +0.000 C 
ATOM     12  O   UNL     1      45.854   5.284   8.595  0.00  0.00    +0.000 OA
ATOM     13  H   UNL     1      44.613   2.481   9.415  0.00  0.00    +0.000 HD
BRANCH  11  14
ATOM     14  C   UNL     1      46.250   3.149   7.615  0.00  0.00    +0.000 A 
ATOM     15  C   UNL     1      46.573   3.598   6.337  0.00  0.00    +0.000 A 
ATOM     16  C   UNL     1      47.146   2.695   5.446  0.00  0.00    +0.000 A 
ATOM     17  C   UNL     1      47.372   1.384   5.854  0.00  0.00    +0.000 A 
ATOM     18  C   UNL     1      47.023   1.027   7.149  0.00  0.00    +0.000 A 
ATOM     19  N   UNL     1      46.472   1.875   8.045  0.00  0.00    +0.000 NA
ENDBRANCH  11  14
ENDBRANCH   9  10
ENDBRANCH   6   9
ENDBRANCH   2   3
BRANCH   2  20
ATOM     20  N   UNL     1      47.997   7.053  14.786  0.00  0.00    +0.000 N 
ATOM     21  C   UNL     1      49.256   7.577  14.977  0.00  0.00    +0.000 C 
ATOM     22  O   UNL     1      50.265   6.878  14.983  0.00  0.00    +0.000 OA
ATOM     23  H   UNL     1      47.189   7.640  14.958  0.00  0.00    +0.000 HD
BRANCH  21  24
ATOM     24  C   UNL     1      49.348   9.033  15.129  0.00  0.00    +0.000 A 
ATOM     25  C   UNL     1      49.798   9.579  16.324  0.00  0.00    +0.000 A 
ATOM     26  S   UNL     1      49.799  11.284  16.338  0.00  0.00    +0.000 S 
ATOM     27  C   UNL     1      49.143  11.352  14.772  0.00  0.00    +0.000 A 
ATOM     28  N   UNL     1      48.822  12.542  14.195  0.00  0.00    +0.000 NA
ATOM     29  C   UNL     1      48.280  12.438  13.030  0.00  0.00    +0.000 A 
ATOM     30  N   UNL     1      48.052  11.255  12.374  0.00  0.00    +0.000 N 
ATOM     31  C   UNL     1      48.436  10.035  12.881  0.00  0.00    +0.000 A 
ATOM     32  O   UNL     1      48.346   9.004  12.216  0.00  0.00    +0.000 OA
ATOM     33  C   UNL     1      48.982  10.092  14.222  0.00  0.00    +0.000 A 
ATOM     34  H   UNL     1      47.657  11.248  11.446  0.00  0.00    +0.000 HD
ENDBRANCH  21  24
ENDBRANCH   2  20
TORSDOF 6
ENDMDL
MODEL 8
REMARK VINA RESULT:    -6.817      2.345      2.931
REMARK INTER + INTRA:         -10.476
REMARK INTER:                  -9.393
REMARK INTRA:                  -1.083
REMARK UNBOUND:                -1.268
REMARK  Name = 
REMARK  7 active torsions:
REMARK  status: ('A' for Active; 'I' for Inactive)
REMARK    1  A    between atoms: C_1  and  C_2
REMARK    2  A    between atoms: C_2  and  N_3
REMARK    3  A    between atoms: C_2  and  C_16
REMARK    4  A    between atoms: C_4  and  C_6
REMARK    5  A    between atoms: C_19  and  C_20
REMARK    6  A    between atoms: C_20  and  N_21
REMARK    7  A    between atoms: C_22  and  C_24
REMARK                            x       y       z     vdW  Elec       q    Type
REMARK                         _______ _______ _______ _____ _____    ______ ____
ROOT
ATOM      1  C   UNL     1      48.293  10.338  12.711  0.00  0.00    +0.000 C 
ATOM      2  C   UNL     1      47.592   9.224  13.497  0.00  0.00    +0.000 C 
ENDROOT
BRANCH   2   3
ATOM      3  C   UNL     1      46.781   8.361  12.543  0.00  0.00    +0.000 A 
ATOM      4  C   UNL     1      47.339   7.164  12.068  0.00  0.00    +0.000 A 
ATOM      5  C   UNL     1      46.560   6.228  11.384  0.00  0.00    +0.000 A 
ATOM      6  C   UNL     1      45.208   6.475  11.130  0.00  0.00    +0.000 A 
ATOM      7  C   UNL     1      44.662   7.701  11.536  0.00  0.00    +0.000 A 
ATOM      8  C   UNL     1      45.441   8.637  12.230  0.00  0.00    +0.000 A 
BRANCH   6   9
ATOM      9  C   UNL     1      44.352   5.419  10.474  0.00  0.00    +0.000 C 
BRANCH   9  10
ATOM     10  N   UNL     1      45.056   4.721   9.422  0.00  0.00    +0.000 N 
ATOM     11  C   UNL     1      44.932   3.359   9.243  0.00  0.00    +0.000 C 
ATOM     12  O   UNL     1      44.222   2.644   9.945  0.00  0.00    +0.000 OA
ATOM     13  H   UNL     1      45.631   5.226   8.753  0.00  0.00    +0.000 HD
BRANCH  11  14
ATOM     14  C   UNL     1      45.741   2.787   8.114  0.00  0.00    +0.000 A 
ATOM     15  C   UNL     1      46.245   1.494   8.207  0.00  0.00    +0.000 A 
ATOM     16  C   UNL     1      47.017   1.009   7.155  0.00  0.00    +0.000 A 
ATOM     17  C   UNL     1      47.260   1.825   6.055  0.00  0.00    +0.000 A 
ATOM     18  C   UNL     1      46.712   3.100   6.047  0.00  0.00    +0.000 A 
ATOM     19  N   UNL     1      45.953   3.605   7.044  0.00  0.00    +0.000 NA
ENDBRANCH  11  14
ENDBRANCH   9  10
ENDBRANCH   6   9
ENDBRANCH   2   3
BRANCH   2  20
ATOM     20  N   UNL     1      48.528   8.457  14.298  0.00  0.00    +0.000 N 
ATOM     21  C   UNL     1      48.938   8.898  15.536  0.00  0.00    +0.000 C 
ATOM     22  O   UNL     1      48.467   9.900  16.066  0.00  0.00    +0.000 OA
ATOM     23  H   UNL     1      49.062   7.732  13.833  0.00  0.00    +0.000 HD
BRANCH  21  24
ATOM     24  C   UNL     1      49.944   8.084  16.227  0.00  0.00    +0.000 A 
ATOM     25  C   UNL     1      49.711   7.647  17.524  0.00  0.00    +0.000 A 
ATOM     26  S   UNL     1      51.003   6.751  18.185  0.00  0.00    +0.000 S 
ATOM     27  C   UNL     1      51.942   6.969  16.786  0.00  0.00    +0.000 A 
ATOM     28  N   UNL     1      53.218   6.503  16.716  0.00  0.00    +0.000 NA
ATOM     29  C   UNL     1      53.830   6.790  15.617  0.00  0.00    +0.000 A 
ATOM     30  N   UNL     1      53.275   7.479  14.569  0.00  0.00    +0.000 N 
ATOM     31  C   UNL     1      51.963   7.896  14.561  0.00  0.00    +0.000 A 
ATOM     32  O   UNL     1      51.451   8.389  13.557  0.00  0.00    +0.000 OA
ATOM     33  C   UNL     1      51.256   7.663  15.804  0.00  0.00    +0.000 A 
ATOM     34  H   UNL     1      53.799   7.638  13.722  0.00  0.00    +0.000 HD
ENDBRANCH  21  24
ENDBRANCH   2  20
TORSDOF 6
ENDMDL
MODEL 9
REMARK VINA RESULT:    -6.647      4.226      6.431
REMARK INTER + INTRA:         -10.247
REMARK INTER:                  -9.066
REMARK INTRA:                  -1.181
REMARK UNBOUND:                -1.268
REMARK  Name = 
REMARK  7 active torsions:
REMARK  status: ('A' for Active; 'I' for Inactive)
REMARK    1  A    between atoms: C_1  and  C_2
REMARK    2  A    between atoms: C_2  and  N_3
REMARK    3  A    between atoms: C_2  and  C_16
REMARK    4  A    between atoms: C_4  and  C_6
REMARK    5  A    between atoms: C_19  and  C_20
REMARK    6  A    between atoms: C_20  and  N_21
REMARK    7  A    between atoms: C_22  and  C_24
REMARK                            x       y       z     vdW  Elec       q    Type
REMARK                         _______ _______ _______ _____ _____    ______ ____
ROOT
ATOM      1  C   UNL     1      46.733   4.580  13.596  0.00  0.00    +0.000 C 
ATOM      2  C   UNL     1      47.593   5.818  13.873  0.00  0.00    +0.000 C 
ENDROOT
BRANCH   2   3
ATOM      3  C   UNL     1      47.049   7.003  13.090  0.00  0.00    +0.000 A 
ATOM      4  C   UNL     1      45.668   7.085  12.854  0.00  0.00    +0.000 A 
ATOM      5  C   UNL     1      45.093   8.253  12.349  0.00  0.00    +0.000 A 
ATOM      6  C   UNL     1      45.885   9.362  12.039  0.00  0.00    +0.000 A 
ATOM      7  C   UNL     1      47.274   9.261  12.203  0.00  0.00    +0.000 A 
ATOM      8  C   UNL     1      47.851   8.091  12.716  0.00  0.00    +0.000 A 
BRANCH   6   9
ATOM      9  C   UNL     1      45.245  10.652  11.584  0.00  0.00    +0.000 C 
BRANCH   9  10
ATOM     10  N   UNL     1      43.854  10.734  11.966  0.00  0.00    +0.000 N 
ATOM     11  C   UNL     1      42.860  10.986  11.043  0.00  0.00    +0.000 C 
ATOM     12  O   UNL     1      43.072  11.150   9.845  0.00  0.00    +0.000 OA
ATOM     13  H   UNL     1      43.563  10.564  12.925  0.00  0.00    +0.000 HD
BRANCH  11  14
ATOM     14  C   UNL     1      41.468  11.053  11.606  0.00  0.00    +0.000 A 
ATOM     15  C   UNL     1      40.455  10.282  11.044  0.00  0.00    +0.000 A 
ATOM     16  C   UNL     1      39.171  10.394  11.572  0.00  0.00    +0.000 A 
ATOM     17  C   UNL     1      38.944  11.266  12.632  0.00  0.00    +0.000 A 
ATOM     18  C   UNL     1      40.016  11.991  13.131  0.00  0.00    +0.000 A 
ATOM     19  N   UNL     1      41.277  11.906  12.652  0.00  0.00    +0.000 NA
ENDBRANCH  11  14
ENDBRANCH   9  10
ENDBRANCH   6   9
ENDBRANCH   2   3
BRANCH   2  20
ATOM     20  N   UNL     1      47.711   6.085  15.295  0.00  0.00    +0.000 N 
ATOM     21  C   UNL     1      48.917   6.439  15.858  0.00  0.00    +0.000 C 
ATOM     22  O   UNL     1      49.923   6.641  15.184  0.00  0.00    +0.000 OA
ATOM     23  H   UNL     1      46.963   5.766  15.899  0.00  0.00    +0.000 HD
BRANCH  21  24
ATOM     24  C   UNL     1      48.940   6.613  17.315  0.00  0.00    +0.000 A 
ATOM     25  C   UNL     1      49.243   7.853  17.860  0.00  0.00    +0.000 A 
ATOM     26  S   UNL     1      49.267   7.860  19.566  0.00  0.00    +0.000 S 
ATOM     27  C   UNL     1      48.933   6.196  19.632  0.00  0.00    +0.000 A 
ATOM     28  N   UNL     1      48.887   5.535  20.821  0.00  0.00    +0.000 NA
ATOM     29  C   UNL     1      48.682   4.266  20.716  0.00  0.00    +0.000 A 
ATOM     30  N   UNL     1      48.490   3.599  19.533  0.00  0.00    +0.000 N 
ATOM     31  C   UNL     1      48.445   4.238  18.315  0.00  0.00    +0.000 A 
ATOM     32  O   UNL     1      48.136   3.639  17.285  0.00  0.00    +0.000 OA
ATOM     33  C   UNL     1      48.746   5.654  18.373  0.00  0.00    +0.000 A 
ATOM     34  H   UNL     1      48.297   2.609  19.525  0.00  0.00    +0.000 HD
ENDBRANCH  21  24
ENDBRANCH   2  20
TORSDOF 6
ENDMDL
