MODEL 1
REMARK VINA RESULT:    -7.893      0.000      0.000
REMARK INTER + INTRA:         -12.566
REMARK INTER:                 -11.585
REMARK INTRA:                  -0.981
REMARK UNBOUND:                -0.981
REMARK  Name = 
REMARK  8 active torsions:
REMARK  status: ('A' for Active; 'I' for Inactive)
REMARK    1  A    between atoms: C_2  and  C_3
REMARK    2  A    between atoms: C_5  and  C_6
REMARK    3  A    between atoms: C_6  and  C_7
REMARK    4  A    between atoms: C_7  and  O_8
REMARK    5  A    between atoms: O_8  and  C_9
REMARK    6  A    between atoms: C_13  and  C_14
REMARK    7  A    between atoms: C_19  and  O_20
REMARK    8  A    between atoms: O_20  and  C_21
REMARK                            x       y       z     vdW  Elec       q    Type
REMARK                         _______ _______ _______ _____ _____    ______ ____
ROOT
ATOM      1  C   UNL     1      46.833   6.432  12.636  0.00  0.00    +0.000 A 
ATOM      2  C   UNL     1      45.501   6.155  12.303  0.00  0.00    +0.000 A 
ATOM      3  C   UNL     1      44.871   4.992  12.773  0.00  0.00    +0.000 A 
ATOM      4  C   UNL     1      45.602   4.126  13.604  0.00  0.00    +0.000 A 
ATOM      5  C   UNL     1      46.953   4.357  13.882  0.00  0.00    +0.000 A 
ATOM      6  C   UNL     1      47.556   5.526  13.419  0.00  0.00    +0.000 A 
ENDROOT
BRANCH   1   8
ATOM      7  N   UNL     1      47.976   8.601  11.778  0.00  0.00    +0.000 NA
ATOM      8  C   UNL     1      47.464   7.632  12.157  0.00  0.00    +0.000 C 
ENDBRANCH   1   8
BRANCH   3   9
ATOM      9  C   UNL     1      43.454   4.589  12.403  0.00  0.00    +0.000 C 
BRANCH   9  10
ATOM     10  C   UNL     1      43.238   4.253  10.930  0.00  0.00    +0.000 C 
BRANCH  10  11
ATOM     11  O   UNL     1      43.890   3.026  10.586  0.00  0.00    +0.000 OA
BRANCH  11  12
ATOM     12  C   UNL     1      44.763   3.125   9.532  0.00  0.00    +0.000 A 
ATOM     13  C   UNL     1      44.970   4.385   8.992  0.00  0.00    +0.000 A 
ATOM     14  N   UNL     1      45.808   4.640   7.952  0.00  0.00    +0.000 NA
ATOM     15  C   UNL     1      46.473   3.579   7.428  0.00  0.00    +0.000 A 
ATOM     16  C   UNL     1      46.338   2.280   7.892  0.00  0.00    +0.000 A 
ATOM     17  C   UNL     1      45.464   2.065   8.961  0.00  0.00    +0.000 A 
BRANCH  16  18
ATOM     18  C   UNL     1      47.054   1.107   7.339  0.00  0.00    +0.000 C 
ATOM     19  N   UNL     1      46.664  -0.149   7.699  0.00  0.00    +0.000 N 
ATOM     20  O   UNL     1      47.992   1.254   6.561  0.00  0.00    +0.000 OA
ATOM     21  H   UNL     1      45.913  -0.383   8.327  0.00  0.00    +0.000 HD
ATOM     22  H   UNL     1      47.190  -0.913   7.289  0.00  0.00    +0.000 HD
ENDBRANCH  16  18
ENDBRANCH  11  12
ENDBRANCH  10  11
ENDBRANCH   9  10
ENDBRANCH   3   9
BRANCH   5  23
ATOM     23  O   UNL     1      47.788   3.503  14.557  0.00  0.00    +0.000 OA
BRANCH  23  24
ATOM     24  C   UNL     1      47.552   3.327  15.962  0.00  0.00    +0.000 C 
ATOM     25  C   UNL     1      47.751   4.655  16.664  0.00  0.00    +0.000 C 
ATOM     26  C   UNL     1      49.206   4.636  17.078  0.00  0.00    +0.000 C 
ATOM     27  O   UNL     1      49.585   3.271  17.251  0.00  0.00    +0.000 OA
ATOM     28  C   UNL     1      48.595   2.435  16.633  0.00  0.00    +0.000 C 
ENDBRANCH  23  24
ENDBRANCH   5  23
TORSDOF 8
ENDMDL
MODEL 2
REMARK VINA RESULT:    -7.846      1.478      1.753
REMARK INTER + INTRA:         -12.497
REMARK INTER:                 -11.684
REMARK INTRA:                  -0.813
REMARK UNBOUND:                -0.981
REMARK  Name = 
REMARK  8 active torsions:
REMARK  status: ('A' for Active; 'I' for Inactive)
REMARK    1  A    between atoms: C_2  and  C_3
REMARK    2  A    between atoms: C_5  and  C_6
REMARK    3  A    between atoms: C_6  and  C_7
REMARK    4  A    between atoms: C_7  and  O_8
REMARK    5  A    between atoms: O_8  and  C_9
REMARK    6  A    between atoms: C_13  and  C_14
REMARK    7  A    between atoms: C_19  and  O_20
REMARK    8  A    between atoms: O_20  and  C_21
REMARK                            x       y       z     vdW  Elec       q    Type
REMARK                         _______ _______ _______ _____ _____    ______ ____
ROOT
ATOM      1  C   UNL     1      45.752   7.093  12.474  0.00  0.00    +0.000 A 
ATOM      2  C   UNL     1      45.109   5.885  12.174  0.00  0.00    +0.000 A 
ATOM      3  C   UNL     1      45.587   4.670  12.689  0.00  0.00    +0.000 A 
ATOM      4  C   UNL     1      46.713   4.698  13.530  0.00  0.00    +0.000 A 
ATOM      5  C   UNL     1      47.405   5.889  13.775  0.00  0.00    +0.000 A 
ATOM      6  C   UNL     1      46.904   7.087  13.268  0.00  0.00    +0.000 A 
ENDROOT
BRANCH   1   8
ATOM      7  N   UNL     1      44.846   9.333  11.524  0.00  0.00    +0.000 NA
ATOM      8  C   UNL     1      45.246   8.332  11.949  0.00  0.00    +0.000 C 
ENDBRANCH   1   8
BRANCH   3   9
ATOM      9  C   UNL     1      44.985   3.315  12.358  0.00  0.00    +0.000 C 
BRANCH   9  10
ATOM     10  C   UNL     1      43.709   3.358  11.522  0.00  0.00    +0.000 C 
BRANCH  10  11
ATOM     11  O   UNL     1      43.776   2.425  10.440  0.00  0.00    +0.000 OA
BRANCH  11  12
ATOM     12  C   UNL     1      44.648   2.778   9.441  0.00  0.00    +0.000 A 
ATOM     13  C   UNL     1      44.653   4.105   9.038  0.00  0.00    +0.000 A 
ATOM     14  N   UNL     1      45.463   4.603   8.066  0.00  0.00    +0.000 NA
ATOM     15  C   UNL     1      46.311   3.729   7.469  0.00  0.00    +0.000 A 
ATOM     16  C   UNL     1      46.387   2.384   7.795  0.00  0.00    +0.000 A 
ATOM     17  C   UNL     1      45.533   1.914   8.798  0.00  0.00    +0.000 A 
BRANCH  16  18
ATOM     18  C   UNL     1      47.305   1.410   7.159  0.00  0.00    +0.000 C 
ATOM     19  N   UNL     1      48.452   1.855   6.571  0.00  0.00    +0.000 N 
ATOM     20  O   UNL     1      47.045   0.211   7.158  0.00  0.00    +0.000 OA
ATOM     21  H   UNL     1      48.762   2.811   6.514  0.00  0.00    +0.000 HD
ATOM     22  H   UNL     1      49.042   1.144   6.152  0.00  0.00    +0.000 HD
ENDBRANCH  16  18
ENDBRANCH  11  12
ENDBRANCH  10  11
ENDBRANCH   9  10
ENDBRANCH   3   9
BRANCH   5  23
ATOM     23  O   UNL     1      48.590   5.999  14.457  0.00  0.00    +0.000 OA
BRANCH  23  24
ATOM     24  C   UNL     1      48.514   6.243  15.870  0.00  0.00    +0.000 C 
ATOM     25  C   UNL     1      49.817   6.862  16.332  0.00  0.00    +0.000 C 
ATOM     26  C   UNL     1      50.657   5.677  16.753  0.00  0.00    +0.000 C 
ATOM     27  O   UNL     1      49.764   4.642  17.163  0.00  0.00    +0.000 OA
ATOM     28  C   UNL     1      48.445   4.958  16.692  0.00  0.00    +0.000 C 
ENDBRANCH  23  24
ENDBRANCH   5  23
TORSDOF 8
ENDMDL
MODEL 3
REMARK VINA RESULT:    -7.667      2.488      4.161
REMARK INTER + INTRA:         -12.233
REMARK INTER:                 -11.124
REMARK INTRA:                  -1.109
REMARK UNBOUND:                -0.981
REMARK  Name = 
REMARK  8 active torsions:
REMARK  status: ('A' for Active; 'I' for Inactive)
REMARK    1  A    between atoms: C_2  and  C_3
REMARK    2  A    between atoms: C_5  and  C_6
REMARK    3  A    between atoms: C_6  and  C_7
REMARK    4  A    between atoms: C_7  and  O_8
REMARK    5  A    between atoms: O_8  and  C_9
REMARK    6  A    between atoms: C_13  and  C_14
REMARK    7  A    between atoms: C_19  and  O_20
REMARK    8  A    between atoms: O_20  and  C_21
REMARK                            x       y       z     vdW  Elec       q    Type
REMARK                         _______ _______ _______ _____ _____    ______ ____
ROOT
ATOM      1  C   UNL     1      47.253   5.049  14.455  0.00  0.00    +0.000 A 
ATOM      2  C   UNL     1      46.219   4.173  14.098  0.00  0.00    +0.000 A 
ATOM      3  C   UNL     1      45.462   4.392  12.937  0.00  0.00    +0.000 A 
ATOM      4  C   UNL     1      45.781   5.498  12.130  0.00  0.00    +0.000 A 
ATOM      5  C   UNL     1      46.762   6.418  12.516  0.00  0.00    +0.000 A 
ATOM      6  C   UNL     1      47.514   6.173  13.664  0.00  0.00    +0.000 A 
ENDROOT
BRANCH   1   8
ATOM      7  N   UNL     1      48.659   4.619  16.595  0.00  0.00    +0.000 NA
ATOM      8  C   UNL     1      48.028   4.808  15.641  0.00  0.00    +0.000 C 
ENDBRANCH   1   8
BRANCH   3   9
ATOM      9  C   UNL     1      44.286   3.527  12.519  0.00  0.00    +0.000 C 
BRANCH   9  10
ATOM     10  C   UNL     1      43.585   3.960  11.234  0.00  0.00    +0.000 C 
BRANCH  10  11
ATOM     11  O   UNL     1      43.630   2.920  10.252  0.00  0.00    +0.000 OA
BRANCH  11  12
ATOM     12  C   UNL     1      44.623   3.065   9.317  0.00  0.00    +0.000 A 
ATOM     13  C   UNL     1      44.908   4.352   8.885  0.00  0.00    +0.000 A 
ATOM     14  N   UNL     1      45.866   4.653   7.968  0.00  0.00    +0.000 NA
ATOM     15  C   UNL     1      46.574   3.613   7.461  0.00  0.00    +0.000 A 
ATOM     16  C   UNL     1      46.370   2.291   7.822  0.00  0.00    +0.000 A 
ATOM     17  C   UNL     1      45.372   2.028   8.766  0.00  0.00    +0.000 A 
BRANCH  16  18
ATOM     18  C   UNL     1      47.131   1.139   7.283  0.00  0.00    +0.000 C 
ATOM     19  N   UNL     1      46.787  -0.126   7.657  0.00  0.00    +0.000 N 
ATOM     20  O   UNL     1      48.064   1.313   6.506  0.00  0.00    +0.000 OA
ATOM     21  H   UNL     1      46.044  -0.382   8.285  0.00  0.00    +0.000 HD
ATOM     22  H   UNL     1      47.343  -0.875   7.257  0.00  0.00    +0.000 HD
ENDBRANCH  16  18
ENDBRANCH  11  12
ENDBRANCH  10  11
ENDBRANCH   9  10
ENDBRANCH   3   9
BRANCH   5  23
ATOM     23  O   UNL     1      47.046   7.598  11.878  0.00  0.00    +0.000 OA
BRANCH  23  24
ATOM     24  C   UNL     1      46.910   8.806  12.640  0.00  0.00    +0.000 C 
ATOM     25  C   UNL     1      45.439   9.061  12.900  0.00  0.00    +0.000 C 
ATOM     26  C   UNL     1      45.010   9.940  11.746  0.00  0.00    +0.000 C 
ATOM     27  O   UNL     1      46.158  10.670  11.313  0.00  0.00    +0.000 OA
ATOM     28  C   UNL     1      47.331  10.051  11.862  0.00  0.00    +0.000 C 
ENDBRANCH  23  24
ENDBRANCH   5  23
TORSDOF 8
ENDMDL
MODEL 4
REMARK VINA RESULT:    -7.342      2.911      4.890
REMARK INTER + INTRA:         -11.757
REMARK INTER:                 -10.858
REMARK INTRA:                  -0.899
REMARK UNBOUND:                -0.981
REMARK  Name = 
REMARK  8 active torsions:
REMARK  status: ('A' for Active; 'I' for Inactive)
REMARK    1  A    between atoms: C_2  and  C_3
REMARK    2  A    between atoms: C_5  and  C_6
REMARK    3  A    between atoms: C_6  and  C_7
REMARK    4  A    between atoms: C_7  and  O_8
REMARK    5  A    between atoms: O_8  and  C_9
REMARK    6  A    between atoms: C_13  and  C_14
REMARK    7  A    between atoms: C_19  and  O_20
REMARK    8  A    between atoms: O_20  and  C_21
REMARK                            x       y       z     vdW  Elec       q    Type
REMARK                         _______ _______ _______ _____ _____    ______ ____
ROOT
ATOM      1  C   UNL     1      47.429   6.673  13.578  0.00  0.00    +0.000 A 
ATOM      2  C   UNL     1      46.903   5.406  13.295  0.00  0.00    +0.000 A 
ATOM      3  C   UNL     1      45.651   5.271  12.674  0.00  0.00    +0.000 A 
ATOM      4  C   UNL     1      44.951   6.438  12.323  0.00  0.00    +0.000 A 
ATOM      5  C   UNL     1      45.434   7.705  12.667  0.00  0.00    +0.000 A 
ATOM      6  C   UNL     1      46.687   7.818  13.268  0.00  0.00    +0.000 A 
ENDROOT
BRANCH   1   8
ATOM      7  N   UNL     1      49.751   6.899  14.718  0.00  0.00    +0.000 NA
ATOM      8  C   UNL     1      48.717   6.798  14.205  0.00  0.00    +0.000 C 
ENDBRANCH   1   8
BRANCH   3   9
ATOM      9  C   UNL     1      44.985   3.935  12.394  0.00  0.00    +0.000 C 
BRANCH   9  10
ATOM     10  C   UNL     1      43.647   4.015  11.666  0.00  0.00    +0.000 C 
BRANCH  10  11
ATOM     11  O   UNL     1      43.547   2.995  10.668  0.00  0.00    +0.000 OA
BRANCH  11  12
ATOM     12  C   UNL     1      44.451   3.114   9.643  0.00  0.00    +0.000 A 
ATOM     13  C   UNL     1      44.592   4.363   9.058  0.00  0.00    +0.000 A 
ATOM     14  N   UNL     1      45.450   4.636   8.039  0.00  0.00    +0.000 NA
ATOM     15  C   UNL     1      46.204   3.605   7.584  0.00  0.00    +0.000 A 
ATOM     16  C   UNL     1      46.142   2.318   8.096  0.00  0.00    +0.000 A 
ATOM     17  C   UNL     1      45.244   2.083   9.141  0.00  0.00    +0.000 A 
BRANCH  16  18
ATOM     18  C   UNL     1      46.957   1.177   7.617  0.00  0.00    +0.000 C 
ATOM     19  N   UNL     1      48.064   1.415   6.858  0.00  0.00    +0.000 N 
ATOM     20  O   UNL     1      46.646   0.024   7.896  0.00  0.00    +0.000 OA
ATOM     21  H   UNL     1      48.409   2.316   6.570  0.00  0.00    +0.000 HD
ATOM     22  H   UNL     1      48.583   0.596   6.558  0.00  0.00    +0.000 HD
ENDBRANCH  16  18
ENDBRANCH  11  12
ENDBRANCH  10  11
ENDBRANCH   9  10
ENDBRANCH   3   9
BRANCH   5  23
ATOM     23  O   UNL     1      44.762   8.889  12.500  0.00  0.00    +0.000 OA
BRANCH  23  24
ATOM     24  C   UNL     1      44.718   9.438  11.175  0.00  0.00    +0.000 C 
ATOM     25  C   UNL     1      45.443  10.768  11.170  0.00  0.00    +0.000 C 
ATOM     26  C   UNL     1      44.354  11.782  11.444  0.00  0.00    +0.000 C 
ATOM     27  O   UNL     1      43.128  11.235  10.961  0.00  0.00    +0.000 OA
ATOM     28  C   UNL     1      43.306   9.827  10.740  0.00  0.00    +0.000 C 
ENDBRANCH  23  24
ENDBRANCH   5  23
TORSDOF 8
ENDMDL
MODEL 5
REMARK VINA RESULT:    -7.327      1.274      1.550
REMARK INTER + INTRA:         -11.734
REMARK INTER:                 -10.955
REMARK INTRA:                  -0.779
REMARK UNBOUND:                -0.981
REMARK  Name = 
REMARK  8 active torsions:
REMARK  status: ('A' for Active; 'I' for Inactive)
REMARK    1  A    between atoms: C_2  and  C_3
REMARK    2  A    between atoms: C_5  and  C_6
REMARK    3  A    between atoms: C_6  and  C_7
REMARK    4  A    between atoms: C_7  and  O_8
REMARK    5  A    between atoms: O_8  and  C_9
REMARK    6  A    between atoms: C_13  and  C_14
REMARK    7  A    between atoms: C_19  and  O_20
REMARK    8  A    between atoms: O_20  and  C_21
REMARK                            x       y       z     vdW  Elec       q    Type
REMARK                         _______ _______ _______ _____ _____    ______ ____
ROOT
ATOM      1  C   UNL     1      47.391   6.725  12.345  0.00  0.00    +0.000 A 
ATOM      2  C   UNL     1      46.068   6.688  11.885  0.00  0.00    +0.000 A 
ATOM      3  C   UNL     1      45.192   5.673  12.302  0.00  0.00    +0.000 A 
ATOM      4  C   UNL     1      45.668   4.711  13.209  0.00  0.00    +0.000 A 
ATOM      5  C   UNL     1      47.006   4.698  13.616  0.00  0.00    +0.000 A 
ATOM      6  C   UNL     1      47.856   5.724  13.204  0.00  0.00    +0.000 A 
ENDROOT
BRANCH   1   8
ATOM      7  N   UNL     1      48.993   8.617  11.570  0.00  0.00    +0.000 NA
ATOM      8  C   UNL     1      48.276   7.776  11.918  0.00  0.00    +0.000 C 
ENDBRANCH   1   8
BRANCH   3   9
ATOM      9  C   UNL     1      43.767   5.527  11.798  0.00  0.00    +0.000 C 
BRANCH   9  10
ATOM     10  C   UNL     1      43.556   4.434  10.754  0.00  0.00    +0.000 C 
BRANCH  10  11
ATOM     11  O   UNL     1      44.245   4.748   9.540  0.00  0.00    +0.000 OA
BRANCH  11  12
ATOM     12  C   UNL     1      44.912   3.689   8.977  0.00  0.00    +0.000 A 
ATOM     13  C   UNL     1      44.695   2.435   9.526  0.00  0.00    +0.000 A 
ATOM     14  N   UNL     1      45.279   1.293   9.073  0.00  0.00    +0.000 NA
ATOM     15  C   UNL     1      46.121   1.415   8.016  0.00  0.00    +0.000 A 
ATOM     16  C   UNL     1      46.407   2.620   7.394  0.00  0.00    +0.000 A 
ATOM     17  C   UNL     1      45.786   3.768   7.895  0.00  0.00    +0.000 A 
BRANCH  16  18
ATOM     18  C   UNL     1      47.321   2.778   6.238  0.00  0.00    +0.000 C 
ATOM     19  N   UNL     1      48.645   2.491   6.385  0.00  0.00    +0.000 N 
ATOM     20  O   UNL     1      46.898   3.164   5.153  0.00  0.00    +0.000 OA
ATOM     21  H   UNL     1      49.097   2.169   7.225  0.00  0.00    +0.000 HD
ATOM     22  H   UNL     1      49.223   2.617   5.561  0.00  0.00    +0.000 HD
ENDBRANCH  16  18
ENDBRANCH  11  12
ENDBRANCH  10  11
ENDBRANCH   9  10
ENDBRANCH   3   9
BRANCH   5  23
ATOM     23  O   UNL     1      47.601   3.725  14.378  0.00  0.00    +0.000 OA
BRANCH  23  24
ATOM     24  C   UNL     1      47.374   3.770  15.795  0.00  0.00    +0.000 C 
ATOM     25  C   UNL     1      47.821   5.118  16.322  0.00  0.00    +0.000 C 
ATOM     26  C   UNL     1      49.261   4.894  16.729  0.00  0.00    +0.000 C 
ATOM     27  O   UNL     1      49.400   3.515  17.073  0.00  0.00    +0.000 OA
ATOM     28  C   UNL     1      48.263   2.798  16.570  0.00  0.00    +0.000 C 
ENDBRANCH  23  24
ENDBRANCH   5  23
TORSDOF 8
ENDMDL
MODEL 6
REMARK VINA RESULT:    -7.189      2.726      4.036
REMARK INTER + INTRA:         -11.533
REMARK INTER:                 -10.573
REMARK INTRA:                  -0.960
REMARK UNBOUND:                -0.981
REMARK  Name = 
REMARK  8 active torsions:
REMARK  status: ('A' for Active; 'I' for Inactive)
REMARK    1  A    between atoms: C_2  and  C_3
REMARK    2  A    between atoms: C_5  and  C_6
REMARK    3  A    between atoms: C_6  and  C_7
REMARK    4  A    between atoms: C_7  and  O_8
REMARK    5  A    between atoms: O_8  and  C_9
REMARK    6  A    between atoms: C_13  and  C_14
REMARK    7  A    between atoms: C_19  and  O_20
REMARK    8  A    between atoms: O_20  and  C_21
REMARK                            x       y       z     vdW  Elec       q    Type
REMARK                         _______ _______ _______ _____ _____    ______ ____
ROOT
ATOM      1  C   UNL     1      46.790   5.051  13.688  0.00  0.00    +0.000 A 
ATOM      2  C   UNL     1      45.517   4.935  13.116  0.00  0.00    +0.000 A 
ATOM      3  C   UNL     1      45.143   5.739  12.027  0.00  0.00    +0.000 A 
ATOM      4  C   UNL     1      46.085   6.646  11.513  0.00  0.00    +0.000 A 
ATOM      5  C   UNL     1      47.331   6.821  12.123  0.00  0.00    +0.000 A 
ATOM      6  C   UNL     1      47.690   6.001  13.193  0.00  0.00    +0.000 A 
ENDROOT
BRANCH   1   8
ATOM      7  N   UNL     1      47.470   3.547  15.693  0.00  0.00    +0.000 NA
ATOM      8  C   UNL     1      47.164   4.215  14.796  0.00  0.00    +0.000 C 
ENDBRANCH   1   8
BRANCH   3   9
ATOM      9  C   UNL     1      43.762   5.718  11.395  0.00  0.00    +0.000 C 
BRANCH   9  10
ATOM     10  C   UNL     1      43.537   4.617  10.362  0.00  0.00    +0.000 C 
BRANCH  10  11
ATOM     11  O   UNL     1      44.374   4.811   9.219  0.00  0.00    +0.000 OA
BRANCH  11  12
ATOM     12  C   UNL     1      45.004   3.674   8.778  0.00  0.00    +0.000 A 
ATOM     13  C   UNL     1      44.658   2.477   9.387  0.00  0.00    +0.000 A 
ATOM     14  N   UNL     1      45.192   1.271   9.055  0.00  0.00    +0.000 NA
ATOM     15  C   UNL     1      46.118   1.265   8.063  0.00  0.00    +0.000 A 
ATOM     16  C   UNL     1      46.535   2.403   7.391  0.00  0.00    +0.000 A 
ATOM     17  C   UNL     1      45.962   3.621   7.767  0.00  0.00    +0.000 A 
BRANCH  16  18
ATOM     18  C   UNL     1      47.542   2.421   6.304  0.00  0.00    +0.000 C 
ATOM     19  N   UNL     1      47.358   3.242   5.231  0.00  0.00    +0.000 N 
ATOM     20  O   UNL     1      48.538   1.707   6.360  0.00  0.00    +0.000 OA
ATOM     21  H   UNL     1      46.581   3.866   5.083  0.00  0.00    +0.000 HD
ATOM     22  H   UNL     1      48.078   3.213   4.519  0.00  0.00    +0.000 HD
ENDBRANCH  16  18
ENDBRANCH  11  12
ENDBRANCH  10  11
ENDBRANCH   9  10
ENDBRANCH   3   9
BRANCH   5  23
ATOM     23  O   UNL     1      48.258   7.776  11.790  0.00  0.00    +0.000 OA
BRANCH  23  24
ATOM     24  C   UNL     1      49.325   8.009  12.721  0.00  0.00    +0.000 C 
ATOM     25  C   UNL     1      49.112   9.353  13.386  0.00  0.00    +0.000 C 
ATOM     26  C   UNL     1      49.886  10.319  12.516  0.00  0.00    +0.000 C 
ATOM     27  O   UNL     1      50.949   9.589  11.905  0.00  0.00    +0.000 OA
ATOM     28  C   UNL     1      50.681   8.185  12.040  0.00  0.00    +0.000 C 
ENDBRANCH  23  24
ENDBRANCH   5  23
TORSDOF 8
ENDMDL
MODEL 7
REMARK VINA RESULT:    -6.605      3.435      7.287
REMARK INTER + INTRA:         -10.675
REMARK INTER:                  -9.119
REMARK INTRA:                  -1.556
REMARK UNBOUND:                -0.981
REMARK  Name = 
REMARK  8 active torsions:
REMARK  status: ('A' for Active; 'I' for Inactive)
REMARK    1  A    between atoms: C_2  and  C_3
REMARK    2  A    between atoms: C_5  and  C_6
REMARK    3  A    between atoms: C_6  and  C_7
REMARK    4  A    between atoms: C_7  and  O_8
REMARK    5  A    between atoms: O_8  and  C_9
REMARK    6  A    between atoms: C_13  and  C_14
REMARK    7  A    between atoms: C_19  and  O_20
REMARK    8  A    between atoms: O_20  and  C_21
REMARK                            x       y       z     vdW  Elec       q    Type
REMARK                         _______ _______ _______ _____ _____    ______ ____
ROOT
ATOM      1  C   UNL     1      45.645   8.871  12.072  0.00  0.00    +0.000 A 
ATOM      2  C   UNL     1      47.024   9.115  12.101  0.00  0.00    +0.000 A 
ATOM      3  C   UNL     1      47.941   8.052  12.093  0.00  0.00    +0.000 A 
ATOM      4  C   UNL     1      47.442   6.740  12.034  0.00  0.00    +0.000 A 
ATOM      5  C   UNL     1      46.068   6.484  12.079  0.00  0.00    +0.000 A 
ATOM      6  C   UNL     1      45.173   7.554  12.069  0.00  0.00    +0.000 A 
ENDROOT
BRANCH   1   8
ATOM      7  N   UNL     1      43.965  10.851  12.059  0.00  0.00    +0.000 NA
ATOM      8  C   UNL     1      44.716   9.968  12.070  0.00  0.00    +0.000 C 
ENDBRANCH   1   8
BRANCH   3   9
ATOM      9  C   UNL     1      49.446   8.233  12.188  0.00  0.00    +0.000 C 
BRANCH   9  10
ATOM     10  C   UNL     1      50.109   7.551  13.382  0.00  0.00    +0.000 C 
BRANCH  10  11
ATOM     11  O   UNL     1      49.607   8.079  14.614  0.00  0.00    +0.000 OA
BRANCH  11  12
ATOM     12  C   UNL     1      49.268   7.127  15.542  0.00  0.00    +0.000 A 
ATOM     13  C   UNL     1      49.860   7.217  16.793  0.00  0.00    +0.000 A 
ATOM     14  N   UNL     1      49.620   6.352  17.814  0.00  0.00    +0.000 NA
ATOM     15  C   UNL     1      48.741   5.348  17.569  0.00  0.00    +0.000 A 
ATOM     16  C   UNL     1      48.096   5.166  16.357  0.00  0.00    +0.000 A 
ATOM     17  C   UNL     1      48.376   6.078  15.335  0.00  0.00    +0.000 A 
BRANCH  16  18
ATOM     18  C   UNL     1      47.132   4.079  16.067  0.00  0.00    +0.000 C 
ATOM     19  N   UNL     1      46.726   3.866  14.782  0.00  0.00    +0.000 N 
ATOM     20  O   UNL     1      46.697   3.369  16.968  0.00  0.00    +0.000 OA
ATOM     21  H   UNL     1      47.017   4.386  13.971  0.00  0.00    +0.000 HD
ATOM     22  H   UNL     1      46.066   3.109  14.643  0.00  0.00    +0.000 HD
ENDBRANCH  16  18
ENDBRANCH  11  12
ENDBRANCH  10  11
ENDBRANCH   9  10
ENDBRANCH   3   9
BRANCH   5  23
ATOM     23  O   UNL     1      45.487   5.245  12.173  0.00  0.00    +0.000 OA
BRANCH  23  24
ATOM     24  C   UNL     1      44.079   5.157  11.910  0.00  0.00    +0.000 C 
ATOM     25  C   UNL     1      43.455   4.187  12.892  0.00  0.00    +0.000 C 
ATOM     26  C   UNL     1      43.500   2.857  12.173  0.00  0.00    +0.000 C 
ATOM     27  O   UNL     1      43.465   3.126  10.771  0.00  0.00    +0.000 OA
ATOM     28  C   UNL     1      43.765   4.514  10.560  0.00  0.00    +0.000 C 
ENDBRANCH  23  24
ENDBRANCH   5  23
TORSDOF 8
ENDMDL
MODEL 8
REMARK VINA RESULT:    -6.258      3.609      7.465
REMARK INTER + INTRA:         -10.166
REMARK INTER:                  -9.231
REMARK INTRA:                  -0.935
REMARK UNBOUND:                -0.981
REMARK  Name = 
REMARK  8 active torsions:
REMARK  status: ('A' for Active; 'I' for Inactive)
REMARK    1  A    between atoms: C_2  and  C_3
REMARK    2  A    between atoms: C_5  and  C_6
REMARK    3  A    between atoms: C_6  and  C_7
REMARK    4  A    between atoms: C_7  and  O_8
REMARK    5  A    between atoms: O_8  and  C_9
REMARK    6  A    between atoms: C_13  and  C_14
REMARK    7  A    between atoms: C_19  and  O_20
REMARK    8  A    between atoms: O_20  and  C_21
REMARK                            x       y       z     vdW  Elec       q    Type
REMARK                         _______ _______ _______ _____ _____    ______ ____
ROOT
ATOM      1  C   UNL     1      45.462   8.932  12.400  0.00  0.00    +0.000 A 
ATOM      2  C   UNL     1      46.559   9.116  13.251  0.00  0.00    +0.000 A 
ATOM      3  C   UNL     1      47.384   8.035  13.602  0.00  0.00    +0.000 A 
ATOM      4  C   UNL     1      47.095   6.771  13.059  0.00  0.00    +0.000 A 
ATOM      5  C   UNL     1      45.961   6.564  12.268  0.00  0.00    +0.000 A 
ATOM      6  C   UNL     1      45.164   7.653  11.918  0.00  0.00    +0.000 A 
ENDROOT
BRANCH   1   8
ATOM      7  N   UNL     1      43.954  10.945  11.752  0.00  0.00    +0.000 NA
ATOM      8  C   UNL     1      44.631  10.049  12.040  0.00  0.00    +0.000 C 
ENDBRANCH   1   8
BRANCH   3   9
ATOM      9  C   UNL     1      48.550   8.141  14.569  0.00  0.00    +0.000 C 
BRANCH   9  10
ATOM     10  C   UNL     1      49.073   6.811  15.105  0.00  0.00    +0.000 C 
BRANCH  10  11
ATOM     11  O   UNL     1      48.504   6.518  16.385  0.00  0.00    +0.000 OA
BRANCH  11  12
ATOM     12  C   UNL     1      48.469   5.182  16.697  0.00  0.00    +0.000 A 
ATOM     13  C   UNL     1      47.224   4.576  16.767  0.00  0.00    +0.000 A 
ATOM     14  N   UNL     1      47.031   3.262  17.059  0.00  0.00    +0.000 NA
ATOM     15  C   UNL     1      48.142   2.519  17.292  0.00  0.00    +0.000 A 
ATOM     16  C   UNL     1      49.432   3.025  17.249  0.00  0.00    +0.000 A 
ATOM     17  C   UNL     1      49.582   4.381  16.947  0.00  0.00    +0.000 A 
BRANCH  16  18
ATOM     18  C   UNL     1      50.659   2.233  17.498  0.00  0.00    +0.000 C 
ATOM     19  N   UNL     1      51.692   2.795  18.189  0.00  0.00    +0.000 N 
ATOM     20  O   UNL     1      50.755   1.080  17.091  0.00  0.00    +0.000 OA
ATOM     21  H   UNL     1      51.720   3.728  18.565  0.00  0.00    +0.000 HD
ATOM     22  H   UNL     1      52.506   2.207  18.329  0.00  0.00    +0.000 HD
ENDBRANCH  16  18
ENDBRANCH  11  12
ENDBRANCH  10  11
ENDBRANCH   9  10
ENDBRANCH   3   9
BRANCH   5  23
ATOM     23  O   UNL     1      45.514   5.349  11.814  0.00  0.00    +0.000 OA
BRANCH  23  24
ATOM     24  C   UNL     1      44.117   5.238  11.503  0.00  0.00    +0.000 C 
ATOM     25  C   UNL     1      43.427   4.463  12.606  0.00  0.00    +0.000 C 
ATOM     26  C   UNL     1      43.475   3.027  12.131  0.00  0.00    +0.000 C 
ATOM     27  O   UNL     1      43.509   3.049  10.704  0.00  0.00    +0.000 OA
ATOM     28  C   UNL     1      43.849   4.375  10.271  0.00  0.00    +0.000 C 
ENDBRANCH  23  24
ENDBRANCH   5  23
TORSDOF 8
ENDMDL
MODEL 9
REMARK VINA RESULT:    -6.234      2.846      4.681
REMARK INTER + INTRA:         -10.131
REMARK INTER:                  -9.030
REMARK INTRA:                  -1.101
REMARK UNBOUND:                -0.981
REMARK  Name = 
REMARK  8 active torsions:
REMARK  status: ('A' for Active; 'I' for Inactive)
REMARK    1  A    between atoms: C_2  and  C_3
REMARK    2  A    between atoms: C_5  and  C_6
REMARK    3  A    between atoms: C_6  and  C_7
REMARK    4  A    between atoms: C_7  and  O_8
REMARK    5  A    between atoms: O_8  and  C_9
REMARK    6  A    between atoms: C_13  and  C_14
REMARK    7  A    between atoms: C_19  and  O_20
REMARK    8  A    between atoms: O_20  and  C_21
REMARK                            x       y       z     vdW  Elec       q    Type
REMARK                         _______ _______ _______ _____ _____    ______ ____
ROOT
ATOM      1  C   UNL     1      48.430   8.796  16.600  0.00  0.00    +0.000 A 
ATOM      2  C   UNL     1      48.345   9.118  15.239  0.00  0.00    +0.000 A 
ATOM      3  C   UNL     1      48.730   8.190  14.257  0.00  0.00    +0.000 A 
ATOM      4  C   UNL     1      49.179   6.925  14.674  0.00  0.00    +0.000 A 
ATOM      5  C   UNL     1      49.337   6.622  16.030  0.00  0.00    +0.000 A 
ATOM      6  C   UNL     1      48.933   7.551  16.989  0.00  0.00    +0.000 A 
ENDROOT
BRANCH   1   8
ATOM      7  N   UNL     1      47.700  10.527  18.393  0.00  0.00    +0.000 NA
ATOM      8  C   UNL     1      48.023   9.751  17.595  0.00  0.00    +0.000 C 
ENDBRANCH   1   8
BRANCH   3   9
ATOM      9  C   UNL     1      48.729   8.485  12.768  0.00  0.00    +0.000 C 
BRANCH   9  10
ATOM     10  C   UNL     1      48.011   7.455  11.901  0.00  0.00    +0.000 C 
BRANCH  10  11
ATOM     11  O   UNL     1      46.630   7.357  12.263  0.00  0.00    +0.000 OA
BRANCH  11  12
ATOM     12  C   UNL     1      46.123   6.082  12.224  0.00  0.00    +0.000 A 
ATOM     13  C   UNL     1      46.303   5.290  13.348  0.00  0.00    +0.000 A 
ATOM     14  N   UNL     1      45.854   4.012  13.459  0.00  0.00    +0.000 NA
ATOM     15  C   UNL     1      45.189   3.503  12.391  0.00  0.00    +0.000 A 
ATOM     16  C   UNL     1      44.955   4.207  11.221  0.00  0.00    +0.000 A 
ATOM     17  C   UNL     1      45.438   5.517  11.150  0.00  0.00    +0.000 A 
BRANCH  16  18
ATOM     18  C   UNL     1      44.231   3.674  10.044  0.00  0.00    +0.000 C 
ATOM     19  N   UNL     1      44.096   4.450   8.930  0.00  0.00    +0.000 N 
ATOM     20  O   UNL     1      43.753   2.544  10.060  0.00  0.00    +0.000 OA
ATOM     21  H   UNL     1      44.446   5.386   8.809  0.00  0.00    +0.000 HD
ATOM     22  H   UNL     1      43.591   4.033   8.156  0.00  0.00    +0.000 HD
ENDBRANCH  16  18
ENDBRANCH  11  12
ENDBRANCH  10  11
ENDBRANCH   9  10
ENDBRANCH   3   9
BRANCH   5  23
ATOM     23  O   UNL     1      49.902   5.478  16.534  0.00  0.00    +0.000 OA
BRANCH  23  24
ATOM     24  C   UNL     1      49.072   4.643  17.355  0.00  0.00    +0.000 C 
ATOM     25  C   UNL     1      49.927   3.554  17.970  0.00  0.00    +0.000 C 
ATOM     26  C   UNL     1      49.821   2.406  16.990  0.00  0.00    +0.000 C 
ATOM     27  O   UNL     1      48.564   2.527  16.323  0.00  0.00    +0.000 OA
ATOM     28  C   UNL     1      48.047   3.847  16.549  0.00  0.00    +0.000 C 
ENDBRANCH  23  24
ENDBRANCH   5  23
TORSDOF 8
ENDMDL
