MODEL 1
REMARK VINA RESULT:    -8.565      0.000      0.000
REMARK INTER + INTRA:         -12.700
REMARK INTER:                 -11.569
REMARK INTRA:                  -1.131
REMARK UNBOUND:                -1.131
REMARK  Name = 
REMARK  6 active torsions:
REMARK  status: ('A' for Active; 'I' for Inactive)
REMARK    1  A    between atoms: C_2  and  C_19
REMARK    2  A    between atoms: N_3  and  C_4
REMARK    3  A    between atoms: C_4  and  C_5
REMARK    4  A    between atoms: C_8  and  C_9
REMARK    5  A    between atoms: C_9  and  N_10
REMARK    6  A    between atoms: N_10  and  C_11
REMARK                            x       y       z     vdW  Elec       q    Type
REMARK                         _______ _______ _______ _____ _____    ______ ____
ROOT
ATOM      1  C   UNL     1      46.845   8.039  13.183  0.00  0.00    +0.000 C 
ENDROOT
BRANCH   1   2
ATOM      2  C   UNL     1      46.123   7.032  12.328  0.00  0.00    +0.000 A 
ATOM      3  C   UNL     1      46.577   6.737  11.035  0.00  0.00    +0.000 A 
ATOM      4  C   UNL     1      45.944   5.756  10.260  0.00  0.00    +0.000 A 
ATOM      5  C   UNL     1      44.838   5.059  10.761  0.00  0.00    +0.000 A 
ATOM      6  C   UNL     1      44.363   5.382  12.043  0.00  0.00    +0.000 A 
ATOM      7  C   UNL     1      44.992   6.367  12.812  0.00  0.00    +0.000 A 
BRANCH   5   8
ATOM      8  C   UNL     1      44.113   4.013   9.940  0.00  0.00    +0.000 C 
BRANCH   8   9
ATOM      9  N   UNL     1      44.240   4.232   8.499  0.00  0.00    +0.000 NA
ATOM     10  H   UNL     1      44.724   5.114   8.339  0.00  0.00    +0.000 HD
BRANCH   9  11
ATOM     11  C   UNL     1      44.933   3.134   7.802  0.00  0.00    +0.000 C 
ATOM     12  C   UNL     1      45.421   2.014   8.744  0.00  0.00    +0.000 C 
ATOM     13  C   UNL     1      46.263   0.969   8.013  0.00  0.00    +0.000 C 
ATOM     14  C   UNL     1      47.446   1.614   7.307  0.00  0.00    +0.000 C 
ATOM     15  C   UNL     1      46.971   2.680   6.328  0.00  0.00    +0.000 C 
ATOM     16  C   UNL     1      46.116   3.741   7.023  0.00  0.00    +0.000 C 
ENDBRANCH   9  11
ENDBRANCH   8   9
ENDBRANCH   5   8
ENDBRANCH   1   2
BRANCH   1  19
ATOM     17  O   UNL     1      49.147   6.464  13.515  0.00  0.00    +0.000 OA
ATOM     18  C   UNL     1      48.470   6.746  14.499  0.00  0.00    +0.000 C 
ATOM     19  N   UNL     1      47.310   7.465  14.418  0.00  0.00    +0.000 N 
ATOM     20  H   UNL     1      46.881   7.824  15.265  0.00  0.00    +0.000 HD
BRANCH  18  21
ATOM     21  C   UNL     1      48.850   6.290  15.838  0.00  0.00    +0.000 A 
ATOM     22  C   UNL     1      49.663   7.075  16.641  0.00  0.00    +0.000 A 
ATOM     23  S   UNL     1      49.933   6.408  18.189  0.00  0.00    +0.000 S 
ATOM     24  C   UNL     1      48.955   5.058  17.837  0.00  0.00    +0.000 A 
ATOM     25  N   UNL     1      48.714   4.102  18.773  0.00  0.00    +0.000 NA
ATOM     26  C   UNL     1      47.914   3.159  18.380  0.00  0.00    +0.000 A 
ATOM     27  N   UNL     1      47.359   3.080  17.133  0.00  0.00    +0.000 N 
ATOM     28  C   UNL     1      47.659   3.964  16.129  0.00  0.00    +0.000 A 
ATOM     29  O   UNL     1      47.295   3.757  14.976  0.00  0.00    +0.000 OA
ATOM     30  C   UNL     1      48.472   5.089  16.545  0.00  0.00    +0.000 A 
ATOM     31  H   UNL     1      46.792   2.287  16.870  0.00  0.00    +0.000 HD
ENDBRANCH  18  21
ENDBRANCH   1  19
TORSDOF 6
ENDMDL
MODEL 2
REMARK VINA RESULT:    -8.058      2.007      2.510
REMARK INTER + INTRA:         -12.014
REMARK INTER:                 -11.085
REMARK INTRA:                  -0.930
REMARK UNBOUND:                -1.131
REMARK  Name = 
REMARK  6 active torsions:
REMARK  status: ('A' for Active; 'I' for Inactive)
REMARK    1  A    between atoms: C_2  and  C_19
REMARK    2  A    between atoms: N_3  and  C_4
REMARK    3  A    between atoms: C_4  and  C_5
REMARK    4  A    between atoms: C_8  and  C_9
REMARK    5  A    between atoms: C_9  and  N_10
REMARK    6  A    between atoms: N_10  and  C_11
REMARK                            x       y       z     vdW  Elec       q    Type
REMARK                         _______ _______ _______ _____ _____    ______ ____
ROOT
ATOM      1  C   UNL     1      47.882   6.688  13.744  0.00  0.00    +0.000 C 
ENDROOT
BRANCH   1   2
ATOM      2  C   UNL     1      46.887   6.006  12.843  0.00  0.00    +0.000 A 
ATOM      3  C   UNL     1      46.581   6.539  11.584  0.00  0.00    +0.000 A 
ATOM      4  C   UNL     1      45.703   5.873  10.719  0.00  0.00    +0.000 A 
ATOM      5  C   UNL     1      45.106   4.666  11.101  0.00  0.00    +0.000 A 
ATOM      6  C   UNL     1      45.387   4.152  12.378  0.00  0.00    +0.000 A 
ATOM      7  C   UNL     1      46.259   4.822  13.243  0.00  0.00    +0.000 A 
BRANCH   5   8
ATOM      8  C   UNL     1      44.131   3.936  10.203  0.00  0.00    +0.000 C 
BRANCH   8   9
ATOM      9  N   UNL     1      44.284   4.287   8.791  0.00  0.00    +0.000 NA
ATOM     10  H   UNL     1      44.815   5.154   8.721  0.00  0.00    +0.000 HD
BRANCH   9  11
ATOM     11  C   UNL     1      44.927   3.228   7.994  0.00  0.00    +0.000 C 
ATOM     12  C   UNL     1      45.415   2.030   8.835  0.00  0.00    +0.000 C 
ATOM     13  C   UNL     1      46.207   1.022   8.003  0.00  0.00    +0.000 C 
ATOM     14  C   UNL     1      47.384   1.691   7.307  0.00  0.00    +0.000 C 
ATOM     15  C   UNL     1      46.905   2.836   6.424  0.00  0.00    +0.000 C 
ATOM     16  C   UNL     1      46.100   3.862   7.222  0.00  0.00    +0.000 C 
ENDBRANCH   9  11
ENDBRANCH   8   9
ENDBRANCH   5   8
ENDBRANCH   1   2
BRANCH   1  19
ATOM     17  O   UNL     1      50.018   6.538  15.561  0.00  0.00    +0.000 OA
ATOM     18  C   UNL     1      48.896   6.203  15.930  0.00  0.00    +0.000 C 
ATOM     19  N   UNL     1      47.814   6.199  15.095  0.00  0.00    +0.000 N 
ATOM     20  H   UNL     1      46.882   6.087  15.482  0.00  0.00    +0.000 HD
BRANCH  18  21
ATOM     21  C   UNL     1      48.653   5.744  17.299  0.00  0.00    +0.000 A 
ATOM     22  C   UNL     1      48.816   4.407  17.629  0.00  0.00    +0.000 A 
ATOM     23  S   UNL     1      48.558   4.082  19.284  0.00  0.00    +0.000 S 
ATOM     24  C   UNL     1      48.240   5.723  19.613  0.00  0.00    +0.000 A 
ATOM     25  N   UNL     1      47.991   6.150  20.880  0.00  0.00    +0.000 NA
ATOM     26  C   UNL     1      47.814   7.431  20.985  0.00  0.00    +0.000 A 
ATOM     27  N   UNL     1      47.839   8.309  19.938  0.00  0.00    +0.000 N 
ATOM     28  C   UNL     1      47.982   7.907  18.635  0.00  0.00    +0.000 A 
ATOM     29  O   UNL     1      47.811   8.693  17.709  0.00  0.00    +0.000 OA
ATOM     30  C   UNL     1      48.278   6.498  18.472  0.00  0.00    +0.000 A 
ATOM     31  H   UNL     1      47.633   9.288  20.079  0.00  0.00    +0.000 HD
ENDBRANCH  18  21
ENDBRANCH   1  19
TORSDOF 6
ENDMDL
MODEL 3
REMARK VINA RESULT:    -7.909      1.574      1.941
REMARK INTER + INTRA:         -11.814
REMARK INTER:                 -10.789
REMARK INTRA:                  -1.025
REMARK UNBOUND:                -1.131
REMARK  Name = 
REMARK  6 active torsions:
REMARK  status: ('A' for Active; 'I' for Inactive)
REMARK    1  A    between atoms: C_2  and  C_19
REMARK    2  A    between atoms: N_3  and  C_4
REMARK    3  A    between atoms: C_4  and  C_5
REMARK    4  A    between atoms: C_8  and  C_9
REMARK    5  A    between atoms: C_9  and  N_10
REMARK    6  A    between atoms: N_10  and  C_11
REMARK                            x       y       z     vdW  Elec       q    Type
REMARK                         _______ _______ _______ _____ _____    ______ ____
ROOT
ATOM      1  C   UNL     1      48.301   6.947  13.554  0.00  0.00    +0.000 C 
ENDROOT
BRANCH   1   2
ATOM      2  C   UNL     1      47.186   6.238  12.833  0.00  0.00    +0.000 A 
ATOM      3  C   UNL     1      46.718   4.997  13.285  0.00  0.00    +0.000 A 
ATOM      4  C   UNL     1      45.639   4.365  12.654  0.00  0.00    +0.000 A 
ATOM      5  C   UNL     1      45.014   4.957  11.551  0.00  0.00    +0.000 A 
ATOM      6  C   UNL     1      45.508   6.185  11.078  0.00  0.00    +0.000 A 
ATOM      7  C   UNL     1      46.590   6.811  11.705  0.00  0.00    +0.000 A 
BRANCH   5   8
ATOM      8  C   UNL     1      43.865   4.289  10.828  0.00  0.00    +0.000 C 
BRANCH   8   9
ATOM      9  N   UNL     1      43.823   4.613   9.402  0.00  0.00    +0.000 NA
ATOM     10  H   UNL     1      44.295   5.504   9.250  0.00  0.00    +0.000 HD
BRANCH   9  11
ATOM     11  C   UNL     1      44.417   3.568   8.549  0.00  0.00    +0.000 C 
ATOM     12  C   UNL     1      44.718   2.254   9.300  0.00  0.00    +0.000 C 
ATOM     13  C   UNL     1      45.468   1.248   8.427  0.00  0.00    +0.000 C 
ATOM     14  C   UNL     1      46.755   1.848   7.881  0.00  0.00    +0.000 C 
ATOM     15  C   UNL     1      46.462   3.113   7.085  0.00  0.00    +0.000 C 
ATOM     16  C   UNL     1      45.704   4.142   7.924  0.00  0.00    +0.000 C 
ENDBRANCH   9  11
ENDBRANCH   8   9
ENDBRANCH   5   8
ENDBRANCH   1   2
BRANCH   1  19
ATOM     17  O   UNL     1      50.339   6.639  15.462  0.00  0.00    +0.000 OA
ATOM     18  C   UNL     1      49.185   6.806  15.844  0.00  0.00    +0.000 C 
ATOM     19  N   UNL     1      48.129   6.915  14.983  0.00  0.00    +0.000 N 
ATOM     20  H   UNL     1      47.228   7.227  15.329  0.00  0.00    +0.000 HD
BRANCH  18  21
ATOM     21  C   UNL     1      48.858   6.863  17.271  0.00  0.00    +0.000 A 
ATOM     22  C   UNL     1      48.403   8.042  17.839  0.00  0.00    +0.000 A 
ATOM     23  S   UNL     1      48.006   7.888  19.492  0.00  0.00    +0.000 S 
ATOM     24  C   UNL     1      48.414   6.234  19.491  0.00  0.00    +0.000 A 
ATOM     25  N   UNL     1      48.252   5.471  20.605  0.00  0.00    +0.000 NA
ATOM     26  C   UNL     1      48.557   4.220  20.443  0.00  0.00    +0.000 A 
ATOM     27  N   UNL     1      49.029   3.678  19.280  0.00  0.00    +0.000 N 
ATOM     28  C   UNL     1      49.305   4.432  18.168  0.00  0.00    +0.000 A 
ATOM     29  O   UNL     1      49.903   3.950  17.212  0.00  0.00    +0.000 OA
ATOM     30  C   UNL     1      48.892   5.818  18.266  0.00  0.00    +0.000 A 
ATOM     31  H   UNL     1      49.306   2.708  19.238  0.00  0.00    +0.000 HD
ENDBRANCH  18  21
ENDBRANCH   1  19
TORSDOF 6
ENDMDL
MODEL 4
REMARK VINA RESULT:    -7.774      3.295      5.371
REMARK INTER + INTRA:         -11.631
REMARK INTER:                 -10.923
REMARK INTRA:                  -0.709
REMARK UNBOUND:                -1.131
REMARK  Name = 
REMARK  6 active torsions:
REMARK  status: ('A' for Active; 'I' for Inactive)
REMARK    1  A    between atoms: C_2  and  C_19
REMARK    2  A    between atoms: N_3  and  C_4
REMARK    3  A    between atoms: C_4  and  C_5
REMARK    4  A    between atoms: C_8  and  C_9
REMARK    5  A    between atoms: C_9  and  N_10
REMARK    6  A    between atoms: N_10  and  C_11
REMARK                            x       y       z     vdW  Elec       q    Type
REMARK                         _______ _______ _______ _____ _____    ______ ____
ROOT
ATOM      1  C   UNL     1      47.459   6.258  13.709  0.00  0.00    +0.000 C 
ENDROOT
BRANCH   1   2
ATOM      2  C   UNL     1      46.533   5.471  12.820  0.00  0.00    +0.000 A 
ATOM      3  C   UNL     1      46.042   6.026  11.630  0.00  0.00    +0.000 A 
ATOM      4  C   UNL     1      45.231   5.274  10.771  0.00  0.00    +0.000 A 
ATOM      5  C   UNL     1      44.886   3.956  11.090  0.00  0.00    +0.000 A 
ATOM      6  C   UNL     1      45.350   3.414  12.301  0.00  0.00    +0.000 A 
ATOM      7  C   UNL     1      46.154   4.169  13.161  0.00  0.00    +0.000 A 
BRANCH   5   8
ATOM      8  C   UNL     1      43.988   3.125  10.198  0.00  0.00    +0.000 C 
BRANCH   8   9
ATOM      9  N   UNL     1      44.677   1.977   9.608  0.00  0.00    +0.000 NA
ATOM     10  H   UNL     1      43.999   1.408   9.102  0.00  0.00    +0.000 HD
BRANCH   9  11
ATOM     11  C   UNL     1      45.789   2.358   8.720  0.00  0.00    +0.000 C 
ATOM     12  C   UNL     1      45.395   3.393   7.645  0.00  0.00    +0.000 C 
ATOM     13  C   UNL     1      46.527   3.654   6.651  0.00  0.00    +0.000 C 
ATOM     14  C   UNL     1      46.987   2.362   5.993  0.00  0.00    +0.000 C 
ATOM     15  C   UNL     1      47.437   1.355   7.044  0.00  0.00    +0.000 C 
ATOM     16  C   UNL     1      46.332   1.074   8.063  0.00  0.00    +0.000 C 
ENDBRANCH   9  11
ENDBRANCH   8   9
ENDBRANCH   5   8
ENDBRANCH   1   2
BRANCH   1  19
ATOM     17  O   UNL     1      49.072   7.522  11.789  0.00  0.00    +0.000 OA
ATOM     18  C   UNL     1      48.244   8.187  12.404  0.00  0.00    +0.000 C 
ATOM     19  N   UNL     1      47.455   7.661  13.388  0.00  0.00    +0.000 N 
ATOM     20  H   UNL     1      46.670   8.197  13.743  0.00  0.00    +0.000 HD
BRANCH  18  21
ATOM     21  C   UNL     1      48.075   9.619  12.143  0.00  0.00    +0.000 A 
ATOM     22  C   UNL     1      49.181  10.429  11.938  0.00  0.00    +0.000 A 
ATOM     23  S   UNL     1      48.778  12.047  11.577  0.00  0.00    +0.000 S 
ATOM     24  C   UNL     1      47.111  11.708  11.665  0.00  0.00    +0.000 A 
ATOM     25  N   UNL     1      46.184  12.668  11.401  0.00  0.00    +0.000 NA
ATOM     26  C   UNL     1      44.956  12.253  11.460  0.00  0.00    +0.000 A 
ATOM     27  N   UNL     1      44.578  10.979  11.781  0.00  0.00    +0.000 N 
ATOM     28  C   UNL     1      45.475  10.012  12.155  0.00  0.00    +0.000 A 
ATOM     29  O   UNL     1      45.093   8.942  12.618  0.00  0.00    +0.000 OA
ATOM     30  C   UNL     1      46.866  10.396  12.014  0.00  0.00    +0.000 A 
ATOM     31  H   UNL     1      43.602  10.736  11.869  0.00  0.00    +0.000 HD
ENDBRANCH  18  21
ENDBRANCH   1  19
TORSDOF 6
ENDMDL
MODEL 5
REMARK VINA RESULT:    -7.538      2.598      3.729
REMARK INTER + INTRA:         -11.313
REMARK INTER:                 -10.579
REMARK INTRA:                  -0.735
REMARK UNBOUND:                -1.131
REMARK  Name = 
REMARK  6 active torsions:
REMARK  status: ('A' for Active; 'I' for Inactive)
REMARK    1  A    between atoms: C_2  and  C_19
REMARK    2  A    between atoms: N_3  and  C_4
REMARK    3  A    between atoms: C_4  and  C_5
REMARK    4  A    between atoms: C_8  and  C_9
REMARK    5  A    between atoms: C_9  and  N_10
REMARK    6  A    between atoms: N_10  and  C_11
REMARK                            x       y       z     vdW  Elec       q    Type
REMARK                         _______ _______ _______ _____ _____    ______ ____
ROOT
ATOM      1  C   UNL     1      47.179   5.013  14.651  0.00  0.00    +0.000 C 
ENDROOT
BRANCH   1   2
ATOM      2  C   UNL     1      46.452   4.792  13.352  0.00  0.00    +0.000 A 
ATOM      3  C   UNL     1      45.896   3.541  13.049  0.00  0.00    +0.000 A 
ATOM      4  C   UNL     1      45.165   3.349  11.869  0.00  0.00    +0.000 A 
ATOM      5  C   UNL     1      44.985   4.402  10.965  0.00  0.00    +0.000 A 
ATOM      6  C   UNL     1      45.573   5.645  11.254  0.00  0.00    +0.000 A 
ATOM      7  C   UNL     1      46.309   5.833  12.429  0.00  0.00    +0.000 A 
BRANCH   5   8
ATOM      8  C   UNL     1      44.225   4.222   9.668  0.00  0.00    +0.000 C 
BRANCH   8   9
ATOM      9  N   UNL     1      45.033   4.531   8.488  0.00  0.00    +0.000 NA
ATOM     10  H   UNL     1      45.847   5.072   8.775  0.00  0.00    +0.000 HD
BRANCH   9  11
ATOM     11  C   UNL     1      45.452   3.333   7.739  0.00  0.00    +0.000 C 
ATOM     12  C   UNL     1      45.878   2.157   8.642  0.00  0.00    +0.000 C 
ATOM     13  C   UNL     1      46.446   0.987   7.839  0.00  0.00    +0.000 C 
ATOM     14  C   UNL     1      47.615   1.434   6.972  0.00  0.00    +0.000 C 
ATOM     15  C   UNL     1      47.188   2.555   6.032  0.00  0.00    +0.000 C 
ATOM     16  C   UNL     1      46.604   3.741   6.800  0.00  0.00    +0.000 C 
ENDBRANCH   9  11
ENDBRANCH   8   9
ENDBRANCH   5   8
ENDBRANCH   1   2
BRANCH   1  19
ATOM     17  O   UNL     1      49.477   5.823  16.048  0.00  0.00    +0.000 OA
ATOM     18  C   UNL     1      48.822   6.663  15.440  0.00  0.00    +0.000 C 
ATOM     19  N   UNL     1      47.665   6.362  14.777  0.00  0.00    +0.000 N 
ATOM     20  H   UNL     1      47.255   7.043  14.146  0.00  0.00    +0.000 HD
BRANCH  18  21
ATOM     21  C   UNL     1      49.225   8.071  15.419  0.00  0.00    +0.000 A 
ATOM     22  C   UNL     1      49.995   8.564  14.376  0.00  0.00    +0.000 A 
ATOM     23  S   UNL     1      50.299  10.239  14.492  0.00  0.00    +0.000 S 
ATOM     24  C   UNL     1      49.394  10.359  15.931  0.00  0.00    +0.000 A 
ATOM     25  N   UNL     1      49.204  11.558  16.544  0.00  0.00    +0.000 NA
ATOM     26  C   UNL     1      48.455  11.504  17.601  0.00  0.00    +0.000 A 
ATOM     27  N   UNL     1      47.905  10.359  18.108  0.00  0.00    +0.000 N 
ATOM     28  C   UNL     1      48.158   9.118  17.582  0.00  0.00    +0.000 A 
ATOM     29  O   UNL     1      47.806   8.100  18.169  0.00  0.00    +0.000 OA
ATOM     30  C   UNL     1      48.911   9.134  16.343  0.00  0.00    +0.000 A 
ATOM     31  H   UNL     1      47.381  10.376  18.971  0.00  0.00    +0.000 HD
ENDBRANCH  18  21
ENDBRANCH   1  19
TORSDOF 6
ENDMDL
MODEL 6
REMARK VINA RESULT:    -7.459      2.274      3.809
REMARK INTER + INTRA:         -11.205
REMARK INTER:                  -9.939
REMARK INTRA:                  -1.266
REMARK UNBOUND:                -1.131
REMARK  Name = 
REMARK  6 active torsions:
REMARK  status: ('A' for Active; 'I' for Inactive)
REMARK    1  A    between atoms: C_2  and  C_19
REMARK    2  A    between atoms: N_3  and  C_4
REMARK    3  A    between atoms: C_4  and  C_5
REMARK    4  A    between atoms: C_8  and  C_9
REMARK    5  A    between atoms: C_9  and  N_10
REMARK    6  A    between atoms: N_10  and  C_11
REMARK                            x       y       z     vdW  Elec       q    Type
REMARK                         _______ _______ _______ _____ _____    ______ ____
ROOT
ATOM      1  C   UNL     1      46.840   5.019  14.516  0.00  0.00    +0.000 C 
ENDROOT
BRANCH   1   2
ATOM      2  C   UNL     1      46.194   4.884  13.163  0.00  0.00    +0.000 A 
ATOM      3  C   UNL     1      46.200   5.954  12.258  0.00  0.00    +0.000 A 
ATOM      4  C   UNL     1      45.655   5.811  10.976  0.00  0.00    +0.000 A 
ATOM      5  C   UNL     1      45.084   4.597  10.577  0.00  0.00    +0.000 A 
ATOM      6  C   UNL     1      45.047   3.537  11.498  0.00  0.00    +0.000 A 
ATOM      7  C   UNL     1      45.585   3.684  12.781  0.00  0.00    +0.000 A 
BRANCH   5   8
ATOM      8  C   UNL     1      44.460   4.417   9.209  0.00  0.00    +0.000 C 
BRANCH   8   9
ATOM      9  N   UNL     1      44.164   3.019   8.898  0.00  0.00    +0.000 NA
ATOM     10  H   UNL     1      43.193   2.944   8.600  0.00  0.00    +0.000 HD
BRANCH   9  11
ATOM     11  C   UNL     1      45.059   2.448   7.875  0.00  0.00    +0.000 C 
ATOM     12  C   UNL     1      45.997   1.351   8.417  0.00  0.00    +0.000 C 
ATOM     13  C   UNL     1      47.010   0.886   7.371  0.00  0.00    +0.000 C 
ATOM     14  C   UNL     1      47.823   2.057   6.837  0.00  0.00    +0.000 C 
ATOM     15  C   UNL     1      46.907   3.120   6.243  0.00  0.00    +0.000 C 
ATOM     16  C   UNL     1      45.873   3.603   7.260  0.00  0.00    +0.000 C 
ENDBRANCH   9  11
ENDBRANCH   8   9
ENDBRANCH   5   8
ENDBRANCH   1   2
BRANCH   1  19
ATOM     17  O   UNL     1      49.128   5.460  16.083  0.00  0.00    +0.000 OA
ATOM     18  C   UNL     1      48.680   6.382  15.408  0.00  0.00    +0.000 C 
ATOM     19  N   UNL     1      47.544   6.266  14.658  0.00  0.00    +0.000 N 
ATOM     20  H   UNL     1      47.310   6.988  13.984  0.00  0.00    +0.000 HD
BRANCH  18  21
ATOM     21  C   UNL     1      49.326   7.697  15.397  0.00  0.00    +0.000 A 
ATOM     22  C   UNL     1      49.405   8.449  16.558  0.00  0.00    +0.000 A 
ATOM     23  S   UNL     1      50.256   9.915  16.359  0.00  0.00    +0.000 S 
ATOM     24  C   UNL     1      50.560   9.578  14.717  0.00  0.00    +0.000 A 
ATOM     25  N   UNL     1      51.305  10.422  13.953  0.00  0.00    +0.000 NA
ATOM     26  C   UNL     1      51.494  10.013  12.737  0.00  0.00    +0.000 A 
ATOM     27  N   UNL     1      50.986   8.855  12.217  0.00  0.00    +0.000 N 
ATOM     28  C   UNL     1      50.145   8.031  12.920  0.00  0.00    +0.000 A 
ATOM     29  O   UNL     1      49.559   7.107  12.367  0.00  0.00    +0.000 OA
ATOM     30  C   UNL     1      49.980   8.393  14.314  0.00  0.00    +0.000 A 
ATOM     31  H   UNL     1      51.120   8.624  11.243  0.00  0.00    +0.000 HD
ENDBRANCH  18  21
ENDBRANCH   1  19
TORSDOF 6
ENDMDL
MODEL 7
REMARK VINA RESULT:    -7.425      2.926      4.730
REMARK INTER + INTRA:         -11.160
REMARK INTER:                 -10.144
REMARK INTRA:                  -1.016
REMARK UNBOUND:                -1.131
REMARK  Name = 
REMARK  6 active torsions:
REMARK  status: ('A' for Active; 'I' for Inactive)
REMARK    1  A    between atoms: C_2  and  C_19
REMARK    2  A    between atoms: N_3  and  C_4
REMARK    3  A    between atoms: C_4  and  C_5
REMARK    4  A    between atoms: C_8  and  C_9
REMARK    5  A    between atoms: C_9  and  N_10
REMARK    6  A    between atoms: N_10  and  C_11
REMARK                            x       y       z     vdW  Elec       q    Type
REMARK                         _______ _______ _______ _____ _____    ______ ____
ROOT
ATOM      1  C   UNL     1      47.350   5.759  14.303  0.00  0.00    +0.000 C 
ENDROOT
BRANCH   1   2
ATOM      2  C   UNL     1      46.531   5.097  13.227  0.00  0.00    +0.000 A 
ATOM      3  C   UNL     1      46.215   3.734  13.306  0.00  0.00    +0.000 A 
ATOM      4  C   UNL     1      45.401   3.130  12.339  0.00  0.00    +0.000 A 
ATOM      5  C   UNL     1      44.896   3.877  11.269  0.00  0.00    +0.000 A 
ATOM      6  C   UNL     1      45.243   5.235  11.172  0.00  0.00    +0.000 A 
ATOM      7  C   UNL     1      46.062   5.834  12.135  0.00  0.00    +0.000 A 
BRANCH   5   8
ATOM      8  C   UNL     1      44.037   3.250  10.191  0.00  0.00    +0.000 C 
BRANCH   8   9
ATOM      9  N   UNL     1      44.649   2.062   9.594  0.00  0.00    +0.000 NA
ATOM     10  H   UNL     1      43.939   1.552   9.069  0.00  0.00    +0.000 HD
BRANCH   9  11
ATOM     11  C   UNL     1      45.800   2.373   8.728  0.00  0.00    +0.000 C 
ATOM     12  C   UNL     1      45.503   3.454   7.669  0.00  0.00    +0.000 C 
ATOM     13  C   UNL     1      46.665   3.646   6.695  0.00  0.00    +0.000 C 
ATOM     14  C   UNL     1      47.035   2.334   6.018  0.00  0.00    +0.000 C 
ATOM     15  C   UNL     1      47.391   1.276   7.056  0.00  0.00    +0.000 C 
ATOM     16  C   UNL     1      46.253   1.063   8.054  0.00  0.00    +0.000 C 
ENDBRANCH   9  11
ENDBRANCH   8   9
ENDBRANCH   5   8
ENDBRANCH   1   2
BRANCH   1  19
ATOM     17  O   UNL     1      49.555   6.704  12.842  0.00  0.00    +0.000 OA
ATOM     18  C   UNL     1      48.713   7.505  13.237  0.00  0.00    +0.000 C 
ATOM     19  N   UNL     1      47.638   7.135  13.996  0.00  0.00    +0.000 N 
ATOM     20  H   UNL     1      46.881   7.793  14.149  0.00  0.00    +0.000 HD
BRANCH  18  21
ATOM     21  C   UNL     1      48.833   8.936  12.948  0.00  0.00    +0.000 A 
ATOM     22  C   UNL     1      48.847   9.387  11.637  0.00  0.00    +0.000 A 
ATOM     23  S   UNL     1      48.917  11.087  11.506  0.00  0.00    +0.000 S 
ATOM     24  C   UNL     1      48.912  11.272  13.200  0.00  0.00    +0.000 A 
ATOM     25  N   UNL     1      48.904  12.505  13.772  0.00  0.00    +0.000 NA
ATOM     26  C   UNL     1      48.852  12.492  15.068  0.00  0.00    +0.000 A 
ATOM     27  N   UNL     1      48.831  11.360  15.835  0.00  0.00    +0.000 N 
ATOM     28  C   UNL     1      48.943  10.101  15.303  0.00  0.00    +0.000 A 
ATOM     29  O   UNL     1      49.111   9.123  16.024  0.00  0.00    +0.000 OA
ATOM     30  C   UNL     1      48.908  10.057  13.854  0.00  0.00    +0.000 A 
ATOM     31  H   UNL     1      48.851  11.418  16.842  0.00  0.00    +0.000 HD
ENDBRANCH  18  21
ENDBRANCH   1  19
TORSDOF 6
ENDMDL
MODEL 8
REMARK VINA RESULT:    -7.281      2.728      4.510
REMARK INTER + INTRA:         -10.965
REMARK INTER:                  -9.795
REMARK INTRA:                  -1.170
REMARK UNBOUND:                -1.131
REMARK  Name = 
REMARK  6 active torsions:
REMARK  status: ('A' for Active; 'I' for Inactive)
REMARK    1  A    between atoms: C_2  and  C_19
REMARK    2  A    between atoms: N_3  and  C_4
REMARK    3  A    between atoms: C_4  and  C_5
REMARK    4  A    between atoms: C_8  and  C_9
REMARK    5  A    between atoms: C_9  and  N_10
REMARK    6  A    between atoms: N_10  and  C_11
REMARK                            x       y       z     vdW  Elec       q    Type
REMARK                         _______ _______ _______ _____ _____    ______ ____
ROOT
ATOM      1  C   UNL     1      47.475   5.464  14.562  0.00  0.00    +0.000 C 
ENDROOT
BRANCH   1   2
ATOM      2  C   UNL     1      46.621   5.062  13.389  0.00  0.00    +0.000 A 
ATOM      3  C   UNL     1      46.117   3.759  13.285  0.00  0.00    +0.000 A 
ATOM      4  C   UNL     1      45.271   3.400  12.227  0.00  0.00    +0.000 A 
ATOM      5  C   UNL     1      44.922   4.336  11.247  0.00  0.00    +0.000 A 
ATOM      6  C   UNL     1      45.457   5.632  11.334  0.00  0.00    +0.000 A 
ATOM      7  C   UNL     1      46.307   5.987  12.387  0.00  0.00    +0.000 A 
BRANCH   5   8
ATOM      8  C   UNL     1      44.034   3.974  10.076  0.00  0.00    +0.000 C 
BRANCH   8   9
ATOM      9  N   UNL     1      44.361   2.672   9.494  0.00  0.00    +0.000 NA
ATOM     10  H   UNL     1      43.584   2.366   8.909  0.00  0.00    +0.000 HD
BRANCH   9  11
ATOM     11  C   UNL     1      45.613   2.679   8.717  0.00  0.00    +0.000 C 
ATOM     12  C   UNL     1      45.578   3.621   7.496  0.00  0.00    +0.000 C 
ATOM     13  C   UNL     1      46.832   3.493   6.630  0.00  0.00    +0.000 C 
ATOM     14  C   UNL     1      47.043   2.055   6.180  0.00  0.00    +0.000 C 
ATOM     15  C   UNL     1      47.141   1.125   7.383  0.00  0.00    +0.000 C 
ATOM     16  C   UNL     1      45.906   1.232   8.278  0.00  0.00    +0.000 C 
ENDBRANCH   9  11
ENDBRANCH   8   9
ENDBRANCH   5   8
ENDBRANCH   1   2
BRANCH   1  19
ATOM     17  O   UNL     1      49.874   6.393  15.688  0.00  0.00    +0.000 OA
ATOM     18  C   UNL     1      49.237   7.135  14.947  0.00  0.00    +0.000 C 
ATOM     19  N   UNL     1      48.036   6.779  14.398  0.00  0.00    +0.000 N 
ATOM     20  H   UNL     1      47.634   7.346  13.659  0.00  0.00    +0.000 HD
BRANCH  18  21
ATOM     21  C   UNL     1      49.712   8.484  14.631  0.00  0.00    +0.000 A 
ATOM     22  C   UNL     1      49.829   9.438  15.631  0.00  0.00    +0.000 A 
ATOM     23  S   UNL     1      50.468  10.921  15.080  0.00  0.00    +0.000 S 
ATOM     24  C   UNL     1      50.625  10.325  13.491  0.00  0.00    +0.000 A 
ATOM     25  N   UNL     1      51.172  11.087  12.506  0.00  0.00    +0.000 NA
ATOM     26  C   UNL     1      51.272  10.486  11.361  0.00  0.00    +0.000 A 
ATOM     27  N   UNL     1      50.853   9.209  11.113  0.00  0.00    +0.000 N 
ATOM     28  C   UNL     1      50.203   8.446  12.048  0.00  0.00    +0.000 A 
ATOM     29  O   UNL     1      49.675   7.383  11.739  0.00  0.00    +0.000 OA
ATOM     30  C   UNL     1      50.152   9.035  13.371  0.00  0.00    +0.000 A 
ATOM     31  H   UNL     1      50.904   8.820  10.182  0.00  0.00    +0.000 HD
ENDBRANCH  18  21
ENDBRANCH   1  19
TORSDOF 6
ENDMDL
MODEL 9
REMARK VINA RESULT:    -7.099      3.526      5.571
REMARK INTER + INTRA:         -10.720
REMARK INTER:                  -9.615
REMARK INTRA:                  -1.105
REMARK UNBOUND:                -1.131
REMARK  Name = 
REMARK  6 active torsions:
REMARK  status: ('A' for Active; 'I' for Inactive)
REMARK    1  A    between atoms: C_2  and  C_19
REMARK    2  A    between atoms: N_3  and  C_4
REMARK    3  A    between atoms: C_4  and  C_5
REMARK    4  A    between atoms: C_8  and  C_9
REMARK    5  A    between atoms: C_9  and  N_10
REMARK    6  A    between atoms: N_10  and  C_11
REMARK                            x       y       z     vdW  Elec       q    Type
REMARK                         _______ _______ _______ _____ _____    ______ ____
ROOT
ATOM      1  C   UNL     1      47.489   7.170  13.645  0.00  0.00    +0.000 C 
ENDROOT
BRANCH   1   2
ATOM      2  C   UNL     1      46.670   6.283  12.744  0.00  0.00    +0.000 A 
ATOM      3  C   UNL     1      46.181   5.054  13.206  0.00  0.00    +0.000 A 
ATOM      4  C   UNL     1      45.367   4.256  12.391  0.00  0.00    +0.000 A 
ATOM      5  C   UNL     1      45.036   4.668  11.095  0.00  0.00    +0.000 A 
ATOM      6  C   UNL     1      45.557   5.884  10.623  0.00  0.00    +0.000 A 
ATOM      7  C   UNL     1      46.375   6.676  11.435  0.00  0.00    +0.000 A 
BRANCH   5   8
ATOM      8  C   UNL     1      44.183   3.817  10.179  0.00  0.00    +0.000 C 
BRANCH   8   9
ATOM      9  N   UNL     1      44.320   4.185   8.769  0.00  0.00    +0.000 NA
ATOM     10  H   UNL     1      44.839   5.060   8.704  0.00  0.00    +0.000 HD
BRANCH   9  11
ATOM     11  C   UNL     1      44.970   3.142   7.956  0.00  0.00    +0.000 C 
ATOM     12  C   UNL     1      45.542   1.976   8.789  0.00  0.00    +0.000 C 
ATOM     13  C   UNL     1      46.338   0.990   7.933  0.00  0.00    +0.000 C 
ATOM     14  C   UNL     1      47.456   1.696   7.180  0.00  0.00    +0.000 C 
ATOM     15  C   UNL     1      46.893   2.810   6.306  0.00  0.00    +0.000 C 
ATOM     16  C   UNL     1      46.082   3.813   7.127  0.00  0.00    +0.000 C 
ENDBRANCH   9  11
ENDBRANCH   8   9
ENDBRANCH   5   8
ENDBRANCH   1   2
BRANCH   1  19
ATOM     17  O   UNL     1      49.406   8.910  14.733  0.00  0.00    +0.000 OA
ATOM     18  C   UNL     1      49.327   8.797  13.513  0.00  0.00    +0.000 C 
ATOM     19  N   UNL     1      48.390   8.011  12.902  0.00  0.00    +0.000 N 
ATOM     20  H   UNL     1      48.472   7.810  11.911  0.00  0.00    +0.000 HD
BRANCH  18  21
ATOM     21  C   UNL     1      50.221   9.541  12.623  0.00  0.00    +0.000 A 
ATOM     22  C   UNL     1      51.595   9.398  12.731  0.00  0.00    +0.000 A 
ATOM     23  S   UNL     1      52.463  10.286  11.560  0.00  0.00    +0.000 S 
ATOM     24  C   UNL     1      51.024  10.874  10.862  0.00  0.00    +0.000 A 
ATOM     25  N   UNL     1      51.052  11.668   9.757  0.00  0.00    +0.000 NA
ATOM     26  C   UNL     1      49.881  11.999   9.309  0.00  0.00    +0.000 A 
ATOM     27  N   UNL     1      48.695  11.628   9.879  0.00  0.00    +0.000 N 
ATOM     28  C   UNL     1      48.625  10.918  11.050  0.00  0.00    +0.000 A 
ATOM     29  O   UNL     1      47.556  10.765  11.633  0.00  0.00    +0.000 OA
ATOM     30  C   UNL     1      49.903  10.442  11.540  0.00  0.00    +0.000 A 
ATOM     31  H   UNL     1      47.818  11.970   9.516  0.00  0.00    +0.000 HD
ENDBRANCH  18  21
ENDBRANCH   1  19
TORSDOF 6
ENDMDL
