MODEL 1
REMARK VINA RESULT:    -8.139      0.000      0.000
REMARK INTER + INTRA:         -12.066
REMARK INTER:                 -11.232
REMARK INTRA:                  -0.835
REMARK UNBOUND:                -0.835
REMARK  Name = 
REMARK  9 active torsions:
REMARK  status: ('A' for Active; 'I' for Inactive)
REMARK    1  A    between atoms: C_1  and  C_2
REMARK    2  A    between atoms: C_6  and  N_7
REMARK    3  A    between atoms: N_7  and  C_8
REMARK    4  A    between atoms: C_8  and  C_9
REMARK    5  A    between atoms: C_12  and  C_13
REMARK    6  A    between atoms: C_13  and  O_15
REMARK    7  A    between atoms: C_19  and  O_20
REMARK    8  A    between atoms: O_20  and  C_21
REMARK    9  A    between atoms: N_23  and  C_24
REMARK                            x       y       z     vdW  Elec       q    Type
REMARK                         _______ _______ _______ _____ _____    ______ ____
ROOT
ATOM      1  C   UNL     1      47.523   8.062  13.741  0.00  0.00    +0.000 C 
ATOM      2  C   UNL     1      46.701   6.919  13.207  0.00  0.00    +0.000 A 
ATOM      3  C   UNL     1      45.628   7.123  12.320  0.00  0.00    +0.000 A 
ATOM      4 CL   UNL     1      45.163   8.694  11.756  0.00  0.00    +0.000 Cl
ATOM      5  C   UNL     1      44.867   6.047  11.846  0.00  0.00    +0.000 A 
ATOM      6  C   UNL     1      45.159   4.732  12.207  0.00  0.00    +0.000 A 
ATOM      7  C   UNL     1      46.207   4.533  13.110  0.00  0.00    +0.000 A 
ATOM      8  C   UNL     1      46.980   5.596  13.604  0.00  0.00    +0.000 A 
ENDROOT
BRANCH   6   9
ATOM      9  N   UNL     1      44.320   3.709  11.770  0.00  0.00    +0.000 N 
ATOM     10  H   UNL     1      43.669   3.392  12.483  0.00  0.00    +0.000 HD
BRANCH   9  11
ATOM     11  C   UNL     1      43.691   3.744  10.456  0.00  0.00    +0.000 C 
BRANCH  11  12
ATOM     12  C   UNL     1      44.719   3.350   9.418  0.00  0.00    +0.000 A 
ATOM     13  C   UNL     1      45.120   2.017   9.256  0.00  0.00    +0.000 A 
ATOM     14  C   UNL     1      46.040   1.670   8.258  0.00  0.00    +0.000 A 
ATOM     15  C   UNL     1      46.574   2.658   7.421  0.00  0.00    +0.000 A 
ATOM     16  C   UNL     1      46.174   3.989   7.578  0.00  0.00    +0.000 A 
ATOM     17  C   UNL     1      45.256   4.331   8.570  0.00  0.00    +0.000 A 
BRANCH  15  18
ATOM     18  C   UNL     1      47.515   2.346   6.315  0.00  0.00    +0.000 C 
ATOM     19  O   UNL     1      48.278   1.396   6.348  0.00  0.00    +0.000 OA
BRANCH  18  20
ATOM     20  O   UNL     1      47.433   3.187   5.263  0.00  0.00    +0.000 OA
ATOM     21  H   UNL     1      46.626   3.731   5.230  0.00  0.00    +0.000 HD
ENDBRANCH  18  20
ENDBRANCH  15  18
ENDBRANCH  11  12
ENDBRANCH   9  11
ENDBRANCH   6   9
BRANCH   8  22
ATOM     22  O   UNL     1      48.046   5.398  14.467  0.00  0.00    +0.000 OA
BRANCH  22  23
ATOM     23  C   UNL     1      47.779   4.941  15.822  0.00  0.00    +0.000 C 
ATOM     24  C   UNL     1      48.914   5.122  16.856  0.00  0.00    +0.000 C 
ATOM     25  N   UNL     1      48.929   3.675  17.126  0.00  0.00    +0.000 NA
ATOM     26  C   UNL     1      48.414   3.396  18.465  0.00  0.00    +0.000 C 
ATOM     27  C   UNL     1      47.906   3.428  16.098  0.00  0.00    +0.000 C 
ENDBRANCH  22  23
ENDBRANCH   8  22
TORSDOF 7
ENDMDL
MODEL 2
REMARK VINA RESULT:    -7.736      3.181      5.514
REMARK INTER + INTRA:         -11.510
REMARK INTER:                 -10.605
REMARK INTRA:                  -0.906
REMARK UNBOUND:                -0.835
REMARK  Name = 
REMARK  9 active torsions:
REMARK  status: ('A' for Active; 'I' for Inactive)
REMARK    1  A    between atoms: C_1  and  C_2
REMARK    2  A    between atoms: C_6  and  N_7
REMARK    3  A    between atoms: N_7  and  C_8
REMARK    4  A    between atoms: C_8  and  C_9
REMARK    5  A    between atoms: C_12  and  C_13
REMARK    6  A    between atoms: C_13  and  O_15
REMARK    7  A    between atoms: C_19  and  O_20
REMARK    8  A    between atoms: O_20  and  C_21
REMARK    9  A    between atoms: N_23  and  C_24
REMARK                            x       y       z     vdW  Elec       q    Type
REMARK                         _______ _______ _______ _____ _____    ______ ____
ROOT
ATOM      1  C   UNL     1      47.585   9.504  12.326  0.00  0.00    +0.000 C 
ATOM      2  C   UNL     1      46.726   8.281  12.146  0.00  0.00    +0.000 A 
ATOM      3  C   UNL     1      47.209   6.985  12.405  0.00  0.00    +0.000 A 
ATOM      4 CL   UNL     1      48.821   6.680  12.962  0.00  0.00    +0.000 Cl
ATOM      5  C   UNL     1      46.397   5.860  12.217  0.00  0.00    +0.000 A 
ATOM      6  C   UNL     1      45.073   5.977  11.796  0.00  0.00    +0.000 A 
ATOM      7  C   UNL     1      44.603   7.263  11.512  0.00  0.00    +0.000 A 
ATOM      8  C   UNL     1      45.400   8.406  11.686  0.00  0.00    +0.000 A 
ENDROOT
BRANCH   6   9
ATOM      9  N   UNL     1      44.337   4.820  11.549  0.00  0.00    +0.000 N 
ATOM     10  H   UNL     1      43.741   4.550  12.327  0.00  0.00    +0.000 HD
BRANCH   9  11
ATOM     11  C   UNL     1      43.676   4.591  10.270  0.00  0.00    +0.000 C 
BRANCH  11  12
ATOM     12  C   UNL     1      44.625   3.837   9.365  0.00  0.00    +0.000 A 
ATOM     13  C   UNL     1      45.500   4.509   8.501  0.00  0.00    +0.000 A 
ATOM     14  C   UNL     1      46.401   3.791   7.704  0.00  0.00    +0.000 A 
ATOM     15  C   UNL     1      46.425   2.391   7.760  0.00  0.00    +0.000 A 
ATOM     16  C   UNL     1      45.555   1.716   8.623  0.00  0.00    +0.000 A 
ATOM     17  C   UNL     1      44.662   2.435   9.417  0.00  0.00    +0.000 A 
BRANCH  15  18
ATOM     18  C   UNL     1      47.389   1.576   6.977  0.00  0.00    +0.000 C 
ATOM     19  O   UNL     1      47.208   0.396   6.732  0.00  0.00    +0.000 OA
BRANCH  18  20
ATOM     20  O   UNL     1      48.465   2.261   6.537  0.00  0.00    +0.000 OA
ATOM     21  H   UNL     1      49.235   1.714   6.300  0.00  0.00    +0.000 HD
ENDBRANCH  18  20
ENDBRANCH  15  18
ENDBRANCH  11  12
ENDBRANCH   9  11
ENDBRANCH   6   9
BRANCH   8  22
ATOM     22  O   UNL     1      44.923   9.684  11.445  0.00  0.00    +0.000 OA
BRANCH  22  23
ATOM     23  C   UNL     1      43.603   9.843  10.854  0.00  0.00    +0.000 C 
ATOM     24  C   UNL     1      43.516  10.669   9.550  0.00  0.00    +0.000 C 
ATOM     25  N   UNL     1      42.572  11.606  10.180  0.00  0.00    +0.000 NA
ATOM     26  C   UNL     1      41.238  11.459   9.601  0.00  0.00    +0.000 C 
ATOM     27  C   UNL     1      42.673  10.908  11.471  0.00  0.00    +0.000 C 
ENDBRANCH  22  23
ENDBRANCH   8  22
TORSDOF 7
ENDMDL
MODEL 3
REMARK VINA RESULT:    -7.715      2.622      4.432
REMARK INTER + INTRA:         -11.481
REMARK INTER:                 -10.766
REMARK INTRA:                  -0.715
REMARK UNBOUND:                -0.835
REMARK  Name = 
REMARK  9 active torsions:
REMARK  status: ('A' for Active; 'I' for Inactive)
REMARK    1  A    between atoms: C_1  and  C_2
REMARK    2  A    between atoms: C_6  and  N_7
REMARK    3  A    between atoms: N_7  and  C_8
REMARK    4  A    between atoms: C_8  and  C_9
REMARK    5  A    between atoms: C_12  and  C_13
REMARK    6  A    between atoms: C_13  and  O_15
REMARK    7  A    between atoms: C_19  and  O_20
REMARK    8  A    between atoms: O_20  and  C_21
REMARK    9  A    between atoms: N_23  and  C_24
REMARK                            x       y       z     vdW  Elec       q    Type
REMARK                         _______ _______ _______ _____ _____    ______ ____
ROOT
ATOM      1  C   UNL     1      48.574   6.856  14.158  0.00  0.00    +0.000 C 
ATOM      2  C   UNL     1      47.385   6.224  13.484  0.00  0.00    +0.000 A 
ATOM      3  C   UNL     1      46.761   5.074  13.997  0.00  0.00    +0.000 A 
ATOM      4 CL   UNL     1      47.290   4.288  15.448  0.00  0.00    +0.000 Cl
ATOM      5  C   UNL     1      45.664   4.494  13.346  0.00  0.00    +0.000 A 
ATOM      6  C   UNL     1      45.130   5.048  12.183  0.00  0.00    +0.000 A 
ATOM      7  C   UNL     1      45.769   6.176  11.658  0.00  0.00    +0.000 A 
ATOM      8  C   UNL     1      46.873   6.770  12.290  0.00  0.00    +0.000 A 
ENDROOT
BRANCH   6   9
ATOM      9  N   UNL     1      44.091   4.385  11.535  0.00  0.00    +0.000 N 
ATOM     10  H   UNL     1      43.248   4.313  12.098  0.00  0.00    +0.000 HD
BRANCH   9  11
ATOM     11  C   UNL     1      43.773   4.643  10.135  0.00  0.00    +0.000 C 
BRANCH  11  12
ATOM     12  C   UNL     1      44.689   3.807   9.270  0.00  0.00    +0.000 A 
ATOM     13  C   UNL     1      45.540   4.396   8.325  0.00  0.00    +0.000 A 
ATOM     14  C   UNL     1      46.413   3.605   7.567  0.00  0.00    +0.000 A 
ATOM     15  C   UNL     1      46.433   2.214   7.742  0.00  0.00    +0.000 A 
ATOM     16  C   UNL     1      45.586   1.623   8.686  0.00  0.00    +0.000 A 
ATOM     17  C   UNL     1      44.721   2.414   9.441  0.00  0.00    +0.000 A 
BRANCH  15  18
ATOM     18  C   UNL     1      47.368   1.329   7.003  0.00  0.00    +0.000 C 
ATOM     19  O   UNL     1      48.451   1.710   6.594  0.00  0.00    +0.000 OA
BRANCH  18  20
ATOM     20  O   UNL     1      46.929   0.062   6.849  0.00  0.00    +0.000 OA
ATOM     21  H   UNL     1      47.578  -0.558   6.471  0.00  0.00    +0.000 HD
ENDBRANCH  18  20
ENDBRANCH  15  18
ENDBRANCH  11  12
ENDBRANCH   9  11
ENDBRANCH   6   9
BRANCH   8  22
ATOM     22  O   UNL     1      47.483   7.912  11.794  0.00  0.00    +0.000 OA
BRANCH  22  23
ATOM     23  C   UNL     1      47.071   9.209  12.309  0.00  0.00    +0.000 C 
ATOM     24  C   UNL     1      45.786   9.823  11.708  0.00  0.00    +0.000 C 
ATOM     25  N   UNL     1      46.530  11.018  11.279  0.00  0.00    +0.000 NA
ATOM     26  C   UNL     1      46.135  12.182  12.068  0.00  0.00    +0.000 C 
ATOM     27  C   UNL     1      47.800  10.453  11.760  0.00  0.00    +0.000 C 
ENDBRANCH  22  23
ENDBRANCH   8  22
TORSDOF 7
ENDMDL
MODEL 4
REMARK VINA RESULT:    -7.516      1.101      1.578
REMARK INTER + INTRA:         -11.207
REMARK INTER:                 -10.609
REMARK INTRA:                  -0.598
REMARK UNBOUND:                -0.835
REMARK  Name = 
REMARK  9 active torsions:
REMARK  status: ('A' for Active; 'I' for Inactive)
REMARK    1  A    between atoms: C_1  and  C_2
REMARK    2  A    between atoms: C_6  and  N_7
REMARK    3  A    between atoms: N_7  and  C_8
REMARK    4  A    between atoms: C_8  and  C_9
REMARK    5  A    between atoms: C_12  and  C_13
REMARK    6  A    between atoms: C_13  and  O_15
REMARK    7  A    between atoms: C_19  and  O_20
REMARK    8  A    between atoms: O_20  and  C_21
REMARK    9  A    between atoms: N_23  and  C_24
REMARK                            x       y       z     vdW  Elec       q    Type
REMARK                         _______ _______ _______ _____ _____    ______ ____
ROOT
ATOM      1  C   UNL     1      47.614   8.996  12.956  0.00  0.00    +0.000 C 
ATOM      2  C   UNL     1      46.824   7.751  12.651  0.00  0.00    +0.000 A 
ATOM      3  C   UNL     1      45.579   7.798  11.998  0.00  0.00    +0.000 A 
ATOM      4 CL   UNL     1      44.850   9.281  11.477  0.00  0.00    +0.000 Cl
ATOM      5  C   UNL     1      44.854   6.629  11.737  0.00  0.00    +0.000 A 
ATOM      6  C   UNL     1      45.347   5.372  12.085  0.00  0.00    +0.000 A 
ATOM      7  C   UNL     1      46.571   5.327  12.760  0.00  0.00    +0.000 A 
ATOM      8  C   UNL     1      47.313   6.487  13.038  0.00  0.00    +0.000 A 
ENDROOT
BRANCH   6   9
ATOM      9  N   UNL     1      44.548   4.250  11.874  0.00  0.00    +0.000 N 
ATOM     10  H   UNL     1      44.004   3.986  12.691  0.00  0.00    +0.000 HD
BRANCH   9  11
ATOM     11  C   UNL     1      43.781   4.076  10.647  0.00  0.00    +0.000 C 
BRANCH  11  12
ATOM     12  C   UNL     1      44.721   3.631   9.549  0.00  0.00    +0.000 A 
ATOM     13  C   UNL     1      45.368   4.559   8.720  0.00  0.00    +0.000 A 
ATOM     14  C   UNL     1      46.269   4.126   7.739  0.00  0.00    +0.000 A 
ATOM     15  C   UNL     1      46.522   2.757   7.573  0.00  0.00    +0.000 A 
ATOM     16  C   UNL     1      45.881   1.829   8.400  0.00  0.00    +0.000 A 
ATOM     17  C   UNL     1      44.986   2.264   9.378  0.00  0.00    +0.000 A 
BRANCH  15  18
ATOM     18  C   UNL     1      47.502   2.240   6.585  0.00  0.00    +0.000 C 
ATOM     19  O   UNL     1      48.148   1.223   6.768  0.00  0.00    +0.000 OA
BRANCH  18  20
ATOM     20  O   UNL     1      47.594   2.976   5.458  0.00  0.00    +0.000 OA
ATOM     21  H   UNL     1      47.689   2.463   4.635  0.00  0.00    +0.000 HD
ENDBRANCH  18  20
ENDBRANCH  15  18
ENDBRANCH  11  12
ENDBRANCH   9  11
ENDBRANCH   6   9
BRANCH   8  22
ATOM     22  O   UNL     1      48.546   6.442  13.669  0.00  0.00    +0.000 OA
BRANCH  22  23
ATOM     23  C   UNL     1      48.611   6.679  15.103  0.00  0.00    +0.000 C 
ATOM     24  C   UNL     1      50.016   6.873  15.716  0.00  0.00    +0.000 C 
ATOM     25  N   UNL     1      49.803   5.736  16.626  0.00  0.00    +0.000 NA
ATOM     26  C   UNL     1      49.670   6.199  18.005  0.00  0.00    +0.000 C 
ATOM     27  C   UNL     1      48.488   5.451  16.030  0.00  0.00    +0.000 C 
ENDBRANCH  22  23
ENDBRANCH   8  22
TORSDOF 7
ENDMDL
MODEL 5
REMARK VINA RESULT:    -7.101      2.913      3.573
REMARK INTER + INTRA:         -10.635
REMARK INTER:                  -9.850
REMARK INTRA:                  -0.785
REMARK UNBOUND:                -0.835
REMARK  Name = 
REMARK  9 active torsions:
REMARK  status: ('A' for Active; 'I' for Inactive)
REMARK    1  A    between atoms: C_1  and  C_2
REMARK    2  A    between atoms: C_6  and  N_7
REMARK    3  A    between atoms: N_7  and  C_8
REMARK    4  A    between atoms: C_8  and  C_9
REMARK    5  A    between atoms: C_12  and  C_13
REMARK    6  A    between atoms: C_13  and  O_15
REMARK    7  A    between atoms: C_19  and  O_20
REMARK    8  A    between atoms: O_20  and  C_21
REMARK    9  A    between atoms: N_23  and  C_24
REMARK                            x       y       z     vdW  Elec       q    Type
REMARK                         _______ _______ _______ _____ _____    ______ ____
ROOT
ATOM      1  C   UNL     1      45.757  10.266  11.920  0.00  0.00    +0.000 C 
ATOM      2  C   UNL     1      45.456   8.794  11.823  0.00  0.00    +0.000 A 
ATOM      3  C   UNL     1      44.233   8.314  11.322  0.00  0.00    +0.000 A 
ATOM      4 CL   UNL     1      42.972   9.363  10.765  0.00  0.00    +0.000 Cl
ATOM      5  C   UNL     1      43.968   6.940  11.254  0.00  0.00    +0.000 A 
ATOM      6  C   UNL     1      44.914   5.995  11.649  0.00  0.00    +0.000 A 
ATOM      7  C   UNL     1      46.119   6.473  12.172  0.00  0.00    +0.000 A 
ATOM      8  C   UNL     1      46.404   7.845  12.257  0.00  0.00    +0.000 A 
ENDROOT
BRANCH   6   9
ATOM      9  N   UNL     1      44.568   4.645  11.634  0.00  0.00    +0.000 N 
ATOM     10  H   UNL     1      44.226   4.309  12.530  0.00  0.00    +0.000 HD
BRANCH   9  11
ATOM     11  C   UNL     1      43.822   4.058  10.528  0.00  0.00    +0.000 C 
BRANCH  11  12
ATOM     12  C   UNL     1      44.806   3.570   9.488  0.00  0.00    +0.000 A 
ATOM     13  C   UNL     1      45.076   2.205   9.321  0.00  0.00    +0.000 A 
ATOM     14  C   UNL     1      45.957   1.772   8.322  0.00  0.00    +0.000 A 
ATOM     15  C   UNL     1      46.584   2.707   7.487  0.00  0.00    +0.000 A 
ATOM     16  C   UNL     1      46.316   4.070   7.648  0.00  0.00    +0.000 A 
ATOM     17  C   UNL     1      45.435   4.496   8.642  0.00  0.00    +0.000 A 
BRANCH  15  18
ATOM     18  C   UNL     1      47.490   2.309   6.379  0.00  0.00    +0.000 C 
ATOM     19  O   UNL     1      48.240   1.351   6.454  0.00  0.00    +0.000 OA
BRANCH  18  20
ATOM     20  O   UNL     1      47.389   3.079   5.276  0.00  0.00    +0.000 OA
ATOM     21  H   UNL     1      47.078   3.989   5.434  0.00  0.00    +0.000 HD
ENDBRANCH  18  20
ENDBRANCH  15  18
ENDBRANCH  11  12
ENDBRANCH   9  11
ENDBRANCH   6   9
BRANCH   8  22
ATOM     22  O   UNL     1      47.614   8.322  12.737  0.00  0.00    +0.000 OA
BRANCH  22  23
ATOM     23  C   UNL     1      48.809   8.148  11.927  0.00  0.00    +0.000 C 
ATOM     24  C   UNL     1      50.115   7.794  12.674  0.00  0.00    +0.000 C 
ATOM     25  N   UNL     1      50.777   8.992  12.134  0.00  0.00    +0.000 NA
ATOM     26  C   UNL     1      51.805   8.619  11.164  0.00  0.00    +0.000 C 
ATOM     27  C   UNL     1      49.542   9.425  11.462  0.00  0.00    +0.000 C 
ENDBRANCH  22  23
ENDBRANCH   8  22
TORSDOF 7
ENDMDL
MODEL 6
REMARK VINA RESULT:    -6.491      2.973      7.985
REMARK INTER + INTRA:          -9.792
REMARK INTER:                  -9.330
REMARK INTRA:                  -0.462
REMARK UNBOUND:                -0.835
REMARK  Name = 
REMARK  9 active torsions:
REMARK  status: ('A' for Active; 'I' for Inactive)
REMARK    1  A    between atoms: C_1  and  C_2
REMARK    2  A    between atoms: C_6  and  N_7
REMARK    3  A    between atoms: N_7  and  C_8
REMARK    4  A    between atoms: C_8  and  C_9
REMARK    5  A    between atoms: C_12  and  C_13
REMARK    6  A    between atoms: C_13  and  O_15
REMARK    7  A    between atoms: C_19  and  O_20
REMARK    8  A    between atoms: O_20  and  C_21
REMARK    9  A    between atoms: N_23  and  C_24
REMARK                            x       y       z     vdW  Elec       q    Type
REMARK                         _______ _______ _______ _____ _____    ______ ____
ROOT
ATOM      1  C   UNL     1      45.389   7.731  11.286  0.00  0.00    +0.000 C 
ATOM      2  C   UNL     1      45.821   6.683  12.276  0.00  0.00    +0.000 A 
ATOM      3  C   UNL     1      47.029   6.782  12.989  0.00  0.00    +0.000 A 
ATOM      4 CL   UNL     1      48.120   8.115  12.803  0.00  0.00    +0.000 Cl
ATOM      5  C   UNL     1      47.419   5.788  13.895  0.00  0.00    +0.000 A 
ATOM      6  C   UNL     1      46.614   4.678  14.151  0.00  0.00    +0.000 A 
ATOM      7  C   UNL     1      45.426   4.566  13.422  0.00  0.00    +0.000 A 
ATOM      8  C   UNL     1      45.018   5.547  12.503  0.00  0.00    +0.000 A 
ENDROOT
BRANCH   6   9
ATOM      9  N   UNL     1      47.087   3.682  15.001  0.00  0.00    +0.000 N 
ATOM     10  H   UNL     1      47.909   3.204  14.641  0.00  0.00    +0.000 HD
BRANCH   9  11
ATOM     11  C   UNL     1      47.181   3.884  16.442  0.00  0.00    +0.000 C 
BRANCH  11  12
ATOM     12  C   UNL     1      48.568   3.489  16.896  0.00  0.00    +0.000 A 
ATOM     13  C   UNL     1      49.064   2.195  16.689  0.00  0.00    +0.000 A 
ATOM     14  C   UNL     1      50.369   1.864  17.077  0.00  0.00    +0.000 A 
ATOM     15  C   UNL     1      51.185   2.827  17.687  0.00  0.00    +0.000 A 
ATOM     16  C   UNL     1      50.695   4.121  17.893  0.00  0.00    +0.000 A 
ATOM     17  C   UNL     1      49.396   4.447  17.502  0.00  0.00    +0.000 A 
BRANCH  15  18
ATOM     18  C   UNL     1      52.591   2.552  18.076  0.00  0.00    +0.000 C 
ATOM     19  O   UNL     1      53.384   1.997  17.334  0.00  0.00    +0.000 OA
BRANCH  18  20
ATOM     20  O   UNL     1      52.922   2.992  19.308  0.00  0.00    +0.000 OA
ATOM     21  H   UNL     1      52.807   2.342  20.024  0.00  0.00    +0.000 HD
ENDBRANCH  18  20
ENDBRANCH  15  18
ENDBRANCH  11  12
ENDBRANCH   9  11
ENDBRANCH   6   9
BRANCH   8  22
ATOM     22  O   UNL     1      43.821   5.459  11.810  0.00  0.00    +0.000 OA
BRANCH  22  23
ATOM     23  C   UNL     1      43.723   4.536  10.690  0.00  0.00    +0.000 C 
ATOM     24  C   UNL     1      43.798   3.028  11.019  0.00  0.00    +0.000 C 
ATOM     25  N   UNL     1      44.964   2.869  10.135  0.00  0.00    +0.000 NA
ATOM     26  C   UNL     1      44.608   2.095   8.947  0.00  0.00    +0.000 C 
ATOM     27  C   UNL     1      44.994   4.310   9.844  0.00  0.00    +0.000 C 
ENDBRANCH  22  23
ENDBRANCH   8  22
TORSDOF 7
ENDMDL
MODEL 7
REMARK VINA RESULT:    -6.188      3.735      7.395
REMARK INTER + INTRA:          -9.374
REMARK INTER:                  -8.552
REMARK INTRA:                  -0.822
REMARK UNBOUND:                -0.835
REMARK  Name = 
REMARK  9 active torsions:
REMARK  status: ('A' for Active; 'I' for Inactive)
REMARK    1  A    between atoms: C_1  and  C_2
REMARK    2  A    between atoms: C_6  and  N_7
REMARK    3  A    between atoms: N_7  and  C_8
REMARK    4  A    between atoms: C_8  and  C_9
REMARK    5  A    between atoms: C_12  and  C_13
REMARK    6  A    between atoms: C_13  and  O_15
REMARK    7  A    between atoms: C_19  and  O_20
REMARK    8  A    between atoms: O_20  and  C_21
REMARK    9  A    between atoms: N_23  and  C_24
REMARK                            x       y       z     vdW  Elec       q    Type
REMARK                         _______ _______ _______ _____ _____    ______ ____
ROOT
ATOM      1  C   UNL     1      43.169   9.985  10.327  0.00  0.00    +0.000 C 
ATOM      2  C   UNL     1      44.421   9.638  11.088  0.00  0.00    +0.000 A 
ATOM      3  C   UNL     1      45.375  10.610  11.439  0.00  0.00    +0.000 A 
ATOM      4 CL   UNL     1      45.194  12.287  11.040  0.00  0.00    +0.000 Cl
ATOM      5  C   UNL     1      46.540  10.264  12.135  0.00  0.00    +0.000 A 
ATOM      6  C   UNL     1      46.787   8.951  12.534  0.00  0.00    +0.000 A 
ATOM      7  C   UNL     1      45.853   7.980  12.161  0.00  0.00    +0.000 A 
ATOM      8  C   UNL     1      44.681   8.303  11.457  0.00  0.00    +0.000 A 
ENDROOT
BRANCH   6   9
ATOM      9  N   UNL     1      47.999   8.650  13.152  0.00  0.00    +0.000 N 
ATOM     10  H   UNL     1      48.040   8.953  14.122  0.00  0.00    +0.000 HD
BRANCH   9  11
ATOM     11  C   UNL     1      48.651   7.359  12.972  0.00  0.00    +0.000 C 
BRANCH  11  12
ATOM     12  C   UNL     1      48.288   6.468  14.139  0.00  0.00    +0.000 A 
ATOM     13  C   UNL     1      48.799   6.699  15.423  0.00  0.00    +0.000 A 
ATOM     14  C   UNL     1      48.413   5.888  16.498  0.00  0.00    +0.000 A 
ATOM     15  C   UNL     1      47.518   4.829  16.291  0.00  0.00    +0.000 A 
ATOM     16  C   UNL     1      47.004   4.596  15.012  0.00  0.00    +0.000 A 
ATOM     17  C   UNL     1      47.388   5.408  13.945  0.00  0.00    +0.000 A 
BRANCH  15  18
ATOM     18  C   UNL     1      47.034   3.965  17.398  0.00  0.00    +0.000 C 
ATOM     19  O   UNL     1      46.845   2.768  17.264  0.00  0.00    +0.000 OA
BRANCH  18  20
ATOM     20  O   UNL     1      46.850   4.612  18.567  0.00  0.00    +0.000 OA
ATOM     21  H   UNL     1      47.397   5.408  18.690  0.00  0.00    +0.000 HD
ENDBRANCH  18  20
ENDBRANCH  15  18
ENDBRANCH  11  12
ENDBRANCH   9  11
ENDBRANCH   6   9
BRANCH   8  22
ATOM     22  O   UNL     1      43.733   7.349  11.123  0.00  0.00    +0.000 OA
BRANCH  22  23
ATOM     23  C   UNL     1      43.877   6.000  11.647  0.00  0.00    +0.000 C 
ATOM     24  C   UNL     1      44.262   4.895  10.638  0.00  0.00    +0.000 C 
ATOM     25  N   UNL     1      43.046   4.136  10.968  0.00  0.00    +0.000 NA
ATOM     26  C   UNL     1      43.382   2.913  11.693  0.00  0.00    +0.000 C 
ATOM     27  C   UNL     1      42.585   5.190  11.885  0.00  0.00    +0.000 C 
ENDBRANCH  22  23
ENDBRANCH   8  22
TORSDOF 7
ENDMDL
MODEL 8
REMARK VINA RESULT:    -6.036      3.493      8.272
REMARK INTER + INTRA:          -9.164
REMARK INTER:                  -8.366
REMARK INTRA:                  -0.797
REMARK UNBOUND:                -0.835
REMARK  Name = 
REMARK  9 active torsions:
REMARK  status: ('A' for Active; 'I' for Inactive)
REMARK    1  A    between atoms: C_1  and  C_2
REMARK    2  A    between atoms: C_6  and  N_7
REMARK    3  A    between atoms: N_7  and  C_8
REMARK    4  A    between atoms: C_8  and  C_9
REMARK    5  A    between atoms: C_12  and  C_13
REMARK    6  A    between atoms: C_13  and  O_15
REMARK    7  A    between atoms: C_19  and  O_20
REMARK    8  A    between atoms: O_20  and  C_21
REMARK    9  A    between atoms: N_23  and  C_24
REMARK                            x       y       z     vdW  Elec       q    Type
REMARK                         _______ _______ _______ _____ _____    ______ ____
ROOT
ATOM      1  C   UNL     1      48.922   7.875  11.430  0.00  0.00    +0.000 C 
ATOM      2  C   UNL     1      48.729   7.272  12.796  0.00  0.00    +0.000 A 
ATOM      3  C   UNL     1      49.539   7.626  13.889  0.00  0.00    +0.000 A 
ATOM      4 CL   UNL     1      50.819   8.789  13.770  0.00  0.00    +0.000 Cl
ATOM      5  C   UNL     1      49.351   7.042  15.148  0.00  0.00    +0.000 A 
ATOM      6  C   UNL     1      48.338   6.112  15.377  0.00  0.00    +0.000 A 
ATOM      7  C   UNL     1      47.551   5.739  14.283  0.00  0.00    +0.000 A 
ATOM      8  C   UNL     1      47.725   6.306  13.010  0.00  0.00    +0.000 A 
ENDROOT
BRANCH   6   9
ATOM      9  N   UNL     1      48.248   5.504  16.627  0.00  0.00    +0.000 N 
ATOM     10  H   UNL     1      47.901   4.550  16.585  0.00  0.00    +0.000 HD
BRANCH   9  11
ATOM     11  C   UNL     1      49.303   5.641  17.624  0.00  0.00    +0.000 C 
BRANCH  11  12
ATOM     12  C   UNL     1      50.108   4.361  17.653  0.00  0.00    +0.000 A 
ATOM     13  C   UNL     1      49.566   3.146  17.212  0.00  0.00    +0.000 A 
ATOM     14  C   UNL     1      50.345   1.982  17.206  0.00  0.00    +0.000 A 
ATOM     15  C   UNL     1      51.672   2.023  17.654  0.00  0.00    +0.000 A 
ATOM     16  C   UNL     1      52.218   3.234  18.094  0.00  0.00    +0.000 A 
ATOM     17  C   UNL     1      51.440   4.392  18.095  0.00  0.00    +0.000 A 
BRANCH  15  18
ATOM     18  C   UNL     1      52.562   0.834  17.627  0.00  0.00    +0.000 C 
ATOM     19  O   UNL     1      53.608   0.809  17.003  0.00  0.00    +0.000 OA
BRANCH  18  20
ATOM     20  O   UNL     1      52.127  -0.201  18.375  0.00  0.00    +0.000 OA
ATOM     21  H   UNL     1      51.201  -0.463  18.220  0.00  0.00    +0.000 HD
ENDBRANCH  18  20
ENDBRANCH  15  18
ENDBRANCH  11  12
ENDBRANCH   9  11
ENDBRANCH   6   9
BRANCH   8  22
ATOM     22  O   UNL     1      46.919   5.970  11.934  0.00  0.00    +0.000 OA
BRANCH  22  23
ATOM     23  C   UNL     1      45.568   5.495  12.189  0.00  0.00    +0.000 C 
ATOM     24  C   UNL     1      44.709   5.138  10.955  0.00  0.00    +0.000 C 
ATOM     25  N   UNL     1      43.684   6.115  11.356  0.00  0.00    +0.000 NA
ATOM     26  C   UNL     1      42.467   5.435  11.793  0.00  0.00    +0.000 C 
ATOM     27  C   UNL     1      44.491   6.555  12.504  0.00  0.00    +0.000 C 
ENDBRANCH  22  23
ENDBRANCH   8  22
TORSDOF 7
ENDMDL
MODEL 9
REMARK VINA RESULT:    -5.917      4.221      7.662
REMARK INTER + INTRA:          -9.000
REMARK INTER:                  -8.250
REMARK INTRA:                  -0.750
REMARK UNBOUND:                -0.835
REMARK  Name = 
REMARK  9 active torsions:
REMARK  status: ('A' for Active; 'I' for Inactive)
REMARK    1  A    between atoms: C_1  and  C_2
REMARK    2  A    between atoms: C_6  and  N_7
REMARK    3  A    between atoms: N_7  and  C_8
REMARK    4  A    between atoms: C_8  and  C_9
REMARK    5  A    between atoms: C_12  and  C_13
REMARK    6  A    between atoms: C_13  and  O_15
REMARK    7  A    between atoms: C_19  and  O_20
REMARK    8  A    between atoms: O_20  and  C_21
REMARK    9  A    between atoms: N_23  and  C_24
REMARK                            x       y       z     vdW  Elec       q    Type
REMARK                         _______ _______ _______ _____ _____    ______ ____
ROOT
ATOM      1  C   UNL     1      44.676   7.686  11.434  0.00  0.00    +0.000 C 
ATOM      2  C   UNL     1      45.297   6.617  12.294  0.00  0.00    +0.000 A 
ATOM      3  C   UNL     1      44.542   5.558  12.830  0.00  0.00    +0.000 A 
ATOM      4 CL   UNL     1      42.842   5.381  12.544  0.00  0.00    +0.000 Cl
ATOM      5  C   UNL     1      45.137   4.582  13.639  0.00  0.00    +0.000 A 
ATOM      6  C   UNL     1      46.502   4.602  13.921  0.00  0.00    +0.000 A 
ATOM      7  C   UNL     1      47.247   5.670  13.411  0.00  0.00    +0.000 A 
ATOM      8  C   UNL     1      46.671   6.663  12.603  0.00  0.00    +0.000 A 
ENDROOT
BRANCH   6   9
ATOM      9  N   UNL     1      47.025   3.652  14.796  0.00  0.00    +0.000 N 
ATOM     10  H   UNL     1      47.888   3.231  14.461  0.00  0.00    +0.000 HD
BRANCH   9  11
ATOM     11  C   UNL     1      47.070   3.879  16.235  0.00  0.00    +0.000 C 
BRANCH  11  12
ATOM     12  C   UNL     1      48.467   3.575  16.729  0.00  0.00    +0.000 A 
ATOM     13  C   UNL     1      49.017   2.291  16.620  0.00  0.00    +0.000 A 
ATOM     14  C   UNL     1      50.330   2.044  17.043  0.00  0.00    +0.000 A 
ATOM     15  C   UNL     1      51.099   3.081  17.589  0.00  0.00    +0.000 A 
ATOM     16  C   UNL     1      50.554   4.364  17.696  0.00  0.00    +0.000 A 
ATOM     17  C   UNL     1      49.248   4.607  17.271  0.00  0.00    +0.000 A 
BRANCH  15  18
ATOM     18  C   UNL     1      52.510   2.893  18.010  0.00  0.00    +0.000 C 
ATOM     19  O   UNL     1      53.387   3.700  17.754  0.00  0.00    +0.000 OA
BRANCH  18  20
ATOM     20  O   UNL     1      52.732   1.768  18.721  0.00  0.00    +0.000 OA
ATOM     21  H   UNL     1      53.670   1.546  18.861  0.00  0.00    +0.000 HD
ENDBRANCH  18  20
ENDBRANCH  15  18
ENDBRANCH  11  12
ENDBRANCH   9  11
ENDBRANCH   6   9
BRANCH   8  22
ATOM     22  O   UNL     1      47.415   7.700  12.062  0.00  0.00    +0.000 OA
BRANCH  22  23
ATOM     23  C   UNL     1      48.734   7.980  12.609  0.00  0.00    +0.000 C 
ATOM     24  C   UNL     1      49.198   9.454  12.593  0.00  0.00    +0.000 C 
ATOM     25  N   UNL     1      50.381   9.097  11.794  0.00  0.00    +0.000 NA
ATOM     26  C   UNL     1      51.599   9.230  12.589  0.00  0.00    +0.000 C 
ATOM     27  C   UNL     1      49.951   7.693  11.706  0.00  0.00    +0.000 C 
ENDBRANCH  22  23
ENDBRANCH   8  22
TORSDOF 7
ENDMDL
