MODEL 1
REMARK VINA RESULT:    -7.620      0.000      0.000
REMARK INTER + INTRA:         -11.791
REMARK INTER:                 -10.738
REMARK INTRA:                  -1.053
REMARK UNBOUND:                -1.053
REMARK  Name = 
REMARK  8 active torsions:
REMARK  status: ('A' for Active; 'I' for Inactive)
REMARK    1  A    between atoms: C_1  and  O_2
REMARK    2  A    between atoms: O_2  and  C_3
REMARK    3  A    between atoms: C_7  and  C_8
REMARK    4  A    between atoms: N_10  and  C_11
REMARK    5  A    between atoms: C_11  and  C_12
REMARK    6  A    between atoms: C_15  and  C_16
REMARK    7  A    between atoms: C_16  and  N_17
REMARK    8  A    between atoms: C_18  and  C_20
REMARK                            x       y       z     vdW  Elec       q    Type
REMARK                         _______ _______ _______ _____ _____    ______ ____
ROOT
ATOM      1  C   UNL     1      47.609   7.812  13.881  0.00  0.00    +0.000 A 
ATOM      2  C   UNL     1      47.624   6.489  13.418  0.00  0.00    +0.000 A 
ATOM      3  C   UNL     1      46.739   6.070  12.416  0.00  0.00    +0.000 A 
ATOM      4  C   UNL     1      45.828   6.969  11.845  0.00  0.00    +0.000 A 
ATOM      5  C   UNL     1      45.776   8.277  12.347  0.00  0.00    +0.000 A 
ATOM      6  C   UNL     1      46.664   8.697  13.344  0.00  0.00    +0.000 A 
ENDROOT
BRANCH   1   7
ATOM      7  C   UNL     1      48.630   8.296  14.882  0.00  0.00    +0.000 C 
BRANCH   7  10
ATOM      8  C   UNL     1      49.256   6.671  16.629  0.00  0.00    +0.000 C 
ATOM      9  O   UNL     1      50.189   6.228  15.964  0.00  0.00    +0.000 OA
ATOM     10  N   UNL     1      48.424   7.672  16.172  0.00  0.00    +0.000 N 
ATOM     11  H   UNL     1      47.558   7.869  16.655  0.00  0.00    +0.000 HD
BRANCH   8  16
ATOM     12  C   UNL     1      48.153   6.512  20.257  0.00  0.00    +0.000 A 
ATOM     13  C   UNL     1      48.307   5.152  20.534  0.00  0.00    +0.000 A 
ATOM     14  C   UNL     1      48.792   4.285  19.553  0.00  0.00    +0.000 A 
ATOM     15  C   UNL     1      49.124   4.768  18.286  0.00  0.00    +0.000 A 
ATOM     16  C   UNL     1      48.978   6.129  17.993  0.00  0.00    +0.000 A 
ATOM     17  C   UNL     1      48.493   6.995  18.985  0.00  0.00    +0.000 A 
BRANCH  12  19
ATOM     18  C   UNL     1      47.426   8.749  20.606  0.00  0.00    +0.000 C 
ATOM     19  O   UNL     1      47.680   7.452  21.132  0.00  0.00    +0.000 OA
ENDBRANCH  12  19
ENDBRANCH   8  16
ENDBRANCH   7  10
ENDBRANCH   1   7
BRANCH   4  20
ATOM     20  C   UNL     1      44.914   6.546  10.721  0.00  0.00    +0.000 C 
BRANCH  20  21
ATOM     21  N   UNL     1      45.341   5.311  10.125  0.00  0.00    +0.000 N 
ATOM     22  C   UNL     1      44.447   4.318   9.806  0.00  0.00    +0.000 C 
ATOM     23  O   UNL     1      43.239   4.432   9.987  0.00  0.00    +0.000 OA
ATOM     24  H   UNL     1      46.337   5.106  10.139  0.00  0.00    +0.000 HD
BRANCH  22  25
ATOM     25  C   UNL     1      45.021   3.133   9.191  0.00  0.00    +0.000 A 
ATOM     26  C   UNL     1      44.613   1.843   9.482  0.00  0.00    +0.000 A 
ATOM     27  O   UNL     1      45.280   0.930   8.729  0.00  0.00    +0.000 OA
ATOM     28  C   UNL     1      46.162   1.615   7.950  0.00  0.00    +0.000 A 
ATOM     29  N   UNL     1      47.009   1.026   7.072  0.00  0.00    +0.000 NA
ATOM     30  C   UNL     1      47.789   1.862   6.469  0.00  0.00    +0.000 A 
ATOM     31  N   UNL     1      47.791   3.226   6.664  0.00  0.00    +0.000 N 
ATOM     32  C   UNL     1      46.917   3.862   7.517  0.00  0.00    +0.000 A 
ATOM     33  O   UNL     1      46.887   5.081   7.644  0.00  0.00    +0.000 OA
ATOM     34  C   UNL     1      46.043   2.964   8.218  0.00  0.00    +0.000 A 
ATOM     35  H   UNL     1      48.427   3.820   6.153  0.00  0.00    +0.000 HD
ENDBRANCH  22  25
ENDBRANCH  20  21
ENDBRANCH   4  20
TORSDOF 7
ENDMDL
MODEL 2
REMARK VINA RESULT:    -7.596      1.937     10.742
REMARK INTER + INTRA:         -11.757
REMARK INTER:                 -10.852
REMARK INTRA:                  -0.905
REMARK UNBOUND:                -1.053
REMARK  Name = 
REMARK  8 active torsions:
REMARK  status: ('A' for Active; 'I' for Inactive)
REMARK    1  A    between atoms: C_1  and  O_2
REMARK    2  A    between atoms: O_2  and  C_3
REMARK    3  A    between atoms: C_7  and  C_8
REMARK    4  A    between atoms: N_10  and  C_11
REMARK    5  A    between atoms: C_11  and  C_12
REMARK    6  A    between atoms: C_15  and  C_16
REMARK    7  A    between atoms: C_16  and  N_17
REMARK    8  A    between atoms: C_18  and  C_20
REMARK                            x       y       z     vdW  Elec       q    Type
REMARK                         _______ _______ _______ _____ _____    ______ ____
ROOT
ATOM      1  C   UNL     1      44.947   5.183  11.804  0.00  0.00    +0.000 A 
ATOM      2  C   UNL     1      45.182   6.562  11.895  0.00  0.00    +0.000 A 
ATOM      3  C   UNL     1      46.183   7.064  12.737  0.00  0.00    +0.000 A 
ATOM      4  C   UNL     1      46.982   6.197  13.495  0.00  0.00    +0.000 A 
ATOM      5  C   UNL     1      46.710   4.823  13.445  0.00  0.00    +0.000 A 
ATOM      6  C   UNL     1      45.713   4.321  12.601  0.00  0.00    +0.000 A 
ENDROOT
BRANCH   1   7
ATOM      7  C   UNL     1      43.944   4.629  10.822  0.00  0.00    +0.000 C 
BRANCH   7  10
ATOM      8  C   UNL     1      45.424   4.270   8.881  0.00  0.00    +0.000 C 
ATOM      9  O   UNL     1      45.639   5.472   8.750  0.00  0.00    +0.000 OA
ATOM     10  N   UNL     1      44.590   3.764   9.857  0.00  0.00    +0.000 N 
ATOM     11  H   UNL     1      44.282   2.802   9.809  0.00  0.00    +0.000 HD
BRANCH   8  16
ATOM     12  C   UNL     1      46.740   0.978   7.526  0.00  0.00    +0.000 A 
ATOM     13  C   UNL     1      47.156   1.351   6.247  0.00  0.00    +0.000 A 
ATOM     14  C   UNL     1      47.034   2.677   5.827  0.00  0.00    +0.000 A 
ATOM     15  C   UNL     1      46.492   3.640   6.679  0.00  0.00    +0.000 A 
ATOM     16  C   UNL     1      46.073   3.283   7.966  0.00  0.00    +0.000 A 
ATOM     17  C   UNL     1      46.202   1.949   8.383  0.00  0.00    +0.000 A 
BRANCH  12  19
ATOM     18  C   UNL     1      46.495  -1.359   7.160  0.00  0.00    +0.000 C 
ATOM     19  O   UNL     1      46.802  -0.287   8.044  0.00  0.00    +0.000 OA
ENDBRANCH  12  19
ENDBRANCH   8  16
ENDBRANCH   7  10
ENDBRANCH   1   7
BRANCH   4  20
ATOM     20  C   UNL     1      48.105   6.722  14.355  0.00  0.00    +0.000 C 
BRANCH  20  21
ATOM     21  N   UNL     1      47.959   6.317  15.726  0.00  0.00    +0.000 N 
ATOM     22  C   UNL     1      49.041   5.949  16.487  0.00  0.00    +0.000 C 
ATOM     23  O   UNL     1      50.190   5.966  16.056  0.00  0.00    +0.000 OA
ATOM     24  H   UNL     1      47.018   6.109  16.053  0.00  0.00    +0.000 HD
BRANCH  22  25
ATOM     25  C   UNL     1      48.744   5.583  17.862  0.00  0.00    +0.000 A 
ATOM     26  C   UNL     1      48.921   4.309  18.372  0.00  0.00    +0.000 A 
ATOM     27  O   UNL     1      48.614   4.256  19.694  0.00  0.00    +0.000 OA
ATOM     28  C   UNL     1      48.199   5.500  20.062  0.00  0.00    +0.000 A 
ATOM     29  N   UNL     1      47.800   5.821  21.316  0.00  0.00    +0.000 NA
ATOM     30  C   UNL     1      47.405   7.047  21.432  0.00  0.00    +0.000 A 
ATOM     31  N   UNL     1      47.380   7.972  20.411  0.00  0.00    +0.000 N 
ATOM     32  C   UNL     1      47.816   7.691  19.135  0.00  0.00    +0.000 A 
ATOM     33  O   UNL     1      47.843   8.534  18.246  0.00  0.00    +0.000 OA
ATOM     34  C   UNL     1      48.249   6.332  18.962  0.00  0.00    +0.000 A 
ATOM     35  H   UNL     1      47.062   8.915  20.576  0.00  0.00    +0.000 HD
ENDBRANCH  22  25
ENDBRANCH  20  21
ENDBRANCH   4  20
TORSDOF 7
ENDMDL
MODEL 3
REMARK VINA RESULT:    -7.578      3.814      5.634
REMARK INTER + INTRA:         -11.732
REMARK INTER:                 -10.835
REMARK INTRA:                  -0.897
REMARK UNBOUND:                -1.053
REMARK  Name = 
REMARK  8 active torsions:
REMARK  status: ('A' for Active; 'I' for Inactive)
REMARK    1  A    between atoms: C_1  and  O_2
REMARK    2  A    between atoms: O_2  and  C_3
REMARK    3  A    between atoms: C_7  and  C_8
REMARK    4  A    between atoms: N_10  and  C_11
REMARK    5  A    between atoms: C_11  and  C_12
REMARK    6  A    between atoms: C_15  and  C_16
REMARK    7  A    between atoms: C_16  and  N_17
REMARK    8  A    between atoms: C_18  and  C_20
REMARK                            x       y       z     vdW  Elec       q    Type
REMARK                         _______ _______ _______ _____ _____    ______ ____
ROOT
ATOM      1  C   UNL     1      48.172   4.238  17.005  0.00  0.00    +0.000 A 
ATOM      2  C   UNL     1      47.346   3.911  15.920  0.00  0.00    +0.000 A 
ATOM      3  C   UNL     1      47.196   4.793  14.842  0.00  0.00    +0.000 A 
ATOM      4  C   UNL     1      47.882   6.015  14.818  0.00  0.00    +0.000 A 
ATOM      5  C   UNL     1      48.665   6.364  15.926  0.00  0.00    +0.000 A 
ATOM      6  C   UNL     1      48.818   5.482  17.001  0.00  0.00    +0.000 A 
ENDROOT
BRANCH   1   7
ATOM      7  C   UNL     1      48.421   3.248  18.117  0.00  0.00    +0.000 C 
BRANCH   7  10
ATOM      8  C   UNL     1      50.545   2.227  17.386  0.00  0.00    +0.000 C 
ATOM      9  O   UNL     1      50.015   1.674  16.425  0.00  0.00    +0.000 OA
ATOM     10  N   UNL     1      49.839   3.003  18.282  0.00  0.00    +0.000 N 
ATOM     11  H   UNL     1      50.262   3.273  19.160  0.00  0.00    +0.000 HD
BRANCH   8  16
ATOM     12  C   UNL     1      53.987   0.645  17.620  0.00  0.00    +0.000 A 
ATOM     13  C   UNL     1      54.779   1.750  17.935  0.00  0.00    +0.000 A 
ATOM     14  C   UNL     1      54.197   3.009  18.097  0.00  0.00    +0.000 A 
ATOM     15  C   UNL     1      52.821   3.176  17.941  0.00  0.00    +0.000 A 
ATOM     16  C   UNL     1      52.012   2.077  17.628  0.00  0.00    +0.000 A 
ATOM     17  C   UNL     1      52.603   0.814  17.471  0.00  0.00    +0.000 A 
BRANCH  12  19
ATOM     18  C   UNL     1      55.073  -0.909  16.184  0.00  0.00    +0.000 C 
ATOM     19  O   UNL     1      54.443  -0.631  17.429  0.00  0.00    +0.000 OA
ENDBRANCH  12  19
ENDBRANCH   8  16
ENDBRANCH   7  10
ENDBRANCH   1   7
BRANCH   4  20
ATOM     20  C   UNL     1      47.779   6.944  13.632  0.00  0.00    +0.000 C 
BRANCH  20  21
ATOM     21  N   UNL     1      47.364   6.248  12.446  0.00  0.00    +0.000 N 
ATOM     22  C   UNL     1      46.052   6.239  12.039  0.00  0.00    +0.000 C 
ATOM     23  O   UNL     1      45.167   6.838  12.642  0.00  0.00    +0.000 OA
ATOM     24  H   UNL     1      48.023   5.592  12.035  0.00  0.00    +0.000 HD
BRANCH  22  25
ATOM     25  C   UNL     1      45.783   5.511  10.810  0.00  0.00    +0.000 A 
ATOM     26  C   UNL     1      46.109   5.985   9.551  0.00  0.00    +0.000 A 
ATOM     27  O   UNL     1      45.793   5.084   8.585  0.00  0.00    +0.000 OA
ATOM     28  C   UNL     1      45.223   4.012   9.203  0.00  0.00    +0.000 A 
ATOM     29  N   UNL     1      44.772   2.916   8.547  0.00  0.00    +0.000 NA
ATOM     30  C   UNL     1      44.228   2.038   9.325  0.00  0.00    +0.000 A 
ATOM     31  N   UNL     1      44.104   2.160  10.692  0.00  0.00    +0.000 N 
ATOM     32  C   UNL     1      44.588   3.241  11.395  0.00  0.00    +0.000 A 
ATOM     33  O   UNL     1      44.523   3.316  12.617  0.00  0.00    +0.000 OA
ATOM     34  C   UNL     1      45.186   4.246  10.562  0.00  0.00    +0.000 A 
ATOM     35  H   UNL     1      43.671   1.430  11.239  0.00  0.00    +0.000 HD
ENDBRANCH  22  25
ENDBRANCH  20  21
ENDBRANCH   4  20
TORSDOF 7
ENDMDL
MODEL 4
REMARK VINA RESULT:    -7.524      1.768     10.459
REMARK INTER + INTRA:         -11.656
REMARK INTER:                 -10.866
REMARK INTRA:                  -0.790
REMARK UNBOUND:                -1.053
REMARK  Name = 
REMARK  8 active torsions:
REMARK  status: ('A' for Active; 'I' for Inactive)
REMARK    1  A    between atoms: C_1  and  O_2
REMARK    2  A    between atoms: O_2  and  C_3
REMARK    3  A    between atoms: C_7  and  C_8
REMARK    4  A    between atoms: N_10  and  C_11
REMARK    5  A    between atoms: C_11  and  C_12
REMARK    6  A    between atoms: C_15  and  C_16
REMARK    7  A    between atoms: C_16  and  N_17
REMARK    8  A    between atoms: C_18  and  C_20
REMARK                            x       y       z     vdW  Elec       q    Type
REMARK                         _______ _______ _______ _____ _____    ______ ____
ROOT
ATOM      1  C   UNL     1      45.177   6.444  11.643  0.00  0.00    +0.000 A 
ATOM      2  C   UNL     1      44.966   7.810  11.878  0.00  0.00    +0.000 A 
ATOM      3  C   UNL     1      45.846   8.543  12.685  0.00  0.00    +0.000 A 
ATOM      4  C   UNL     1      46.965   7.929  13.263  0.00  0.00    +0.000 A 
ATOM      5  C   UNL     1      47.145   6.553  13.073  0.00  0.00    +0.000 A 
ATOM      6  C   UNL     1      46.269   5.821  12.263  0.00  0.00    +0.000 A 
ENDROOT
BRANCH   1   7
ATOM      7  C   UNL     1      44.295   5.674  10.691  0.00  0.00    +0.000 C 
BRANCH   7  10
ATOM      8  C   UNL     1      44.818   3.672   9.348  0.00  0.00    +0.000 C 
ATOM      9  O   UNL     1      43.918   3.017   9.869  0.00  0.00    +0.000 OA
ATOM     10  N   UNL     1      45.090   4.977   9.701  0.00  0.00    +0.000 N 
ATOM     11  H   UNL     1      45.952   5.412   9.401  0.00  0.00    +0.000 HD
BRANCH   8  16
ATOM     12  C   UNL     1      46.911   1.131   7.459  0.00  0.00    +0.000 A 
ATOM     13  C   UNL     1      47.173   1.815   6.271  0.00  0.00    +0.000 A 
ATOM     14  C   UNL     1      46.693   3.113   6.087  0.00  0.00    +0.000 A 
ATOM     15  C   UNL     1      45.943   3.737   7.086  0.00  0.00    +0.000 A 
ATOM     16  C   UNL     1      45.674   3.065   8.284  0.00  0.00    +0.000 A 
ATOM     17  C   UNL     1      46.163   1.762   8.463  0.00  0.00    +0.000 A 
BRANCH  12  19
ATOM     18  C   UNL     1      46.459  -1.202   7.345  0.00  0.00    +0.000 C 
ATOM     19  O   UNL     1      47.320  -0.143   7.748  0.00  0.00    +0.000 OA
ENDBRANCH  12  19
ENDBRANCH   8  16
ENDBRANCH   7  10
ENDBRANCH   1   7
BRANCH   4  20
ATOM     20  C   UNL     1      47.955   8.723  14.082  0.00  0.00    +0.000 C 
BRANCH  20  21
ATOM     21  N   UNL     1      47.899   8.368  15.472  0.00  0.00    +0.000 N 
ATOM     22  C   UNL     1      48.844   7.550  16.045  0.00  0.00    +0.000 C 
ATOM     23  O   UNL     1      49.795   7.097  15.417  0.00  0.00    +0.000 OA
ATOM     24  H   UNL     1      47.035   8.564  15.970  0.00  0.00    +0.000 HD
BRANCH  22  25
ATOM     25  C   UNL     1      48.671   7.295  17.465  0.00  0.00    +0.000 A 
ATOM     26  C   UNL     1      48.303   8.265  18.380  0.00  0.00    +0.000 A 
ATOM     27  O   UNL     1      48.166   7.745  19.627  0.00  0.00    +0.000 OA
ATOM     28  C   UNL     1      48.474   6.421  19.549  0.00  0.00    +0.000 A 
ATOM     29  N   UNL     1      48.456   5.578  20.610  0.00  0.00    +0.000 NA
ATOM     30  C   UNL     1      48.826   4.374  20.317  0.00  0.00    +0.000 A 
ATOM     31  N   UNL     1      49.205   3.944  19.064  0.00  0.00    +0.000 N 
ATOM     32  C   UNL     1      49.196   4.763  17.956  0.00  0.00    +0.000 A 
ATOM     33  O   UNL     1      49.481   4.359  16.835  0.00  0.00    +0.000 OA
ATOM     34  C   UNL     1      48.804   6.115  18.244  0.00  0.00    +0.000 A 
ATOM     35  H   UNL     1      49.478   2.986  18.907  0.00  0.00    +0.000 HD
ENDBRANCH  22  25
ENDBRANCH  20  21
ENDBRANCH   4  20
TORSDOF 7
ENDMDL
MODEL 5
REMARK VINA RESULT:    -7.435      4.473      9.666
REMARK INTER + INTRA:         -11.530
REMARK INTER:                 -10.459
REMARK INTRA:                  -1.072
REMARK UNBOUND:                -1.053
REMARK  Name = 
REMARK  8 active torsions:
REMARK  status: ('A' for Active; 'I' for Inactive)
REMARK    1  A    between atoms: C_1  and  O_2
REMARK    2  A    between atoms: O_2  and  C_3
REMARK    3  A    between atoms: C_7  and  C_8
REMARK    4  A    between atoms: N_10  and  C_11
REMARK    5  A    between atoms: C_11  and  C_12
REMARK    6  A    between atoms: C_15  and  C_16
REMARK    7  A    between atoms: C_16  and  N_17
REMARK    8  A    between atoms: C_18  and  C_20
REMARK                            x       y       z     vdW  Elec       q    Type
REMARK                         _______ _______ _______ _____ _____    ______ ____
ROOT
ATOM      1  C   UNL     1      45.097   9.127  11.970  0.00  0.00    +0.000 A 
ATOM      2  C   UNL     1      44.447   8.027  11.393  0.00  0.00    +0.000 A 
ATOM      3  C   UNL     1      44.789   6.719  11.758  0.00  0.00    +0.000 A 
ATOM      4  C   UNL     1      45.780   6.482  12.721  0.00  0.00    +0.000 A 
ATOM      5  C   UNL     1      46.466   7.579  13.258  0.00  0.00    +0.000 A 
ATOM      6  C   UNL     1      46.121   8.886  12.896  0.00  0.00    +0.000 A 
ENDROOT
BRANCH   1   7
ATOM      7  C   UNL     1      44.660  10.538  11.660  0.00  0.00    +0.000 C 
BRANCH   7  10
ATOM      8  C   UNL     1      42.281  10.789  11.060  0.00  0.00    +0.000 C 
ATOM      9  O   UNL     1      42.515  10.703   9.857  0.00  0.00    +0.000 OA
ATOM     10  N   UNL     1      43.271  10.739  12.018  0.00  0.00    +0.000 N 
ATOM     11  H   UNL     1      43.068  11.011  12.970  0.00  0.00    +0.000 HD
BRANCH   8  16
ATOM     12  C   UNL     1      38.534  10.291  11.406  0.00  0.00    +0.000 A 
ATOM     13  C   UNL     1      38.244  11.118  12.492  0.00  0.00    +0.000 A 
ATOM     14  C   UNL     1      39.257  11.859  13.102  0.00  0.00    +0.000 A 
ATOM     15  C   UNL     1      40.570  11.778  12.635  0.00  0.00    +0.000 A 
ATOM     16  C   UNL     1      40.877  10.956  11.545  0.00  0.00    +0.000 A 
ATOM     17  C   UNL     1      39.853  10.216  10.935  0.00  0.00    +0.000 A 
BRANCH  12  19
ATOM     18  C   UNL     1      36.745  10.180   9.842  0.00  0.00    +0.000 C 
ATOM     19  O   UNL     1      37.629   9.513  10.736  0.00  0.00    +0.000 OA
ENDBRANCH  12  19
ENDBRANCH   8  16
ENDBRANCH   7  10
ENDBRANCH   1   7
BRANCH   4  20
ATOM     20  C   UNL     1      46.112   5.079  13.170  0.00  0.00    +0.000 C 
BRANCH  20  21
ATOM     21  N   UNL     1      46.649   5.061  14.502  0.00  0.00    +0.000 N 
ATOM     22  C   UNL     1      47.267   3.946  15.015  0.00  0.00    +0.000 C 
ATOM     23  O   UNL     1      47.417   2.916  14.366  0.00  0.00    +0.000 OA
ATOM     24  H   UNL     1      46.377   5.817  15.125  0.00  0.00    +0.000 HD
BRANCH  22  25
ATOM     25  C   UNL     1      47.779   4.081  16.368  0.00  0.00    +0.000 A 
ATOM     26  C   UNL     1      47.429   3.238  17.408  0.00  0.00    +0.000 A 
ATOM     27  O   UNL     1      48.091   3.558  18.550  0.00  0.00    +0.000 OA
ATOM     28  C   UNL     1      48.867   4.643  18.277  0.00  0.00    +0.000 A 
ATOM     29  N   UNL     1      49.665   5.249  19.189  0.00  0.00    +0.000 NA
ATOM     30  C   UNL     1      50.279   6.288  18.726  0.00  0.00    +0.000 A 
ATOM     31  N   UNL     1      50.169   6.765  17.438  0.00  0.00    +0.000 N 
ATOM     32  C   UNL     1      49.400   6.151  16.475  0.00  0.00    +0.000 A 
ATOM     33  O   UNL     1      49.351   6.550  15.317  0.00  0.00    +0.000 OA
ATOM     34  C   UNL     1      48.688   5.000  16.956  0.00  0.00    +0.000 A 
ATOM     35  H   UNL     1      50.684   7.582  17.144  0.00  0.00    +0.000 HD
ENDBRANCH  22  25
ENDBRANCH  20  21
ENDBRANCH   4  20
TORSDOF 7
ENDMDL
MODEL 6
REMARK VINA RESULT:    -7.430      2.136      9.802
REMARK INTER + INTRA:         -11.523
REMARK INTER:                 -10.914
REMARK INTRA:                  -0.608
REMARK UNBOUND:                -1.053
REMARK  Name = 
REMARK  8 active torsions:
REMARK  status: ('A' for Active; 'I' for Inactive)
REMARK    1  A    between atoms: C_1  and  O_2
REMARK    2  A    between atoms: O_2  and  C_3
REMARK    3  A    between atoms: C_7  and  C_8
REMARK    4  A    between atoms: N_10  and  C_11
REMARK    5  A    between atoms: C_11  and  C_12
REMARK    6  A    between atoms: C_15  and  C_16
REMARK    7  A    between atoms: C_16  and  N_17
REMARK    8  A    between atoms: C_18  and  C_20
REMARK                            x       y       z     vdW  Elec       q    Type
REMARK                         _______ _______ _______ _____ _____    ______ ____
ROOT
ATOM      1  C   UNL     1      44.640   6.085  11.302  0.00  0.00    +0.000 A 
ATOM      2  C   UNL     1      45.612   5.441  12.080  0.00  0.00    +0.000 A 
ATOM      3  C   UNL     1      46.544   6.180  12.820  0.00  0.00    +0.000 A 
ATOM      4  C   UNL     1      46.514   7.581  12.811  0.00  0.00    +0.000 A 
ATOM      5  C   UNL     1      45.577   8.224  11.992  0.00  0.00    +0.000 A 
ATOM      6  C   UNL     1      44.643   7.486  11.256  0.00  0.00    +0.000 A 
ENDROOT
BRANCH   1   7
ATOM      7  C   UNL     1      43.568   5.297  10.589  0.00  0.00    +0.000 C 
BRANCH   7  10
ATOM      8  C   UNL     1      45.086   4.208   8.978  0.00  0.00    +0.000 C 
ATOM      9  O   UNL     1      45.495   5.283   8.548  0.00  0.00    +0.000 OA
ATOM     10  N   UNL     1      44.126   4.115   9.964  0.00  0.00    +0.000 N 
ATOM     11  H   UNL     1      43.674   3.231  10.148  0.00  0.00    +0.000 HD
BRANCH   8  16
ATOM     12  C   UNL     1      47.266   1.779   7.040  0.00  0.00    +0.000 A 
ATOM     13  C   UNL     1      46.771   0.551   7.479  0.00  0.00    +0.000 A 
ATOM     14  C   UNL     1      45.711   0.504   8.386  0.00  0.00    +0.000 A 
ATOM     15  C   UNL     1      45.140   1.683   8.867  0.00  0.00    +0.000 A 
ATOM     16  C   UNL     1      45.624   2.924   8.434  0.00  0.00    +0.000 A 
ATOM     17  C   UNL     1      46.687   2.963   7.519  0.00  0.00    +0.000 A 
BRANCH  12  19
ATOM     18  C   UNL     1      48.025   2.680   4.973  0.00  0.00    +0.000 C 
ATOM     19  O   UNL     1      48.303   1.950   6.162  0.00  0.00    +0.000 OA
ENDBRANCH  12  19
ENDBRANCH   8  16
ENDBRANCH   7  10
ENDBRANCH   1   7
BRANCH   4  20
ATOM     20  C   UNL     1      47.471   8.388  13.655  0.00  0.00    +0.000 C 
BRANCH  20  21
ATOM     21  N   UNL     1      47.728   7.755  14.918  0.00  0.00    +0.000 N 
ATOM     22  C   UNL     1      48.838   6.969  15.118  0.00  0.00    +0.000 C 
ATOM     23  O   UNL     1      49.681   6.782  14.246  0.00  0.00    +0.000 OA
ATOM     24  H   UNL     1      46.966   7.731  15.592  0.00  0.00    +0.000 HD
BRANCH  22  25
ATOM     25  C   UNL     1      48.977   6.411  16.452  0.00  0.00    +0.000 A 
ATOM     26  C   UNL     1      49.506   7.109  17.524  0.00  0.00    +0.000 A 
ATOM     27  O   UNL     1      49.474   6.369  18.662  0.00  0.00    +0.000 OA
ATOM     28  C   UNL     1      48.946   5.156  18.341  0.00  0.00    +0.000 A 
ATOM     29  N   UNL     1      48.769   4.150  19.232  0.00  0.00    +0.000 NA
ATOM     30  C   UNL     1      48.293   3.071  18.702  0.00  0.00    +0.000 A 
ATOM     31  N   UNL     1      47.977   2.916  17.369  0.00  0.00    +0.000 N 
ATOM     32  C   UNL     1      48.105   3.928  16.446  0.00  0.00    +0.000 A 
ATOM     33  O   UNL     1      47.769   3.799  15.274  0.00  0.00    +0.000 OA
ATOM     34  C   UNL     1      48.646   5.141  16.994  0.00  0.00    +0.000 A 
ATOM     35  H   UNL     1      47.604   2.043  17.026  0.00  0.00    +0.000 HD
ENDBRANCH  22  25
ENDBRANCH  20  21
ENDBRANCH   4  20
TORSDOF 7
ENDMDL
MODEL 7
REMARK VINA RESULT:    -7.173      3.187      9.675
REMARK INTER + INTRA:         -11.161
REMARK INTER:                 -10.160
REMARK INTRA:                  -1.001
REMARK UNBOUND:                -1.053
REMARK  Name = 
REMARK  8 active torsions:
REMARK  status: ('A' for Active; 'I' for Inactive)
REMARK    1  A    between atoms: C_1  and  O_2
REMARK    2  A    between atoms: O_2  and  C_3
REMARK    3  A    between atoms: C_7  and  C_8
REMARK    4  A    between atoms: N_10  and  C_11
REMARK    5  A    between atoms: C_11  and  C_12
REMARK    6  A    between atoms: C_15  and  C_16
REMARK    7  A    between atoms: C_16  and  N_17
REMARK    8  A    between atoms: C_18  and  C_20
REMARK                            x       y       z     vdW  Elec       q    Type
REMARK                         _______ _______ _______ _____ _____    ______ ____
ROOT
ATOM      1  C   UNL     1      47.459   7.755  13.453  0.00  0.00    +0.000 A 
ATOM      2  C   UNL     1      47.834   8.790  14.321  0.00  0.00    +0.000 A 
ATOM      3  C   UNL     1      48.499   8.512  15.523  0.00  0.00    +0.000 A 
ATOM      4  C   UNL     1      48.817   7.193  15.875  0.00  0.00    +0.000 A 
ATOM      5  C   UNL     1      48.393   6.156  15.034  0.00  0.00    +0.000 A 
ATOM      6  C   UNL     1      47.733   6.433  13.832  0.00  0.00    +0.000 A 
ENDROOT
BRANCH   1   7
ATOM      7  C   UNL     1      46.839   8.054  12.110  0.00  0.00    +0.000 C 
BRANCH   7  10
ATOM      8  C   UNL     1      45.287   6.347  11.237  0.00  0.00    +0.000 C 
ATOM      9  O   UNL     1      44.310   6.895  11.741  0.00  0.00    +0.000 OA
ATOM     10  N   UNL     1      46.570   6.832  11.381  0.00  0.00    +0.000 N 
ATOM     11  H   UNL     1      47.361   6.255  11.128  0.00  0.00    +0.000 HD
BRANCH   8  16
ATOM     12  C   UNL     1      45.557   3.891   8.356  0.00  0.00    +0.000 A 
ATOM     13  C   UNL     1      44.964   2.753   8.905  0.00  0.00    +0.000 A 
ATOM     14  C   UNL     1      44.452   2.785  10.203  0.00  0.00    +0.000 A 
ATOM     15  C   UNL     1      44.531   3.950  10.966  0.00  0.00    +0.000 A 
ATOM     16  C   UNL     1      45.121   5.101  10.429  0.00  0.00    +0.000 A 
ATOM     17  C   UNL     1      45.630   5.064   9.122  0.00  0.00    +0.000 A 
BRANCH  12  19
ATOM     18  C   UNL     1      46.891   2.878   6.667  0.00  0.00    +0.000 C 
ATOM     19  O   UNL     1      46.100   3.977   7.102  0.00  0.00    +0.000 OA
ENDBRANCH  12  19
ENDBRANCH   8  16
ENDBRANCH   7  10
ENDBRANCH   1   7
BRANCH   4  20
ATOM     20  C   UNL     1      49.589   6.886  17.136  0.00  0.00    +0.000 C 
BRANCH  20  21
ATOM     21  N   UNL     1      50.207   5.591  17.078  0.00  0.00    +0.000 N 
ATOM     22  C   UNL     1      49.699   4.519  17.771  0.00  0.00    +0.000 C 
ATOM     23  O   UNL     1      48.684   4.595  18.456  0.00  0.00    +0.000 OA
ATOM     24  H   UNL     1      51.143   5.537  16.683  0.00  0.00    +0.000 HD
BRANCH  22  25
ATOM     25  C   UNL     1      50.416   3.267  17.601  0.00  0.00    +0.000 A 
ATOM     26  C   UNL     1      49.834   2.108  17.118  0.00  0.00    +0.000 A 
ATOM     27  O   UNL     1      50.740   1.103  17.013  0.00  0.00    +0.000 OA
ATOM     28  C   UNL     1      51.933   1.587  17.459  0.00  0.00    +0.000 A 
ATOM     29  N   UNL     1      53.072   0.855  17.509  0.00  0.00    +0.000 NA
ATOM     30  C   UNL     1      54.076   1.500  18.007  0.00  0.00    +0.000 A 
ATOM     31  N   UNL     1      54.039   2.804  18.451  0.00  0.00    +0.000 N 
ATOM     32  C   UNL     1      52.911   3.588  18.377  0.00  0.00    +0.000 A 
ATOM     33  O   UNL     1      52.900   4.765  18.722  0.00  0.00    +0.000 OA
ATOM     34  C   UNL     1      51.768   2.902  17.842  0.00  0.00    +0.000 A 
ATOM     35  H   UNL     1      54.866   3.245  18.825  0.00  0.00    +0.000 HD
ENDBRANCH  22  25
ENDBRANCH  20  21
ENDBRANCH   4  20
TORSDOF 7
ENDMDL
MODEL 8
REMARK VINA RESULT:    -7.028      2.134     10.440
REMARK INTER + INTRA:         -10.957
REMARK INTER:                 -10.130
REMARK INTRA:                  -0.827
REMARK UNBOUND:                -1.053
REMARK  Name = 
REMARK  8 active torsions:
REMARK  status: ('A' for Active; 'I' for Inactive)
REMARK    1  A    between atoms: C_1  and  O_2
REMARK    2  A    between atoms: O_2  and  C_3
REMARK    3  A    between atoms: C_7  and  C_8
REMARK    4  A    between atoms: N_10  and  C_11
REMARK    5  A    between atoms: C_11  and  C_12
REMARK    6  A    between atoms: C_15  and  C_16
REMARK    7  A    between atoms: C_16  and  N_17
REMARK    8  A    between atoms: C_18  and  C_20
REMARK                            x       y       z     vdW  Elec       q    Type
REMARK                         _______ _______ _______ _____ _____    ______ ____
ROOT
ATOM      1  C   UNL     1      46.823   7.730  12.602  0.00  0.00    +0.000 A 
ATOM      2  C   UNL     1      47.991   7.024  12.282  0.00  0.00    +0.000 A 
ATOM      3  C   UNL     1      49.178   7.243  12.993  0.00  0.00    +0.000 A 
ATOM      4  C   UNL     1      49.220   8.164  14.049  0.00  0.00    +0.000 A 
ATOM      5  C   UNL     1      48.067   8.908  14.332  0.00  0.00    +0.000 A 
ATOM      6  C   UNL     1      46.880   8.686  13.626  0.00  0.00    +0.000 A 
ENDROOT
BRANCH   1   7
ATOM      7  C   UNL     1      45.516   7.422  11.913  0.00  0.00    +0.000 C 
BRANCH   7  10
ATOM      8  C   UNL     1      44.640   5.380  10.841  0.00  0.00    +0.000 C 
ATOM      9  O   UNL     1      43.576   5.446  11.453  0.00  0.00    +0.000 OA
ATOM     10  N   UNL     1      45.659   6.293  11.017  0.00  0.00    +0.000 N 
ATOM     11  H   UNL     1      46.582   6.097  10.654  0.00  0.00    +0.000 HD
BRANCH   8  16
ATOM     12  C   UNL     1      45.871   3.547   7.754  0.00  0.00    +0.000 A 
ATOM     13  C   UNL     1      45.480   2.237   8.036  0.00  0.00    +0.000 A 
ATOM     14  C   UNL     1      44.795   1.946   9.217  0.00  0.00    +0.000 A 
ATOM     15  C   UNL     1      44.497   2.959  10.129  0.00  0.00    +0.000 A 
ATOM     16  C   UNL     1      44.879   4.279   9.859  0.00  0.00    +0.000 A 
ATOM     17  C   UNL     1      45.564   4.565   8.669  0.00  0.00    +0.000 A 
BRANCH  12  19
ATOM     18  C   UNL     1      46.944   2.933   5.722  0.00  0.00    +0.000 C 
ATOM     19  O   UNL     1      46.552   3.949   6.638  0.00  0.00    +0.000 OA
ENDBRANCH  12  19
ENDBRANCH   8  16
ENDBRANCH   7  10
ENDBRANCH   1   7
BRANCH   4  20
ATOM     20  C   UNL     1      50.476   8.362  14.863  0.00  0.00    +0.000 C 
BRANCH  20  21
ATOM     21  N   UNL     1      50.234   8.174  16.266  0.00  0.00    +0.000 N 
ATOM     22  C   UNL     1      50.385   6.946  16.865  0.00  0.00    +0.000 C 
ATOM     23  O   UNL     1      50.755   5.951  16.250  0.00  0.00    +0.000 OA
ATOM     24  H   UNL     1      49.749   8.919  16.760  0.00  0.00    +0.000 HD
BRANCH  22  25
ATOM     25  C   UNL     1      50.126   6.912  18.294  0.00  0.00    +0.000 A 
ATOM     26  C   UNL     1      50.424   7.955  19.154  0.00  0.00    +0.000 A 
ATOM     27  O   UNL     1      50.033   7.678  20.424  0.00  0.00    +0.000 OA
ATOM     28  C   UNL     1      49.497   6.426  20.419  0.00  0.00    +0.000 A 
ATOM     29  N   UNL     1      49.007   5.811  21.522  0.00  0.00    +0.000 NA
ATOM     30  C   UNL     1      48.586   4.609  21.296  0.00  0.00    +0.000 A 
ATOM     31  N   UNL     1      48.610   3.978  20.071  0.00  0.00    +0.000 N 
ATOM     32  C   UNL     1      49.062   4.588  18.923  0.00  0.00    +0.000 A 
ATOM     33  O   UNL     1      49.029   4.040  17.827  0.00  0.00    +0.000 OA
ATOM     34  C   UNL     1      49.553   5.921  19.136  0.00  0.00    +0.000 A 
ATOM     35  H   UNL     1      48.260   3.037  19.968  0.00  0.00    +0.000 HD
ENDBRANCH  22  25
ENDBRANCH  20  21
ENDBRANCH   4  20
TORSDOF 7
ENDMDL
MODEL 9
REMARK VINA RESULT:    -6.773      4.922      9.344
REMARK INTER + INTRA:         -10.597
REMARK INTER:                  -9.158
REMARK INTRA:                  -1.440
REMARK UNBOUND:                -1.053
REMARK  Name = 
REMARK  8 active torsions:
REMARK  status: ('A' for Active; 'I' for Inactive)
REMARK    1  A    between atoms: C_1  and  O_2
REMARK    2  A    between atoms: O_2  and  C_3
REMARK    3  A    between atoms: C_7  and  C_8
REMARK    4  A    between atoms: N_10  and  C_11
REMARK    5  A    between atoms: C_11  and  C_12
REMARK    6  A    between atoms: C_15  and  C_16
REMARK    7  A    between atoms: C_16  and  N_17
REMARK    8  A    between atoms: C_18  and  C_20
REMARK                            x       y       z     vdW  Elec       q    Type
REMARK                         _______ _______ _______ _____ _____    ______ ____
ROOT
ATOM      1  C   UNL     1      48.778  11.417  10.616  0.00  0.00    +0.000 A 
ATOM      2  C   UNL     1      49.868  10.651  11.054  0.00  0.00    +0.000 A 
ATOM      3  C   UNL     1      49.750   9.808  12.167  0.00  0.00    +0.000 A 
ATOM      4  C   UNL     1      48.535   9.701  12.857  0.00  0.00    +0.000 A 
ATOM      5  C   UNL     1      47.463  10.507  12.452  0.00  0.00    +0.000 A 
ATOM      6  C   UNL     1      47.579  11.345  11.338  0.00  0.00    +0.000 A 
ENDROOT
BRANCH   1   7
ATOM      7  C   UNL     1      48.866  12.244   9.357  0.00  0.00    +0.000 C 
BRANCH   7  10
ATOM      8  C   UNL     1      47.622  12.273   7.227  0.00  0.00    +0.000 C 
ATOM      9  O   UNL     1      48.640  12.469   6.568  0.00  0.00    +0.000 OA
ATOM     10  N   UNL     1      47.632  12.169   8.602  0.00  0.00    +0.000 N 
ATOM     11  H   UNL     1      46.765  12.209   9.119  0.00  0.00    +0.000 HD
BRANCH   8  16
ATOM     12  C   UNL     1      43.929  11.574   6.698  0.00  0.00    +0.000 A 
ATOM     13  C   UNL     1      43.757  11.983   5.375  0.00  0.00    +0.000 A 
ATOM     14  C   UNL     1      44.842  12.464   4.640  0.00  0.00    +0.000 A 
ATOM     15  C   UNL     1      46.108  12.546   5.222  0.00  0.00    +0.000 A 
ATOM     16  C   UNL     1      46.298  12.137   6.547  0.00  0.00    +0.000 A 
ATOM     17  C   UNL     1      45.204  11.651   7.278  0.00  0.00    +0.000 A 
BRANCH  12  19
ATOM     18  C   UNL     1      43.307  10.804   8.860  0.00  0.00    +0.000 C 
ATOM     19  O   UNL     1      42.942  11.095   7.516  0.00  0.00    +0.000 OA
ENDBRANCH  12  19
ENDBRANCH   8  16
ENDBRANCH   7  10
ENDBRANCH   1   7
BRANCH   4  20
ATOM     20  C   UNL     1      48.379   8.748  14.018  0.00  0.00    +0.000 C 
BRANCH  20  21
ATOM     21  N   UNL     1      47.281   7.843  13.817  0.00  0.00    +0.000 N 
ATOM     22  C   UNL     1      47.469   6.586  13.296  0.00  0.00    +0.000 C 
ATOM     23  O   UNL     1      48.577   6.154  12.994  0.00  0.00    +0.000 OA
ATOM     24  H   UNL     1      46.342   8.229  13.874  0.00  0.00    +0.000 HD
BRANCH  22  25
ATOM     25  C   UNL     1      46.270   5.775  13.169  0.00  0.00    +0.000 A 
ATOM     26  C   UNL     1      46.132   4.517  13.729  0.00  0.00    +0.000 A 
ATOM     27  O   UNL     1      44.896   4.005  13.500  0.00  0.00    +0.000 OA
ATOM     28  C   UNL     1      44.213   4.916  12.755  0.00  0.00    +0.000 A 
ATOM     29  N   UNL     1      42.939   4.738  12.326  0.00  0.00    +0.000 NA
ATOM     30  C   UNL     1      42.501   5.711  11.596  0.00  0.00    +0.000 A 
ATOM     31  N   UNL     1      43.220   6.839  11.265  0.00  0.00    +0.000 N 
ATOM     32  C   UNL     1      44.500   7.071  11.716  0.00  0.00    +0.000 A 
ATOM     33  O   UNL     1      45.112   8.103  11.463  0.00  0.00    +0.000 OA
ATOM     34  C   UNL     1      45.028   6.004  12.519  0.00  0.00    +0.000 A 
ATOM     35  H   UNL     1      42.811   7.563  10.693  0.00  0.00    +0.000 HD
ENDBRANCH  22  25
ENDBRANCH  20  21
ENDBRANCH   4  20
TORSDOF 7
ENDMDL
