MODEL 1
REMARK VINA RESULT:    -8.940      0.000      0.000
REMARK INTER + INTRA:         -12.772
REMARK INTER:                 -12.076
REMARK INTRA:                  -0.696
REMARK UNBOUND:                -0.696
REMARK  Name = 
REMARK  6 active torsions:
REMARK  status: ('A' for Active; 'I' for Inactive)
REMARK    1  A    between atoms: C_2  and  C_25
REMARK    2  A    between atoms: N_3  and  C_4
REMARK    3  A    between atoms: C_4  and  C_5
REMARK    4  A    between atoms: C_9  and  C_10
REMARK    5  A    between atoms: C_10  and  N_11
REMARK    6  A    between atoms: C_12  and  C_14
REMARK                            x       y       z     vdW  Elec       q    Type
REMARK                         _______ _______ _______ _____ _____    ______ ____
ROOT
ATOM      1  C   UNL     1      44.059   4.333  11.335  0.00  0.00    +0.000 A 
ATOM      2  C   UNL     1      42.905   5.098  11.214  0.00  0.00    +0.000 A 
ATOM      3  N   UNL     1      42.857   6.433  11.427  0.00  0.00    +0.000 NA
ATOM      4  C   UNL     1      44.013   7.040  11.776  0.00  0.00    +0.000 A 
ATOM      5  C   UNL     1      45.223   6.379  11.953  0.00  0.00    +0.000 A 
ATOM      6  C   UNL     1      45.234   4.996  11.727  0.00  0.00    +0.000 A 
ENDROOT
BRANCH   1   7
ATOM      7  C   UNL     1      44.036   2.857  11.060  0.00  0.00    +0.000 C 
BRANCH   7  10
ATOM      8  O   UNL     1      44.058   3.919   8.471  0.00  0.00    +0.000 OA
ATOM      9  C   UNL     1      44.890   3.073   8.774  0.00  0.00    +0.000 C 
ATOM     10  N   UNL     1      44.965   2.484  10.019  0.00  0.00    +0.000 N 
ATOM     11  H   UNL     1      45.810   1.995  10.284  0.00  0.00    +0.000 HD
BRANCH   9  12
ATOM     12  C   UNL     1      45.908   2.637   7.793  0.00  0.00    +0.000 A 
ATOM     13  C   UNL     1      46.279   3.433   6.707  0.00  0.00    +0.000 A 
ATOM     14  C   UNL     1      47.257   2.976   5.827  0.00  0.00    +0.000 A 
ATOM     15  C   UNL     1      47.836   1.741   6.071  0.00  0.00    +0.000 A 
ATOM     16  N   UNL     1      47.502   0.949   7.114  0.00  0.00    +0.000 NA
ATOM     17  C   UNL     1      46.549   1.417   7.960  0.00  0.00    +0.000 A 
ENDBRANCH   9  12
ENDBRANCH   7  10
ENDBRANCH   1   7
BRANCH   5  18
ATOM     18  C   UNL     1      46.457   7.151  12.332  0.00  0.00    +0.000 C 
BRANCH  18  19
ATOM     19  N   UNL     1      46.930   6.801  13.647  0.00  0.00    +0.000 N 
ATOM     20  C   UNL     1      48.251   6.506  13.886  0.00  0.00    +0.000 C 
ATOM     21  O   UNL     1      49.098   6.539  12.999  0.00  0.00    +0.000 OA
ATOM     22  H   UNL     1      46.236   6.492  14.324  0.00  0.00    +0.000 HD
BRANCH  20  23
ATOM     23  C   UNL     1      48.601   6.201  15.280  0.00  0.00    +0.000 A 
ATOM     24  C   UNL     1      49.497   7.016  15.963  0.00  0.00    +0.000 A 
ATOM     25  S   UNL     1      49.763   6.539  17.579  0.00  0.00    +0.000 S 
ATOM     26  C   UNL     1      48.734   5.193  17.409  0.00  0.00    +0.000 A 
ATOM     27  N   UNL     1      48.537   4.327  18.440  0.00  0.00    +0.000 NA
ATOM     28  C   UNL     1      47.760   3.334  18.162  0.00  0.00    +0.000 A 
ATOM     29  N   UNL     1      47.150   3.135  16.950  0.00  0.00    +0.000 N 
ATOM     30  C   UNL     1      47.261   4.025  15.910  0.00  0.00    +0.000 A 
ATOM     31  O   UNL     1      46.608   3.885  14.880  0.00  0.00    +0.000 OA
ATOM     32  C   UNL     1      48.166   5.133  16.151  0.00  0.00    +0.000 A 
ATOM     33  H   UNL     1      46.523   2.356  16.808  0.00  0.00    +0.000 HD
ENDBRANCH  20  23
ENDBRANCH  18  19
ENDBRANCH   5  18
TORSDOF 6
ENDMDL
MODEL 2
REMARK VINA RESULT:    -8.839      1.996      3.075
REMARK INTER + INTRA:         -12.635
REMARK INTER:                 -11.633
REMARK INTRA:                  -1.002
REMARK UNBOUND:                -0.696
REMARK  Name = 
REMARK  6 active torsions:
REMARK  status: ('A' for Active; 'I' for Inactive)
REMARK    1  A    between atoms: C_2  and  C_25
REMARK    2  A    between atoms: N_3  and  C_4
REMARK    3  A    between atoms: C_4  and  C_5
REMARK    4  A    between atoms: C_9  and  C_10
REMARK    5  A    between atoms: C_10  and  N_11
REMARK    6  A    between atoms: C_12  and  C_14
REMARK                            x       y       z     vdW  Elec       q    Type
REMARK                         _______ _______ _______ _____ _____    ______ ____
ROOT
ATOM      1  C   UNL     1      45.152   5.558  11.562  0.00  0.00    +0.000 A 
ATOM      2  C   UNL     1      45.524   6.886  11.728  0.00  0.00    +0.000 A 
ATOM      3  N   UNL     1      46.304   7.333  12.740  0.00  0.00    +0.000 NA
ATOM      4  C   UNL     1      46.737   6.413  13.630  0.00  0.00    +0.000 A 
ATOM      5  C   UNL     1      46.412   5.062  13.584  0.00  0.00    +0.000 A 
ATOM      6  C   UNL     1      45.599   4.638  12.523  0.00  0.00    +0.000 A 
ENDROOT
BRANCH   1   7
ATOM      7  C   UNL     1      44.301   5.138  10.399  0.00  0.00    +0.000 C 
BRANCH   7  10
ATOM      8  O   UNL     1      44.388   2.406   9.799  0.00  0.00    +0.000 OA
ATOM      9  C   UNL     1      45.051   3.184   9.126  0.00  0.00    +0.000 C 
ATOM     10  N   UNL     1      45.083   4.546   9.338  0.00  0.00    +0.000 N 
ATOM     11  H   UNL     1      45.436   5.153   8.609  0.00  0.00    +0.000 HD
BRANCH   9  12
ATOM     12  C   UNL     1      45.867   2.690   7.995  0.00  0.00    +0.000 A 
ATOM     13  C   UNL     1      46.141   3.481   6.878  0.00  0.00    +0.000 A 
ATOM     14  C   UNL     1      46.931   2.968   5.852  0.00  0.00    +0.000 A 
ATOM     15  C   UNL     1      47.426   1.681   5.986  0.00  0.00    +0.000 A 
ATOM     16  N   UNL     1      47.183   0.890   7.055  0.00  0.00    +0.000 NA
ATOM     17  C   UNL     1      46.414   1.414   8.043  0.00  0.00    +0.000 A 
ENDBRANCH   9  12
ENDBRANCH   7  10
ENDBRANCH   1   7
BRANCH   5  18
ATOM     18  C   UNL     1      46.958   4.118  14.620  0.00  0.00    +0.000 C 
BRANCH  18  19
ATOM     19  N   UNL     1      47.440   4.816  15.784  0.00  0.00    +0.000 N 
ATOM     20  C   UNL     1      47.213   4.344  17.056  0.00  0.00    +0.000 C 
ATOM     21  O   UNL     1      46.604   3.300  17.265  0.00  0.00    +0.000 OA
ATOM     22  H   UNL     1      47.688   5.796  15.670  0.00  0.00    +0.000 HD
BRANCH  20  23
ATOM     23  C   UNL     1      47.792   5.136  18.149  0.00  0.00    +0.000 A 
ATOM     24  C   UNL     1      46.957   5.807  19.035  0.00  0.00    +0.000 A 
ATOM     25  S   UNL     1      47.792   6.648  20.263  0.00  0.00    +0.000 S 
ATOM     26  C   UNL     1      49.303   6.192  19.623  0.00  0.00    +0.000 A 
ATOM     27  N   UNL     1      50.462   6.611  20.196  0.00  0.00    +0.000 NA
ATOM     28  C   UNL     1      51.532   6.219  19.589  0.00  0.00    +0.000 A 
ATOM     29  N   UNL     1      51.548   5.432  18.466  0.00  0.00    +0.000 N 
ATOM     30  C   UNL     1      50.404   4.924  17.902  0.00  0.00    +0.000 A 
ATOM     31  O   UNL     1      50.453   4.124  16.971  0.00  0.00    +0.000 OA
ATOM     32  C   UNL     1      49.169   5.378  18.514  0.00  0.00    +0.000 A 
ATOM     33  H   UNL     1      52.421   5.129  18.060  0.00  0.00    +0.000 HD
ENDBRANCH  20  23
ENDBRANCH  18  19
ENDBRANCH   5  18
TORSDOF 6
ENDMDL
MODEL 3
REMARK VINA RESULT:    -8.830      1.422      1.619
REMARK INTER + INTRA:         -12.623
REMARK INTER:                 -11.584
REMARK INTRA:                  -1.039
REMARK UNBOUND:                -0.696
REMARK  Name = 
REMARK  6 active torsions:
REMARK  status: ('A' for Active; 'I' for Inactive)
REMARK    1  A    between atoms: C_2  and  C_25
REMARK    2  A    between atoms: N_3  and  C_4
REMARK    3  A    between atoms: C_4  and  C_5
REMARK    4  A    between atoms: C_9  and  C_10
REMARK    5  A    between atoms: C_10  and  N_11
REMARK    6  A    between atoms: C_12  and  C_14
REMARK                            x       y       z     vdW  Elec       q    Type
REMARK                         _______ _______ _______ _____ _____    ______ ____
ROOT
ATOM      1  C   UNL     1      44.449   4.709  11.211  0.00  0.00    +0.000 A 
ATOM      2  C   UNL     1      43.978   3.970  12.290  0.00  0.00    +0.000 A 
ATOM      3  N   UNL     1      44.504   4.029  13.535  0.00  0.00    +0.000 NA
ATOM      4  C   UNL     1      45.550   4.866  13.718  0.00  0.00    +0.000 A 
ATOM      5  C   UNL     1      46.124   5.636  12.712  0.00  0.00    +0.000 A 
ATOM      6  C   UNL     1      45.554   5.545  11.435  0.00  0.00    +0.000 A 
ENDROOT
BRANCH   1   7
ATOM      7  C   UNL     1      43.796   4.603   9.863  0.00  0.00    +0.000 C 
BRANCH   7  10
ATOM      8  O   UNL     1      44.777   2.014   9.463  0.00  0.00    +0.000 OA
ATOM      9  C   UNL     1      45.151   2.912   8.721  0.00  0.00    +0.000 C 
ATOM     10  N   UNL     1      44.733   4.222   8.833  0.00  0.00    +0.000 N 
ATOM     11  H   UNL     1      44.871   4.854   8.055  0.00  0.00    +0.000 HD
BRANCH   9  12
ATOM     12  C   UNL     1      46.089   2.629   7.613  0.00  0.00    +0.000 A 
ATOM     13  C   UNL     1      46.232   3.491   6.524  0.00  0.00    +0.000 A 
ATOM     14  C   UNL     1      47.145   3.180   5.519  0.00  0.00    +0.000 A 
ATOM     15  C   UNL     1      47.890   2.019   5.645  0.00  0.00    +0.000 A 
ATOM     16  N   UNL     1      47.779   1.165   6.688  0.00  0.00    +0.000 NA
ATOM     17  C   UNL     1      46.886   1.492   7.656  0.00  0.00    +0.000 A 
ENDBRANCH   9  12
ENDBRANCH   7  10
ENDBRANCH   1   7
BRANCH   5  18
ATOM     18  C   UNL     1      47.280   6.547  13.025  0.00  0.00    +0.000 C 
BRANCH  18  19
ATOM     19  N   UNL     1      47.617   6.527  14.426  0.00  0.00    +0.000 N 
ATOM     20  C   UNL     1      48.899   6.763  14.865  0.00  0.00    +0.000 C 
ATOM     21  O   UNL     1      49.817   7.017  14.092  0.00  0.00    +0.000 OA
ATOM     22  H   UNL     1      46.971   6.054  15.054  0.00  0.00    +0.000 HD
BRANCH  20  23
ATOM     23  C   UNL     1      49.093   6.749  16.321  0.00  0.00    +0.000 A 
ATOM     24  C   UNL     1      49.535   7.895  16.972  0.00  0.00    +0.000 A 
ATOM     25  S   UNL     1      49.673   7.713  18.663  0.00  0.00    +0.000 S 
ATOM     26  C   UNL     1      49.201   6.080  18.582  0.00  0.00    +0.000 A 
ATOM     27  N   UNL     1      49.138   5.312  19.703  0.00  0.00    +0.000 NA
ATOM     28  C   UNL     1      48.798   4.084  19.491  0.00  0.00    +0.000 A 
ATOM     29  N   UNL     1      48.502   3.557  18.261  0.00  0.00    +0.000 N 
ATOM     30  C   UNL     1      48.478   4.315  17.116  0.00  0.00    +0.000 A 
ATOM     31  O   UNL     1      48.092   3.847  16.049  0.00  0.00    +0.000 OA
ATOM     32  C   UNL     1      48.904   5.692  17.289  0.00  0.00    +0.000 A 
ATOM     33  H   UNL     1      48.207   2.596  18.167  0.00  0.00    +0.000 HD
ENDBRANCH  20  23
ENDBRANCH  18  19
ENDBRANCH   5  18
TORSDOF 6
ENDMDL
MODEL 4
REMARK VINA RESULT:    -8.626      1.207      1.440
REMARK INTER + INTRA:         -12.348
REMARK INTER:                 -11.175
REMARK INTRA:                  -1.173
REMARK UNBOUND:                -0.696
REMARK  Name = 
REMARK  6 active torsions:
REMARK  status: ('A' for Active; 'I' for Inactive)
REMARK    1  A    between atoms: C_2  and  C_25
REMARK    2  A    between atoms: N_3  and  C_4
REMARK    3  A    between atoms: C_4  and  C_5
REMARK    4  A    between atoms: C_9  and  C_10
REMARK    5  A    between atoms: C_10  and  N_11
REMARK    6  A    between atoms: C_12  and  C_14
REMARK                            x       y       z     vdW  Elec       q    Type
REMARK                         _______ _______ _______ _____ _____    ______ ____
ROOT
ATOM      1  C   UNL     1      44.892   6.061  11.127  0.00  0.00    +0.000 A 
ATOM      2  C   UNL     1      44.151   7.179  11.491  0.00  0.00    +0.000 A 
ATOM      3  N   UNL     1      44.673   8.268  12.100  0.00  0.00    +0.000 NA
ATOM      4  C   UNL     1      45.999   8.247  12.359  0.00  0.00    +0.000 A 
ATOM      5  C   UNL     1      46.839   7.178  12.067  0.00  0.00    +0.000 A 
ATOM      6  C   UNL     1      46.261   6.066  11.439  0.00  0.00    +0.000 A 
ENDROOT
BRANCH   1   7
ATOM      7  C   UNL     1      44.241   4.899  10.434  0.00  0.00    +0.000 C 
BRANCH   7  10
ATOM      8  O   UNL     1      44.260   2.221   9.624  0.00  0.00    +0.000 OA
ATOM      9  C   UNL     1      45.001   3.017   9.063  0.00  0.00    +0.000 C 
ATOM     10  N   UNL     1      45.073   4.356   9.386  0.00  0.00    +0.000 N 
ATOM     11  H   UNL     1      45.502   5.000   8.734  0.00  0.00    +0.000 HD
BRANCH   9  12
ATOM     12  C   UNL     1      45.876   2.575   7.955  0.00  0.00    +0.000 A 
ATOM     13  C   UNL     1      46.145   3.389   6.853  0.00  0.00    +0.000 A 
ATOM     14  C   UNL     1      46.991   2.925   5.849  0.00  0.00    +0.000 A 
ATOM     15  C   UNL     1      47.546   1.663   5.989  0.00  0.00    +0.000 A 
ATOM     16  N   UNL     1      47.310   0.852   7.044  0.00  0.00    +0.000 NA
ATOM     17  C   UNL     1      46.485   1.328   8.011  0.00  0.00    +0.000 A 
ENDBRANCH   9  12
ENDBRANCH   7  10
ENDBRANCH   1   7
BRANCH   5  18
ATOM     18  C   UNL     1      48.307   7.261  12.386  0.00  0.00    +0.000 C 
BRANCH  18  19
ATOM     19  N   UNL     1      48.626   6.600  13.626  0.00  0.00    +0.000 N 
ATOM     20  C   UNL     1      48.701   7.288  14.814  0.00  0.00    +0.000 C 
ATOM     21  O   UNL     1      48.487   8.494  14.884  0.00  0.00    +0.000 OA
ATOM     22  H   UNL     1      49.076   5.690  13.565  0.00  0.00    +0.000 HD
BRANCH  20  23
ATOM     23  C   UNL     1      49.000   6.483  16.006  0.00  0.00    +0.000 A 
ATOM     24  C   UNL     1      49.996   6.891  16.885  0.00  0.00    +0.000 A 
ATOM     25  S   UNL     1      50.187   5.861  18.232  0.00  0.00    +0.000 S 
ATOM     26  C   UNL     1      48.983   4.801  17.661  0.00  0.00    +0.000 A 
ATOM     27  N   UNL     1      48.663   3.670  18.346  0.00  0.00    +0.000 NA
ATOM     28  C   UNL     1      47.757   2.942  17.782  0.00  0.00    +0.000 A 
ATOM     29  N   UNL     1      47.131   3.250  16.602  0.00  0.00    +0.000 N 
ATOM     30  C   UNL     1      47.368   4.419  15.921  0.00  0.00    +0.000 A 
ATOM     31  O   UNL     1      46.706   4.726  14.933  0.00  0.00    +0.000 OA
ATOM     32  C   UNL     1      48.417   5.249  16.482  0.00  0.00    +0.000 A 
ATOM     33  H   UNL     1      46.403   2.657  16.233  0.00  0.00    +0.000 HD
ENDBRANCH  20  23
ENDBRANCH  18  19
ENDBRANCH   5  18
TORSDOF 6
ENDMDL
MODEL 5
REMARK VINA RESULT:    -8.331      2.969      4.534
REMARK INTER + INTRA:         -11.950
REMARK INTER:                 -10.861
REMARK INTRA:                  -1.089
REMARK UNBOUND:                -0.696
REMARK  Name = 
REMARK  6 active torsions:
REMARK  status: ('A' for Active; 'I' for Inactive)
REMARK    1  A    between atoms: C_2  and  C_25
REMARK    2  A    between atoms: N_3  and  C_4
REMARK    3  A    between atoms: C_4  and  C_5
REMARK    4  A    between atoms: C_9  and  C_10
REMARK    5  A    between atoms: C_10  and  N_11
REMARK    6  A    between atoms: C_12  and  C_14
REMARK                            x       y       z     vdW  Elec       q    Type
REMARK                         _______ _______ _______ _____ _____    ______ ____
ROOT
ATOM      1  C   UNL     1      44.831   3.696  11.839  0.00  0.00    +0.000 A 
ATOM      2  C   UNL     1      45.684   3.202  12.818  0.00  0.00    +0.000 A 
ATOM      3  N   UNL     1      46.305   3.972  13.740  0.00  0.00    +0.000 NA
ATOM      4  C   UNL     1      46.066   5.302  13.688  0.00  0.00    +0.000 A 
ATOM      5  C   UNL     1      45.254   5.916  12.742  0.00  0.00    +0.000 A 
ATOM      6  C   UNL     1      44.630   5.086  11.801  0.00  0.00    +0.000 A 
ENDROOT
BRANCH   1   7
ATOM      7  C   UNL     1      44.161   2.772  10.864  0.00  0.00    +0.000 C 
BRANCH   7  10
ATOM      8  O   UNL     1      44.413   4.168   8.452  0.00  0.00    +0.000 OA
ATOM      9  C   UNL     1      45.087   3.163   8.629  0.00  0.00    +0.000 C 
ATOM     10  N   UNL     1      45.038   2.400   9.778  0.00  0.00    +0.000 N 
ATOM     11  H   UNL     1      45.785   1.746   9.970  0.00  0.00    +0.000 HD
BRANCH   9  12
ATOM     12  C   UNL     1      46.041   2.706   7.595  0.00  0.00    +0.000 A 
ATOM     13  C   UNL     1      46.276   3.439   6.429  0.00  0.00    +0.000 A 
ATOM     14  C   UNL     1      47.199   2.967   5.499  0.00  0.00    +0.000 A 
ATOM     15  C   UNL     1      47.861   1.781   5.774  0.00  0.00    +0.000 A 
ATOM     16  N   UNL     1      47.660   1.051   6.893  0.00  0.00    +0.000 NA
ATOM     17  C   UNL     1      46.758   1.533   7.786  0.00  0.00    +0.000 A 
ENDBRANCH   9  12
ENDBRANCH   7  10
ENDBRANCH   1   7
BRANCH   5  18
ATOM     18  C   UNL     1      45.043   7.405  12.780  0.00  0.00    +0.000 C 
BRANCH  18  19
ATOM     19  N   UNL     1      46.150   8.121  12.196  0.00  0.00    +0.000 N 
ATOM     20  C   UNL     1      47.067   8.790  12.972  0.00  0.00    +0.000 C 
ATOM     21  O   UNL     1      47.001   8.802  14.197  0.00  0.00    +0.000 OA
ATOM     22  H   UNL     1      46.078   8.366  11.212  0.00  0.00    +0.000 HD
BRANCH  20  23
ATOM     23  C   UNL     1      48.165   9.446  12.248  0.00  0.00    +0.000 A 
ATOM     24  C   UNL     1      48.044  10.776  11.864  0.00  0.00    +0.000 A 
ATOM     25  S   UNL     1      49.422  11.388  11.066  0.00  0.00    +0.000 S 
ATOM     26  C   UNL     1      50.210   9.882  11.154  0.00  0.00    +0.000 A 
ATOM     27  N   UNL     1      51.448   9.706  10.619  0.00  0.00    +0.000 NA
ATOM     28  C   UNL     1      51.912   8.506  10.728  0.00  0.00    +0.000 A 
ATOM     29  N   UNL     1      51.256   7.467  11.337  0.00  0.00    +0.000 N 
ATOM     30  C   UNL     1      50.041   7.621  11.957  0.00  0.00    +0.000 A 
ATOM     31  O   UNL     1      49.532   6.706  12.600  0.00  0.00    +0.000 OA
ATOM     32  C   UNL     1      49.448   8.939  11.819  0.00  0.00    +0.000 A 
ATOM     33  H   UNL     1      51.691   6.560  11.423  0.00  0.00    +0.000 HD
ENDBRANCH  20  23
ENDBRANCH  18  19
ENDBRANCH   5  18
TORSDOF 6
ENDMDL
MODEL 6
REMARK VINA RESULT:    -8.292      3.092      5.592
REMARK INTER + INTRA:         -11.897
REMARK INTER:                 -10.912
REMARK INTRA:                  -0.986
REMARK UNBOUND:                -0.696
REMARK  Name = 
REMARK  6 active torsions:
REMARK  status: ('A' for Active; 'I' for Inactive)
REMARK    1  A    between atoms: C_2  and  C_25
REMARK    2  A    between atoms: N_3  and  C_4
REMARK    3  A    between atoms: C_4  and  C_5
REMARK    4  A    between atoms: C_9  and  C_10
REMARK    5  A    between atoms: C_10  and  N_11
REMARK    6  A    between atoms: C_12  and  C_14
REMARK                            x       y       z     vdW  Elec       q    Type
REMARK                         _______ _______ _______ _____ _____    ______ ____
ROOT
ATOM      1  C   UNL     1      45.375   4.350  12.018  0.00  0.00    +0.000 A 
ATOM      2  C   UNL     1      45.790   3.379  12.921  0.00  0.00    +0.000 A 
ATOM      3  N   UNL     1      46.647   3.612  13.942  0.00  0.00    +0.000 NA
ATOM      4  C   UNL     1      47.113   4.873  14.074  0.00  0.00    +0.000 A 
ATOM      5  C   UNL     1      46.791   5.922  13.220  0.00  0.00    +0.000 A 
ATOM      6  C   UNL     1      45.903   5.642  12.172  0.00  0.00    +0.000 A 
ENDROOT
BRANCH   1   7
ATOM      7  C   UNL     1      44.404   4.017  10.923  0.00  0.00    +0.000 C 
BRANCH   7  10
ATOM      8  O   UNL     1      45.542   5.132   8.623  0.00  0.00    +0.000 OA
ATOM      9  C   UNL     1      45.559   3.916   8.765  0.00  0.00    +0.000 C 
ATOM     10  N   UNL     1      45.023   3.265   9.857  0.00  0.00    +0.000 N 
ATOM     11  H   UNL     1      45.287   2.306  10.039  0.00  0.00    +0.000 HD
BRANCH   9  12
ATOM     12  C   UNL     1      46.194   3.050   7.748  0.00  0.00    +0.000 A 
ATOM     13  C   UNL     1      46.604   3.543   6.507  0.00  0.00    +0.000 A 
ATOM     14  C   UNL     1      47.213   2.683   5.596  0.00  0.00    +0.000 A 
ATOM     15  C   UNL     1      47.398   1.360   5.965  0.00  0.00    +0.000 A 
ATOM     16  N   UNL     1      47.017   0.853   7.158  0.00  0.00    +0.000 NA
ATOM     17  C   UNL     1      46.429   1.711   8.030  0.00  0.00    +0.000 A 
ENDBRANCH   9  12
ENDBRANCH   7  10
ENDBRANCH   1   7
BRANCH   5  18
ATOM     18  C   UNL     1      47.355   7.295  13.464  0.00  0.00    +0.000 C 
BRANCH  18  19
ATOM     19  N   UNL     1      46.451   8.333  13.036  0.00  0.00    +0.000 N 
ATOM     20  C   UNL     1      46.853   9.337  12.188  0.00  0.00    +0.000 C 
ATOM     21  O   UNL     1      47.994   9.396  11.741  0.00  0.00    +0.000 OA
ATOM     22  H   UNL     1      45.612   8.476  13.592  0.00  0.00    +0.000 HD
BRANCH  20  23
ATOM     23  C   UNL     1      45.819  10.308  11.804  0.00  0.00    +0.000 A 
ATOM     24  C   UNL     1      46.087  11.670  11.876  0.00  0.00    +0.000 A 
ATOM     25  S   UNL     1      44.791  12.653  11.362  0.00  0.00    +0.000 S 
ATOM     26  C   UNL     1      43.803  11.296  11.077  0.00  0.00    +0.000 A 
ATOM     27  N   UNL     1      42.524  11.440  10.640  0.00  0.00    +0.000 NA
ATOM     28  C   UNL     1      41.879  10.330  10.498  0.00  0.00    +0.000 A 
ATOM     29  N   UNL     1      42.403   9.087  10.739  0.00  0.00    +0.000 N 
ATOM     30  C   UNL     1      43.712   8.893  11.106  0.00  0.00    +0.000 A 
ATOM     31  O   UNL     1      44.189   7.765  11.197  0.00  0.00    +0.000 OA
ATOM     32  C   UNL     1      44.468  10.111  11.332  0.00  0.00    +0.000 A 
ATOM     33  H   UNL     1      41.857   8.254  10.573  0.00  0.00    +0.000 HD
ENDBRANCH  20  23
ENDBRANCH  18  19
ENDBRANCH   5  18
TORSDOF 6
ENDMDL
MODEL 7
REMARK VINA RESULT:    -7.947      3.591      8.408
REMARK INTER + INTRA:         -11.430
REMARK INTER:                 -10.359
REMARK INTRA:                  -1.072
REMARK UNBOUND:                -0.696
REMARK  Name = 
REMARK  6 active torsions:
REMARK  status: ('A' for Active; 'I' for Inactive)
REMARK    1  A    between atoms: C_2  and  C_25
REMARK    2  A    between atoms: N_3  and  C_4
REMARK    3  A    between atoms: C_4  and  C_5
REMARK    4  A    between atoms: C_9  and  C_10
REMARK    5  A    between atoms: C_10  and  N_11
REMARK    6  A    between atoms: C_12  and  C_14
REMARK                            x       y       z     vdW  Elec       q    Type
REMARK                         _______ _______ _______ _____ _____    ______ ____
ROOT
ATOM      1  C   UNL     1      48.685   4.726  17.865  0.00  0.00    +0.000 A 
ATOM      2  C   UNL     1      48.592   5.549  18.982  0.00  0.00    +0.000 A 
ATOM      3  N   UNL     1      48.544   6.900  18.924  0.00  0.00    +0.000 NA
ATOM      4  C   UNL     1      48.590   7.462  17.696  0.00  0.00    +0.000 A 
ATOM      5  C   UNL     1      48.708   6.747  16.510  0.00  0.00    +0.000 A 
ATOM      6  C   UNL     1      48.758   5.350  16.610  0.00  0.00    +0.000 A 
ENDROOT
BRANCH   1   7
ATOM      7  C   UNL     1      48.711   3.232  18.011  0.00  0.00    +0.000 C 
BRANCH   7  10
ATOM      8  O   UNL     1      50.222   1.714  16.211  0.00  0.00    +0.000 OA
ATOM      9  C   UNL     1      50.702   1.995  17.302  0.00  0.00    +0.000 C 
ATOM     10  N   UNL     1      50.043   2.734  18.262  0.00  0.00    +0.000 N 
ATOM     11  H   UNL     1      50.572   3.143  19.021  0.00  0.00    +0.000 HD
BRANCH   9  12
ATOM     12  C   UNL     1      52.072   1.560  17.653  0.00  0.00    +0.000 A 
ATOM     13  C   UNL     1      53.151   2.446  17.664  0.00  0.00    +0.000 A 
ATOM     14  C   UNL     1      54.415   1.982  18.021  0.00  0.00    +0.000 A 
ATOM     15  C   UNL     1      54.551   0.646  18.362  0.00  0.00    +0.000 A 
ATOM     16  N   UNL     1      53.527  -0.237  18.366  0.00  0.00    +0.000 NA
ATOM     17  C   UNL     1      52.305   0.240  18.018  0.00  0.00    +0.000 A 
ENDBRANCH   9  12
ENDBRANCH   7  10
ENDBRANCH   1   7
BRANCH   5  18
ATOM     18  C   UNL     1      48.738   7.470  15.191  0.00  0.00    +0.000 C 
BRANCH  18  19
ATOM     19  N   UNL     1      47.567   7.192  14.398  0.00  0.00    +0.000 N 
ATOM     20  C   UNL     1      47.623   6.387  13.285  0.00  0.00    +0.000 C 
ATOM     21  O   UNL     1      48.665   5.854  12.916  0.00  0.00    +0.000 OA
ATOM     22  H   UNL     1      46.776   7.823  14.499  0.00  0.00    +0.000 HD
BRANCH  20  23
ATOM     23  C   UNL     1      46.348   6.158  12.591  0.00  0.00    +0.000 A 
ATOM     24  C   UNL     1      45.703   7.216  11.960  0.00  0.00    +0.000 A 
ATOM     25  S   UNL     1      44.256   6.768  11.176  0.00  0.00    +0.000 S 
ATOM     26  C   UNL     1      44.408   5.155  11.699  0.00  0.00    +0.000 A 
ATOM     27  N   UNL     1      43.463   4.226  11.389  0.00  0.00    +0.000 NA
ATOM     28  C   UNL     1      43.688   3.052  11.878  0.00  0.00    +0.000 A 
ATOM     29  N   UNL     1      44.779   2.718  12.637  0.00  0.00    +0.000 N 
ATOM     30  C   UNL     1      45.793   3.604  12.906  0.00  0.00    +0.000 A 
ATOM     31  O   UNL     1      46.816   3.246  13.484  0.00  0.00    +0.000 OA
ATOM     32  C   UNL     1      45.566   4.954  12.426  0.00  0.00    +0.000 A 
ATOM     33  H   UNL     1      44.915   1.771  12.958  0.00  0.00    +0.000 HD
ENDBRANCH  20  23
ENDBRANCH  18  19
ENDBRANCH   5  18
TORSDOF 6
ENDMDL
MODEL 8
REMARK VINA RESULT:    -7.835      2.692      3.450
REMARK INTER + INTRA:         -11.280
REMARK INTER:                 -10.259
REMARK INTRA:                  -1.020
REMARK UNBOUND:                -0.696
REMARK  Name = 
REMARK  6 active torsions:
REMARK  status: ('A' for Active; 'I' for Inactive)
REMARK    1  A    between atoms: C_2  and  C_25
REMARK    2  A    between atoms: N_3  and  C_4
REMARK    3  A    between atoms: C_4  and  C_5
REMARK    4  A    between atoms: C_9  and  C_10
REMARK    5  A    between atoms: C_10  and  N_11
REMARK    6  A    between atoms: C_12  and  C_14
REMARK                            x       y       z     vdW  Elec       q    Type
REMARK                         _______ _______ _______ _____ _____    ______ ____
ROOT
ATOM      1  C   UNL     1      44.634   5.312  11.315  0.00  0.00    +0.000 A 
ATOM      2  C   UNL     1      45.243   4.513  12.276  0.00  0.00    +0.000 A 
ATOM      3  N   UNL     1      45.908   4.996  13.350  0.00  0.00    +0.000 NA
ATOM      4  C   UNL     1      45.971   6.340  13.479  0.00  0.00    +0.000 A 
ATOM      5  C   UNL     1      45.424   7.241  12.571  0.00  0.00    +0.000 A 
ATOM      6  C   UNL     1      44.745   6.703  11.469  0.00  0.00    +0.000 A 
ENDROOT
BRANCH   1   7
ATOM      7  C   UNL     1      43.895   4.699  10.162  0.00  0.00    +0.000 C 
BRANCH   7  10
ATOM      8  O   UNL     1      44.665   2.054   9.669  0.00  0.00    +0.000 OA
ATOM      9  C   UNL     1      45.099   2.943   8.949  0.00  0.00    +0.000 C 
ATOM     10  N   UNL     1      44.786   4.278   9.107  0.00  0.00    +0.000 N 
ATOM     11  H   UNL     1      44.963   4.920   8.346  0.00  0.00    +0.000 HD
BRANCH   9  12
ATOM     12  C   UNL     1      45.998   2.622   7.819  0.00  0.00    +0.000 A 
ATOM     13  C   UNL     1      46.170   3.491   6.740  0.00  0.00    +0.000 A 
ATOM     14  C   UNL     1      47.044   3.142   5.713  0.00  0.00    +0.000 A 
ATOM     15  C   UNL     1      47.722   1.937   5.808  0.00  0.00    +0.000 A 
ATOM     16  N   UNL     1      47.582   1.076   6.841  0.00  0.00    +0.000 NA
ATOM     17  C   UNL     1      46.727   1.440   7.831  0.00  0.00    +0.000 A 
ENDBRANCH   9  12
ENDBRANCH   7  10
ENDBRANCH   1   7
BRANCH   5  18
ATOM     18  C   UNL     1      45.538   8.721  12.814  0.00  0.00    +0.000 C 
BRANCH  18  19
ATOM     19  N   UNL     1      46.713   9.051  13.581  0.00  0.00    +0.000 N 
ATOM     20  C   UNL     1      47.839   9.573  12.989  0.00  0.00    +0.000 C 
ATOM     21  O   UNL     1      47.899   9.798  11.784  0.00  0.00    +0.000 OA
ATOM     22  H   UNL     1      46.803   8.627  14.500  0.00  0.00    +0.000 HD
BRANCH  20  23
ATOM     23  C   UNL     1      48.950   9.898  13.894  0.00  0.00    +0.000 A 
ATOM     24  C   UNL     1      49.204  11.223  14.230  0.00  0.00    +0.000 A 
ATOM     25  S   UNL     1      50.506  11.417  15.317  0.00  0.00    +0.000 S 
ATOM     26  C   UNL     1      50.813   9.743  15.334  0.00  0.00    +0.000 A 
ATOM     27  N   UNL     1      51.839   9.226  16.061  0.00  0.00    +0.000 NA
ATOM     28  C   UNL     1      51.978   7.947  15.957  0.00  0.00    +0.000 A 
ATOM     29  N   UNL     1      51.174   7.133  15.201  0.00  0.00    +0.000 N 
ATOM     30  C   UNL     1      50.082   7.604  14.514  0.00  0.00    +0.000 A 
ATOM     31  O   UNL     1      49.308   6.838  13.945  0.00  0.00    +0.000 OA
ATOM     32  C   UNL     1      49.910   9.044  14.554  0.00  0.00    +0.000 A 
ATOM     33  H   UNL     1      51.313   6.134  15.191  0.00  0.00    +0.000 HD
ENDBRANCH  20  23
ENDBRANCH  18  19
ENDBRANCH   5  18
TORSDOF 6
ENDMDL
MODEL 9
REMARK VINA RESULT:    -7.800      3.273      5.181
REMARK INTER + INTRA:         -11.232
REMARK INTER:                  -9.965
REMARK INTRA:                  -1.267
REMARK UNBOUND:                -0.696
REMARK  Name = 
REMARK  6 active torsions:
REMARK  status: ('A' for Active; 'I' for Inactive)
REMARK    1  A    between atoms: C_2  and  C_25
REMARK    2  A    between atoms: N_3  and  C_4
REMARK    3  A    between atoms: C_4  and  C_5
REMARK    4  A    between atoms: C_9  and  C_10
REMARK    5  A    between atoms: C_10  and  N_11
REMARK    6  A    between atoms: C_12  and  C_14
REMARK                            x       y       z     vdW  Elec       q    Type
REMARK                         _______ _______ _______ _____ _____    ______ ____
ROOT
ATOM      1  C   UNL     1      44.772   4.897  11.472  0.00  0.00    +0.000 A 
ATOM      2  C   UNL     1      44.212   4.203  12.537  0.00  0.00    +0.000 A 
ATOM      3  N   UNL     1      44.734   4.182  13.785  0.00  0.00    +0.000 NA
ATOM      4  C   UNL     1      45.869   4.888  13.986  0.00  0.00    +0.000 A 
ATOM      5  C   UNL     1      46.535   5.600  12.994  0.00  0.00    +0.000 A 
ATOM      6  C   UNL     1      45.966   5.595  11.713  0.00  0.00    +0.000 A 
ENDROOT
BRANCH   1   7
ATOM      7  C   UNL     1      44.119   4.888  10.120  0.00  0.00    +0.000 C 
BRANCH   7  10
ATOM      8  O   UNL     1      44.450   2.202   9.410  0.00  0.00    +0.000 OA
ATOM      9  C   UNL     1      45.094   3.058   8.816  0.00  0.00    +0.000 C 
ATOM     10  N   UNL     1      45.009   4.407   9.090  0.00  0.00    +0.000 N 
ATOM     11  H   UNL     1      45.360   5.072   8.413  0.00  0.00    +0.000 HD
BRANCH   9  12
ATOM     12  C   UNL     1      46.015   2.680   7.722  0.00  0.00    +0.000 A 
ATOM     13  C   UNL     1      46.774   1.509   7.764  0.00  0.00    +0.000 A 
ATOM     14  C   UNL     1      47.611   1.197   6.695  0.00  0.00    +0.000 A 
ATOM     15  C   UNL     1      47.650   2.065   5.616  0.00  0.00    +0.000 A 
ATOM     16  N   UNL     1      46.925   3.204   5.542  0.00  0.00    +0.000 NA
ATOM     17  C   UNL     1      46.114   3.484   6.594  0.00  0.00    +0.000 A 
ENDBRANCH   9  12
ENDBRANCH   7  10
ENDBRANCH   1   7
BRANCH   5  18
ATOM     18  C   UNL     1      47.788   6.365  13.325  0.00  0.00    +0.000 C 
BRANCH  18  19
ATOM     19  N   UNL     1      47.654   7.769  13.032  0.00  0.00    +0.000 N 
ATOM     20  C   UNL     1      48.282   8.345  11.952  0.00  0.00    +0.000 C 
ATOM     21  O   UNL     1      48.974   7.694  11.176  0.00  0.00    +0.000 OA
ATOM     22  H   UNL     1      47.337   8.374  13.785  0.00  0.00    +0.000 HD
BRANCH  20  23
ATOM     23  C   UNL     1      48.030   9.778  11.750  0.00  0.00    +0.000 A 
ATOM     24  C   UNL     1      49.095  10.647  11.546  0.00  0.00    +0.000 A 
ATOM     25  S   UNL     1      48.622  12.266  11.294  0.00  0.00    +0.000 S 
ATOM     26  C   UNL     1      46.978  11.877  11.505  0.00  0.00    +0.000 A 
ATOM     27  N   UNL     1      46.017  12.837  11.442  0.00  0.00    +0.000 NA
ATOM     28  C   UNL     1      44.818  12.407  11.653  0.00  0.00    +0.000 A 
ATOM     29  N   UNL     1      44.490  11.100  11.907  0.00  0.00    +0.000 N 
ATOM     30  C   UNL     1      45.420  10.089  11.902  0.00  0.00    +0.000 A 
ATOM     31  O   UNL     1      45.083   8.913  12.012  0.00  0.00    +0.000 OA
ATOM     32  C   UNL     1      46.792  10.524  11.723  0.00  0.00    +0.000 A 
ATOM     33  H   UNL     1      43.527  10.822  12.027  0.00  0.00    +0.000 HD
ENDBRANCH  20  23
ENDBRANCH  18  19
ENDBRANCH   5  18
TORSDOF 6
ENDMDL
