MODEL 1
REMARK VINA RESULT:    -8.187      0.000      0.000
REMARK INTER + INTRA:         -12.900
REMARK INTER:                 -11.537
REMARK INTRA:                  -1.364
REMARK UNBOUND:                -1.364
REMARK  Name = 
REMARK  8 active torsions:
REMARK  status: ('A' for Active; 'I' for Inactive)
REMARK    1  A    between atoms: C_1  and  N_2
REMARK    2  A    between atoms: C_4  and  C_5
REMARK    3  A    between atoms: N_7  and  C_8
REMARK    4  A    between atoms: C_8  and  C_9
REMARK    5  A    between atoms: C_12  and  C_13
REMARK    6  A    between atoms: C_13  and  O_14
REMARK    7  A    between atoms: O_14  and  C_15
REMARK    8  A    between atoms: C_15  and  C_16
REMARK                            x       y       z     vdW  Elec       q    Type
REMARK                         _______ _______ _______ _____ _____    ______ ____
ROOT
ATOM      1  C   UNL     1      47.144   7.993  13.160  0.00  0.00    +0.000 C 
ENDROOT
BRANCH   1   2
ATOM      2  C   UNL     1      46.253   7.057  12.390  0.00  0.00    +0.000 A 
ATOM      3  C   UNL     1      45.035   6.640  12.949  0.00  0.00    +0.000 A 
ATOM      4  C   UNL     1      44.182   5.787  12.245  0.00  0.00    +0.000 A 
ATOM      5  C   UNL     1      44.535   5.334  10.968  0.00  0.00    +0.000 A 
ATOM      6  C   UNL     1      45.752   5.741  10.413  0.00  0.00    +0.000 A 
ATOM      7  C   UNL     1      46.603   6.595  11.113  0.00  0.00    +0.000 A 
BRANCH   5   8
ATOM      8  C   UNL     1      43.668   4.396  10.178  0.00  0.00    +0.000 C 
BRANCH   8   9
ATOM      9  O   UNL     1      44.328   4.034   8.976  0.00  0.00    +0.000 OA
BRANCH   9  10
ATOM     10  C   UNL     1      44.499   2.623   8.902  0.00  0.00    +0.000 C 
BRANCH  10  11
ATOM     11  C   UNL     1      45.746   2.306   8.127  0.00  0.00    +0.000 A 
ATOM     12  C   UNL     1      46.493   3.301   7.492  0.00  0.00    +0.000 A 
ATOM     13  C   UNL     1      47.637   2.932   6.800  0.00  0.00    +0.000 A 
ATOM     14  N   UNL     1      48.086   1.661   6.717  0.00  0.00    +0.000 NA
ATOM     15  C   UNL     1      47.357   0.720   7.353  0.00  0.00    +0.000 A 
ATOM     16  C   UNL     1      46.200   0.988   8.064  0.00  0.00    +0.000 A 
ENDBRANCH  10  11
ENDBRANCH   9  10
ENDBRANCH   8   9
ENDBRANCH   5   8
ENDBRANCH   1   2
BRANCH   1  19
ATOM     17  C   UNL     1      48.728   6.932  14.692  0.00  0.00    +0.000 C 
ATOM     18  O   UNL     1      49.580   6.875  13.821  0.00  0.00    +0.000 OA
ATOM     19  N   UNL     1      47.485   7.490  14.472  0.00  0.00    +0.000 N 
ATOM     20  H   UNL     1      46.784   7.476  15.201  0.00  0.00    +0.000 HD
BRANCH  17  24
ATOM     21  C   UNL     1      50.392   6.522  19.390  0.00  0.00    +0.000 C 
ATOM     22  N   UNL     1      49.705   6.240  18.150  0.00  0.00    +0.000 N 
ATOM     23  C   UNL     1      49.711   7.032  17.032  0.00  0.00    +0.000 A 
ATOM     24  C   UNL     1      48.942   6.417  16.047  0.00  0.00    +0.000 A 
ATOM     25  C   UNL     1      48.449   5.189  16.619  0.00  0.00    +0.000 A 
ATOM     26  C   UNL     1      47.645   4.103  16.273  0.00  0.00    +0.000 A 
ATOM     27 CL   UNL     1      46.905   3.977  14.754  0.00  0.00    +0.000 Cl
ATOM     28  N   UNL     1      47.374   3.106  17.131  0.00  0.00    +0.000 NA
ATOM     29  C   UNL     1      47.926   3.186  18.347  0.00  0.00    +0.000 A 
ATOM     30  N   UNL     1      48.716   4.158  18.826  0.00  0.00    +0.000 NA
ATOM     31  C   UNL     1      48.941   5.128  17.922  0.00  0.00    +0.000 A 
ENDBRANCH  17  24
ENDBRANCH   1  19
TORSDOF 7
ENDMDL
MODEL 2
REMARK VINA RESULT:    -7.731      1.794      2.197
REMARK INTER + INTRA:         -12.259
REMARK INTER:                 -11.348
REMARK INTRA:                  -0.911
REMARK UNBOUND:                -1.364
REMARK  Name = 
REMARK  8 active torsions:
REMARK  status: ('A' for Active; 'I' for Inactive)
REMARK    1  A    between atoms: C_1  and  N_2
REMARK    2  A    between atoms: C_4  and  C_5
REMARK    3  A    between atoms: N_7  and  C_8
REMARK    4  A    between atoms: C_8  and  C_9
REMARK    5  A    between atoms: C_12  and  C_13
REMARK    6  A    between atoms: C_13  and  O_14
REMARK    7  A    between atoms: O_14  and  C_15
REMARK    8  A    between atoms: C_15  and  C_16
REMARK                            x       y       z     vdW  Elec       q    Type
REMARK                         _______ _______ _______ _____ _____    ______ ____
ROOT
ATOM      1  C   UNL     1      48.418   6.879  13.634  0.00  0.00    +0.000 C 
ENDROOT
BRANCH   1   2
ATOM      2  C   UNL     1      47.285   6.237  12.881  0.00  0.00    +0.000 A 
ATOM      3  C   UNL     1      46.779   5.000  13.309  0.00  0.00    +0.000 A 
ATOM      4  C   UNL     1      45.714   4.394  12.637  0.00  0.00    +0.000 A 
ATOM      5  C   UNL     1      45.139   5.016  11.523  0.00  0.00    +0.000 A 
ATOM      6  C   UNL     1      45.647   6.244  11.090  0.00  0.00    +0.000 A 
ATOM      7  C   UNL     1      46.708   6.852  11.761  0.00  0.00    +0.000 A 
BRANCH   5   8
ATOM      8  C   UNL     1      44.010   4.398  10.749  0.00  0.00    +0.000 C 
BRANCH   8   9
ATOM      9  O   UNL     1      44.494   3.298   9.996  0.00  0.00    +0.000 OA
BRANCH   9  10
ATOM     10  C   UNL     1      44.680   3.665   8.634  0.00  0.00    +0.000 C 
BRANCH  10  11
ATOM     11  C   UNL     1      45.792   2.848   8.038  0.00  0.00    +0.000 A 
ATOM     12  C   UNL     1      45.898   1.473   8.262  0.00  0.00    +0.000 A 
ATOM     13  C   UNL     1      46.948   0.784   7.672  0.00  0.00    +0.000 A 
ATOM     14  N   UNL     1      47.870   1.363   6.873  0.00  0.00    +0.000 NA
ATOM     15  C   UNL     1      47.735   2.688   6.657  0.00  0.00    +0.000 A 
ATOM     16  C   UNL     1      46.726   3.463   7.204  0.00  0.00    +0.000 A 
ENDBRANCH  10  11
ENDBRANCH   9  10
ENDBRANCH   8   9
ENDBRANCH   5   8
ENDBRANCH   1   2
BRANCH   1  19
ATOM     17  C   UNL     1      49.071   6.883  15.991  0.00  0.00    +0.000 C 
ATOM     18  O   UNL     1      50.206   6.531  15.708  0.00  0.00    +0.000 OA
ATOM     19  N   UNL     1      48.108   7.105  15.028  0.00  0.00    +0.000 N 
ATOM     20  H   UNL     1      47.164   7.347  15.299  0.00  0.00    +0.000 HD
BRANCH  17  24
ATOM     21  C   UNL     1      47.364   9.150  20.108  0.00  0.00    +0.000 C 
ATOM     22  N   UNL     1      47.871   8.134  19.213  0.00  0.00    +0.000 N 
ATOM     23  C   UNL     1      48.155   8.307  17.883  0.00  0.00    +0.000 A 
ATOM     24  C   UNL     1      48.628   7.102  17.370  0.00  0.00    +0.000 A 
ATOM     25  C   UNL     1      48.621   6.160  18.462  0.00  0.00    +0.000 A 
ATOM     26  C   UNL     1      48.924   4.822  18.712  0.00  0.00    +0.000 A 
ATOM     27 CL   UNL     1      49.492   3.784  17.499  0.00  0.00    +0.000 Cl
ATOM     28  N   UNL     1      48.752   4.259  19.919  0.00  0.00    +0.000 NA
ATOM     29  C   UNL     1      48.284   5.047  20.894  0.00  0.00    +0.000 A 
ATOM     30  N   UNL     1      47.950   6.343  20.811  0.00  0.00    +0.000 NA
ATOM     31  C   UNL     1      48.138   6.843  19.577  0.00  0.00    +0.000 A 
ENDBRANCH  17  24
ENDBRANCH   1  19
TORSDOF 7
ENDMDL
MODEL 3
REMARK VINA RESULT:    -7.652      2.355      3.174
REMARK INTER + INTRA:         -12.147
REMARK INTER:                 -11.281
REMARK INTRA:                  -0.865
REMARK UNBOUND:                -1.364
REMARK  Name = 
REMARK  8 active torsions:
REMARK  status: ('A' for Active; 'I' for Inactive)
REMARK    1  A    between atoms: C_1  and  N_2
REMARK    2  A    between atoms: C_4  and  C_5
REMARK    3  A    between atoms: N_7  and  C_8
REMARK    4  A    between atoms: C_8  and  C_9
REMARK    5  A    between atoms: C_12  and  C_13
REMARK    6  A    between atoms: C_13  and  O_14
REMARK    7  A    between atoms: O_14  and  C_15
REMARK    8  A    between atoms: C_15  and  C_16
REMARK                            x       y       z     vdW  Elec       q    Type
REMARK                         _______ _______ _______ _____ _____    ______ ____
ROOT
ATOM      1  C   UNL     1      48.414   6.608  13.760  0.00  0.00    +0.000 C 
ENDROOT
BRANCH   1   2
ATOM      2  C   UNL     1      47.280   6.030  12.959  0.00  0.00    +0.000 A 
ATOM      3  C   UNL     1      46.865   6.670  11.780  0.00  0.00    +0.000 A 
ATOM      4  C   UNL     1      45.826   6.141  11.009  0.00  0.00    +0.000 A 
ATOM      5  C   UNL     1      45.184   4.962  11.406  0.00  0.00    +0.000 A 
ATOM      6  C   UNL     1      45.590   4.328  12.583  0.00  0.00    +0.000 A 
ATOM      7  C   UNL     1      46.629   4.853  13.352  0.00  0.00    +0.000 A 
BRANCH   5   8
ATOM      8  C   UNL     1      44.047   4.364  10.628  0.00  0.00    +0.000 C 
BRANCH   8   9
ATOM      9  O   UNL     1      44.534   3.330   9.789  0.00  0.00    +0.000 OA
BRANCH   9  10
ATOM     10  C   UNL     1      44.863   3.841   8.502  0.00  0.00    +0.000 C 
BRANCH  10  11
ATOM     11  C   UNL     1      45.869   2.940   7.843  0.00  0.00    +0.000 A 
ATOM     12  C   UNL     1      46.058   1.618   8.257  0.00  0.00    +0.000 A 
ATOM     13  C   UNL     1      47.000   0.845   7.595  0.00  0.00    +0.000 A 
ATOM     14  N   UNL     1      47.738   1.289   6.555  0.00  0.00    +0.000 NA
ATOM     15  C   UNL     1      47.525   2.562   6.162  0.00  0.00    +0.000 A 
ATOM     16  C   UNL     1      46.612   3.414   6.761  0.00  0.00    +0.000 A 
ENDBRANCH  10  11
ENDBRANCH   9  10
ENDBRANCH   8   9
ENDBRANCH   5   8
ENDBRANCH   1   2
BRANCH   1  19
ATOM     17  C   UNL     1      49.032   6.590  16.126  0.00  0.00    +0.000 C 
ATOM     18  O   UNL     1      50.181   6.279  15.855  0.00  0.00    +0.000 OA
ATOM     19  N   UNL     1      48.076   6.799  15.153  0.00  0.00    +0.000 N 
ATOM     20  H   UNL     1      47.121   7.006  15.414  0.00  0.00    +0.000 HD
BRANCH  17  24
ATOM     21  C   UNL     1      47.650   5.577  20.824  0.00  0.00    +0.000 C 
ATOM     22  N   UNL     1      47.935   6.300  19.605  0.00  0.00    +0.000 N 
ATOM     23  C   UNL     1      48.434   5.757  18.450  0.00  0.00    +0.000 A 
ATOM     24  C   UNL     1      48.562   6.769  17.502  0.00  0.00    +0.000 A 
ATOM     25  C   UNL     1      48.113   7.984  18.137  0.00  0.00    +0.000 A 
ATOM     26  C   UNL     1      47.964   9.341  17.850  0.00  0.00    +0.000 A 
ATOM     27 CL   UNL     1      48.386   9.995  16.344  0.00  0.00    +0.000 Cl
ATOM     28  N   UNL     1      47.514  10.223  18.756  0.00  0.00    +0.000 NA
ATOM     29  C   UNL     1      47.194   9.742  19.963  0.00  0.00    +0.000 A 
ATOM     30  N   UNL     1      47.278   8.473  20.388  0.00  0.00    +0.000 NA
ATOM     31  C   UNL     1      47.743   7.644  19.437  0.00  0.00    +0.000 A 
ENDBRANCH  17  24
ENDBRANCH   1  19
TORSDOF 7
ENDMDL
MODEL 4
REMARK VINA RESULT:    -7.418      2.664      4.352
REMARK INTER + INTRA:         -11.817
REMARK INTER:                 -10.682
REMARK INTRA:                  -1.136
REMARK UNBOUND:                -1.364
REMARK  Name = 
REMARK  8 active torsions:
REMARK  status: ('A' for Active; 'I' for Inactive)
REMARK    1  A    between atoms: C_1  and  N_2
REMARK    2  A    between atoms: C_4  and  C_5
REMARK    3  A    between atoms: N_7  and  C_8
REMARK    4  A    between atoms: C_8  and  C_9
REMARK    5  A    between atoms: C_12  and  C_13
REMARK    6  A    between atoms: C_13  and  O_14
REMARK    7  A    between atoms: O_14  and  C_15
REMARK    8  A    between atoms: C_15  and  C_16
REMARK                            x       y       z     vdW  Elec       q    Type
REMARK                         _______ _______ _______ _____ _____    ______ ____
ROOT
ATOM      1  C   UNL     1      47.573   5.394  14.433  0.00  0.00    +0.000 C 
ENDROOT
BRANCH   1   2
ATOM      2  C   UNL     1      46.570   5.030  13.373  0.00  0.00    +0.000 A 
ATOM      3  C   UNL     1      46.022   6.035  12.560  0.00  0.00    +0.000 A 
ATOM      4  C   UNL     1      45.104   5.719  11.556  0.00  0.00    +0.000 A 
ATOM      5  C   UNL     1      44.717   4.390  11.349  0.00  0.00    +0.000 A 
ATOM      6  C   UNL     1      45.255   3.388  12.162  0.00  0.00    +0.000 A 
ATOM      7  C   UNL     1      46.174   3.702  13.163  0.00  0.00    +0.000 A 
BRANCH   5   8
ATOM      8  C   UNL     1      43.715   3.997  10.301  0.00  0.00    +0.000 C 
BRANCH   8   9
ATOM      9  O   UNL     1      44.314   3.099   9.381  0.00  0.00    +0.000 OA
BRANCH   9  10
ATOM     10  C   UNL     1      44.908   3.809   8.300  0.00  0.00    +0.000 C 
BRANCH  10  11
ATOM     11  C   UNL     1      45.931   2.939   7.626  0.00  0.00    +0.000 A 
ATOM     12  C   UNL     1      46.675   3.389   6.531  0.00  0.00    +0.000 A 
ATOM     13  C   UNL     1      47.607   2.531   5.966  0.00  0.00    +0.000 A 
ATOM     14  N   UNL     1      47.854   1.285   6.424  0.00  0.00    +0.000 NA
ATOM     15  C   UNL     1      47.137   0.881   7.493  0.00  0.00    +0.000 A 
ATOM     16  C   UNL     1      46.182   1.660   8.123  0.00  0.00    +0.000 A 
ENDBRANCH  10  11
ENDBRANCH   9  10
ENDBRANCH   8   9
ENDBRANCH   5   8
ENDBRANCH   1   2
BRANCH   1  19
ATOM     17  C   UNL     1      49.034   7.285  14.952  0.00  0.00    +0.000 C 
ATOM     18  O   UNL     1      49.951   6.535  15.247  0.00  0.00    +0.000 OA
ATOM     19  N   UNL     1      47.812   6.818  14.514  0.00  0.00    +0.000 N 
ATOM     20  H   UNL     1      47.058   7.465  14.325  0.00  0.00    +0.000 HD
BRANCH  17  24
ATOM     21  C   UNL     1      49.501  11.897  16.830  0.00  0.00    +0.000 C 
ATOM     22  N   UNL     1      49.344  10.808  15.891  0.00  0.00    +0.000 N 
ATOM     23  C   UNL     1      49.321   9.475  16.206  0.00  0.00    +0.000 A 
ATOM     24  C   UNL     1      49.144   8.744  15.034  0.00  0.00    +0.000 A 
ATOM     25  C   UNL     1      49.060   9.704  13.961  0.00  0.00    +0.000 A 
ATOM     26  C   UNL     1      48.909   9.738  12.575  0.00  0.00    +0.000 A 
ATOM     27 CL   UNL     1      48.763   8.326  11.650  0.00  0.00    +0.000 Cl
ATOM     28  N   UNL     1      48.906  10.887  11.880  0.00  0.00    +0.000 NA
ATOM     29  C   UNL     1      49.041  12.019  12.579  0.00  0.00    +0.000 A 
ATOM     30  N   UNL     1      49.194  12.150  13.905  0.00  0.00    +0.000 NA
ATOM     31  C   UNL     1      49.197  10.965  14.540  0.00  0.00    +0.000 A 
ENDBRANCH  17  24
ENDBRANCH   1  19
TORSDOF 7
ENDMDL
MODEL 5
REMARK VINA RESULT:    -7.132      1.951      2.364
REMARK INTER + INTRA:         -11.414
REMARK INTER:                 -10.512
REMARK INTRA:                  -0.902
REMARK UNBOUND:                -1.364
REMARK  Name = 
REMARK  8 active torsions:
REMARK  status: ('A' for Active; 'I' for Inactive)
REMARK    1  A    between atoms: C_1  and  N_2
REMARK    2  A    between atoms: C_4  and  C_5
REMARK    3  A    between atoms: N_7  and  C_8
REMARK    4  A    between atoms: C_8  and  C_9
REMARK    5  A    between atoms: C_12  and  C_13
REMARK    6  A    between atoms: C_13  and  O_14
REMARK    7  A    between atoms: O_14  and  C_15
REMARK    8  A    between atoms: C_15  and  C_16
REMARK                            x       y       z     vdW  Elec       q    Type
REMARK                         _______ _______ _______ _____ _____    ______ ____
ROOT
ATOM      1  C   UNL     1      47.548   6.854  13.997  0.00  0.00    +0.000 C 
ENDROOT
BRANCH   1   2
ATOM      2  C   UNL     1      46.570   5.987  13.254  0.00  0.00    +0.000 A 
ATOM      3  C   UNL     1      45.633   6.579  12.392  0.00  0.00    +0.000 A 
ATOM      4  C   UNL     1      44.726   5.792  11.675  0.00  0.00    +0.000 A 
ATOM      5  C   UNL     1      44.742   4.399  11.812  0.00  0.00    +0.000 A 
ATOM      6  C   UNL     1      45.668   3.809  12.676  0.00  0.00    +0.000 A 
ATOM      7  C   UNL     1      46.576   4.592  13.389  0.00  0.00    +0.000 A 
BRANCH   5   8
ATOM      8  C   UNL     1      43.775   3.509  11.086  0.00  0.00    +0.000 C 
BRANCH   8   9
ATOM      9  O   UNL     1      44.482   2.661  10.196  0.00  0.00    +0.000 OA
BRANCH   9  10
ATOM     10  C   UNL     1      44.600   3.266   8.913  0.00  0.00    +0.000 C 
BRANCH  10  11
ATOM     11  C   UNL     1      45.746   2.646   8.165  0.00  0.00    +0.000 A 
ATOM     12  C   UNL     1      46.631   3.414   7.404  0.00  0.00    +0.000 A 
ATOM     13  C   UNL     1      47.670   2.772   6.747  0.00  0.00    +0.000 A 
ATOM     14  N   UNL     1      47.891   1.441   6.814  0.00  0.00    +0.000 NA
ATOM     15  C   UNL     1      47.034   0.723   7.570  0.00  0.00    +0.000 A 
ATOM     16  C   UNL     1      45.965   1.271   8.258  0.00  0.00    +0.000 A 
ENDBRANCH  10  11
ENDBRANCH   9  10
ENDBRANCH   8   9
ENDBRANCH   5   8
ENDBRANCH   1   2
BRANCH   1  19
ATOM     17  C   UNL     1      48.882   6.910  16.046  0.00  0.00    +0.000 C 
ATOM     18  O   UNL     1      49.049   8.115  15.941  0.00  0.00    +0.000 OA
ATOM     19  N   UNL     1      48.132   6.189  15.140  0.00  0.00    +0.000 N 
ATOM     20  H   UNL     1      48.055   5.184  15.229  0.00  0.00    +0.000 HD
BRANCH  17  24
ATOM     21  C   UNL     1      51.663   3.560  18.506  0.00  0.00    +0.000 C 
ATOM     22  N   UNL     1      50.705   4.607  18.227  0.00  0.00    +0.000 N 
ATOM     23  C   UNL     1      50.447   5.150  16.996  0.00  0.00    +0.000 A 
ATOM     24  C   UNL     1      49.459   6.122  17.137  0.00  0.00    +0.000 A 
ATOM     25  C   UNL     1      49.114   6.155  18.538  0.00  0.00    +0.000 A 
ATOM     26  C   UNL     1      48.266   6.840  19.407  0.00  0.00    +0.000 A 
ATOM     27 CL   UNL     1      47.225   8.065  18.871  0.00  0.00    +0.000 Cl
ATOM     28  N   UNL     1      48.244   6.601  20.728  0.00  0.00    +0.000 NA
ATOM     29  C   UNL     1      49.070   5.654  21.186  0.00  0.00    +0.000 A 
ATOM     30  N   UNL     1      49.938   4.912  20.483  0.00  0.00    +0.000 NA
ATOM     31  C   UNL     1      49.917   5.207  19.170  0.00  0.00    +0.000 A 
ENDBRANCH  17  24
ENDBRANCH   1  19
TORSDOF 7
ENDMDL
MODEL 6
REMARK VINA RESULT:    -6.878      2.621      8.070
REMARK INTER + INTRA:         -11.056
REMARK INTER:                  -9.643
REMARK INTRA:                  -1.413
REMARK UNBOUND:                -1.364
REMARK  Name = 
REMARK  8 active torsions:
REMARK  status: ('A' for Active; 'I' for Inactive)
REMARK    1  A    between atoms: C_1  and  N_2
REMARK    2  A    between atoms: C_4  and  C_5
REMARK    3  A    between atoms: N_7  and  C_8
REMARK    4  A    between atoms: C_8  and  C_9
REMARK    5  A    between atoms: C_12  and  C_13
REMARK    6  A    between atoms: C_13  and  O_14
REMARK    7  A    between atoms: O_14  and  C_15
REMARK    8  A    between atoms: C_15  and  C_16
REMARK                            x       y       z     vdW  Elec       q    Type
REMARK                         _______ _______ _______ _____ _____    ______ ____
ROOT
ATOM      1  C   UNL     1      48.512   7.934  11.885  0.00  0.00    +0.000 C 
ENDROOT
BRANCH   1   2
ATOM      2  C   UNL     1      49.006   7.576  13.260  0.00  0.00    +0.000 A 
ATOM      3  C   UNL     1      50.300   7.951  13.652  0.00  0.00    +0.000 A 
ATOM      4  C   UNL     1      50.774   7.647  14.931  0.00  0.00    +0.000 A 
ATOM      5  C   UNL     1      49.960   6.959  15.838  0.00  0.00    +0.000 A 
ATOM      6  C   UNL     1      48.674   6.577  15.447  0.00  0.00    +0.000 A 
ATOM      7  C   UNL     1      48.198   6.883  14.172  0.00  0.00    +0.000 A 
BRANCH   5   8
ATOM      8  C   UNL     1      50.427   6.584  17.216  0.00  0.00    +0.000 C 
BRANCH   8   9
ATOM      9  O   UNL     1      49.312   6.250  18.024  0.00  0.00    +0.000 OA
BRANCH   9  10
ATOM     10  C   UNL     1      49.579   5.082  18.792  0.00  0.00    +0.000 C 
BRANCH  10  11
ATOM     11  C   UNL     1      49.571   3.876  17.896  0.00  0.00    +0.000 A 
ATOM     12  C   UNL     1      50.697   3.062  17.744  0.00  0.00    +0.000 A 
ATOM     13  C   UNL     1      50.611   1.961  16.905  0.00  0.00    +0.000 A 
ATOM     14  N   UNL     1      49.491   1.614  16.235  0.00  0.00    +0.000 NA
ATOM     15  C   UNL     1      48.411   2.404  16.413  0.00  0.00    +0.000 A 
ATOM     16  C   UNL     1      48.399   3.526  17.224  0.00  0.00    +0.000 A 
ENDBRANCH  10  11
ENDBRANCH   9  10
ENDBRANCH   8   9
ENDBRANCH   5   8
ENDBRANCH   1   2
BRANCH   1  19
ATOM     17  C   UNL     1      46.416   6.849  11.245  0.00  0.00    +0.000 C 
ATOM     18  O   UNL     1      45.761   7.754  11.738  0.00  0.00    +0.000 OA
ATOM     19  N   UNL     1      47.796   6.852  11.247  0.00  0.00    +0.000 N 
ATOM     20  H   UNL     1      48.307   6.063  10.874  0.00  0.00    +0.000 HD
BRANCH  17  24
ATOM     21  C   UNL     1      44.916   3.610   7.742  0.00  0.00    +0.000 C 
ATOM     22  N   UNL     1      45.126   4.241   9.026  0.00  0.00    +0.000 N 
ATOM     23  C   UNL     1      45.835   5.393   9.247  0.00  0.00    +0.000 A 
ATOM     24  C   UNL     1      45.802   5.681  10.609  0.00  0.00    +0.000 A 
ATOM     25  C   UNL     1      45.029   4.634  11.231  0.00  0.00    +0.000 A 
ATOM     26  C   UNL     1      44.592   4.244  12.496  0.00  0.00    +0.000 A 
ATOM     27 CL   UNL     1      44.975   5.125  13.893  0.00  0.00    +0.000 Cl
ATOM     28  N   UNL     1      43.872   3.128  12.697  0.00  0.00    +0.000 NA
ATOM     29  C   UNL     1      43.572   2.398  11.617  0.00  0.00    +0.000 A 
ATOM     30  N   UNL     1      43.915   2.639  10.343  0.00  0.00    +0.000 NA
ATOM     31  C   UNL     1      44.640   3.765  10.213  0.00  0.00    +0.000 A 
ENDBRANCH  17  24
ENDBRANCH   1  19
TORSDOF 7
ENDMDL
MODEL 7
REMARK VINA RESULT:    -6.866      2.702      3.317
REMARK INTER + INTRA:         -11.039
REMARK INTER:                 -10.225
REMARK INTRA:                  -0.814
REMARK UNBOUND:                -1.364
REMARK  Name = 
REMARK  8 active torsions:
REMARK  status: ('A' for Active; 'I' for Inactive)
REMARK    1  A    between atoms: C_1  and  N_2
REMARK    2  A    between atoms: C_4  and  C_5
REMARK    3  A    between atoms: N_7  and  C_8
REMARK    4  A    between atoms: C_8  and  C_9
REMARK    5  A    between atoms: C_12  and  C_13
REMARK    6  A    between atoms: C_13  and  O_14
REMARK    7  A    between atoms: O_14  and  C_15
REMARK    8  A    between atoms: C_15  and  C_16
REMARK                            x       y       z     vdW  Elec       q    Type
REMARK                         _______ _______ _______ _____ _____    ______ ____
ROOT
ATOM      1  C   UNL     1      48.207   5.400  14.969  0.00  0.00    +0.000 C 
ENDROOT
BRANCH   1   2
ATOM      2  C   UNL     1      47.253   5.259  13.815  0.00  0.00    +0.000 A 
ATOM      3  C   UNL     1      46.573   4.047  13.619  0.00  0.00    +0.000 A 
ATOM      4  C   UNL     1      45.668   3.899  12.565  0.00  0.00    +0.000 A 
ATOM      5  C   UNL     1      45.429   4.963  11.688  0.00  0.00    +0.000 A 
ATOM      6  C   UNL     1      46.111   6.169  11.876  0.00  0.00    +0.000 A 
ATOM      7  C   UNL     1      47.013   6.318  12.929  0.00  0.00    +0.000 A 
BRANCH   5   8
ATOM      8  C   UNL     1      44.486   4.850  10.524  0.00  0.00    +0.000 C 
BRANCH   8   9
ATOM      9  O   UNL     1      44.716   3.631   9.839  0.00  0.00    +0.000 OA
BRANCH   9  10
ATOM     10  C   UNL     1      44.785   3.849   8.434  0.00  0.00    +0.000 C 
BRANCH  10  11
ATOM     11  C   UNL     1      45.849   2.971   7.838  0.00  0.00    +0.000 A 
ATOM     12  C   UNL     1      46.762   3.454   6.896  0.00  0.00    +0.000 A 
ATOM     13  C   UNL     1      47.720   2.585   6.396  0.00  0.00    +0.000 A 
ATOM     14  N   UNL     1      47.836   1.296   6.780  0.00  0.00    +0.000 NA
ATOM     15  C   UNL     1      46.955   0.857   7.703  0.00  0.00    +0.000 A 
ATOM     16  C   UNL     1      45.961   1.645   8.258  0.00  0.00    +0.000 A 
ENDBRANCH  10  11
ENDBRANCH   9  10
ENDBRANCH   8   9
ENDBRANCH   5   8
ENDBRANCH   1   2
BRANCH   1  19
ATOM     17  C   UNL     1      48.841   7.018  16.690  0.00  0.00    +0.000 C 
ATOM     18  O   UNL     1      49.978   6.575  16.731  0.00  0.00    +0.000 OA
ATOM     19  N   UNL     1      47.886   6.516  15.830  0.00  0.00    +0.000 N 
ATOM     20  H   UNL     1      46.940   6.873  15.856  0.00  0.00    +0.000 HD
BRANCH  17  24
ATOM     21  C   UNL     1      47.607  11.613  18.231  0.00  0.00    +0.000 C 
ATOM     22  N   UNL     1      47.846  10.187  18.226  0.00  0.00    +0.000 N 
ATOM     23  C   UNL     1      48.264   9.448  17.150  0.00  0.00    +0.000 A 
ATOM     24  C   UNL     1      48.387   8.118  17.544  0.00  0.00    +0.000 A 
ATOM     25  C   UNL     1      48.017   8.068  18.937  0.00  0.00    +0.000 A 
ATOM     26  C   UNL     1      47.883   7.139  19.968  0.00  0.00    +0.000 A 
ATOM     27 CL   UNL     1      48.196   5.488  19.740  0.00  0.00    +0.000 Cl
ATOM     28  N   UNL     1      47.462   7.482  21.196  0.00  0.00    +0.000 NA
ATOM     29  C   UNL     1      47.185   8.774  21.403  0.00  0.00    +0.000 A 
ATOM     30  N   UNL     1      47.266   9.781  20.521  0.00  0.00    +0.000 NA
ATOM     31  C   UNL     1      47.684   9.369  19.310  0.00  0.00    +0.000 A 
ENDBRANCH  17  24
ENDBRANCH   1  19
TORSDOF 7
ENDMDL
MODEL 8
REMARK VINA RESULT:    -6.440      3.665      5.574
REMARK INTER + INTRA:         -10.438
REMARK INTER:                  -9.702
REMARK INTRA:                  -0.736
REMARK UNBOUND:                -1.364
REMARK  Name = 
REMARK  8 active torsions:
REMARK  status: ('A' for Active; 'I' for Inactive)
REMARK    1  A    between atoms: C_1  and  N_2
REMARK    2  A    between atoms: C_4  and  C_5
REMARK    3  A    between atoms: N_7  and  C_8
REMARK    4  A    between atoms: C_8  and  C_9
REMARK    5  A    between atoms: C_12  and  C_13
REMARK    6  A    between atoms: C_13  and  O_14
REMARK    7  A    between atoms: O_14  and  C_15
REMARK    8  A    between atoms: C_15  and  C_16
REMARK                            x       y       z     vdW  Elec       q    Type
REMARK                         _______ _______ _______ _____ _____    ______ ____
ROOT
ATOM      1  C   UNL     1      48.075   3.241  17.656  0.00  0.00    +0.000 C 
ENDROOT
BRANCH   1   2
ATOM      2  C   UNL     1      47.882   4.193  16.507  0.00  0.00    +0.000 A 
ATOM      3  C   UNL     1      48.529   5.438  16.521  0.00  0.00    +0.000 A 
ATOM      4  C   UNL     1      48.380   6.331  15.456  0.00  0.00    +0.000 A 
ATOM      5  C   UNL     1      47.578   5.992  14.360  0.00  0.00    +0.000 A 
ATOM      6  C   UNL     1      46.927   4.756  14.348  0.00  0.00    +0.000 A 
ATOM      7  C   UNL     1      47.077   3.862  15.409  0.00  0.00    +0.000 A 
BRANCH   5   8
ATOM      8  C   UNL     1      47.364   6.924  13.202  0.00  0.00    +0.000 C 
BRANCH   8   9
ATOM      9  O   UNL     1      47.192   6.173  12.011  0.00  0.00    +0.000 OA
BRANCH   9  10
ATOM     10  C   UNL     1      45.981   6.538  11.357  0.00  0.00    +0.000 C 
BRANCH  10  11
ATOM     11  C   UNL     1      45.309   5.309  10.815  0.00  0.00    +0.000 A 
ATOM     12  C   UNL     1      44.525   4.480  11.622  0.00  0.00    +0.000 A 
ATOM     13  C   UNL     1      43.930   3.366  11.048  0.00  0.00    +0.000 A 
ATOM     14  N   UNL     1      44.049   3.042   9.743  0.00  0.00    +0.000 NA
ATOM     15  C   UNL     1      44.796   3.867   8.980  0.00  0.00    +0.000 A 
ATOM     16  C   UNL     1      45.433   4.998   9.460  0.00  0.00    +0.000 A 
ENDBRANCH  10  11
ENDBRANCH   9  10
ENDBRANCH   8   9
ENDBRANCH   5   8
ENDBRANCH   1   2
BRANCH   1  19
ATOM     17  C   UNL     1      50.211   2.186  17.100  0.00  0.00    +0.000 C 
ATOM     18  O   UNL     1      49.742   1.703  16.082  0.00  0.00    +0.000 OA
ATOM     19  N   UNL     1      49.469   2.986  17.945  0.00  0.00    +0.000 N 
ATOM     20  H   UNL     1      49.873   3.329  18.806  0.00  0.00    +0.000 HD
BRANCH  17  24
ATOM     21  C   UNL     1      54.412  -0.127  18.517  0.00  0.00    +0.000 C 
ATOM     22  N   UNL     1      53.472   0.913  18.164  0.00  0.00    +0.000 N 
ATOM     23  C   UNL     1      52.178   0.720  17.758  0.00  0.00    +0.000 A 
ATOM     24  C   UNL     1      51.597   1.963  17.519  0.00  0.00    +0.000 A 
ATOM     25  C   UNL     1      52.611   2.950  17.798  0.00  0.00    +0.000 A 
ATOM     26  C   UNL     1      52.781   4.334  17.776  0.00  0.00    +0.000 A 
ATOM     27 CL   UNL     1      51.541   5.387  17.301  0.00  0.00    +0.000 Cl
ATOM     28  N   UNL     1      53.946   4.921  18.094  0.00  0.00    +0.000 NA
ATOM     29  C   UNL     1      54.953   4.115  18.452  0.00  0.00    +0.000 A 
ATOM     30  N   UNL     1      54.945   2.776  18.524  0.00  0.00    +0.000 NA
ATOM     31  C   UNL     1      53.753   2.252  18.185  0.00  0.00    +0.000 A 
ENDBRANCH  17  24
ENDBRANCH   1  19
TORSDOF 7
ENDMDL
MODEL 9
REMARK VINA RESULT:    -6.265      3.840      9.365
REMARK INTER + INTRA:         -10.193
REMARK INTER:                  -8.500
REMARK INTRA:                  -1.692
REMARK UNBOUND:                -1.364
REMARK  Name = 
REMARK  8 active torsions:
REMARK  status: ('A' for Active; 'I' for Inactive)
REMARK    1  A    between atoms: C_1  and  N_2
REMARK    2  A    between atoms: C_4  and  C_5
REMARK    3  A    between atoms: N_7  and  C_8
REMARK    4  A    between atoms: C_8  and  C_9
REMARK    5  A    between atoms: C_12  and  C_13
REMARK    6  A    between atoms: C_13  and  O_14
REMARK    7  A    between atoms: O_14  and  C_15
REMARK    8  A    between atoms: C_15  and  C_16
REMARK                            x       y       z     vdW  Elec       q    Type
REMARK                         _______ _______ _______ _____ _____    ______ ____
ROOT
ATOM      1  C   UNL     1      47.609   3.612  16.600  0.00  0.00    +0.000 C 
ENDROOT
BRANCH   1   2
ATOM      2  C   UNL     1      47.951   4.382  17.846  0.00  0.00    +0.000 A 
ATOM      3  C   UNL     1      47.021   5.287  18.380  0.00  0.00    +0.000 A 
ATOM      4  C   UNL     1      47.308   6.000  19.547  0.00  0.00    +0.000 A 
ATOM      5  C   UNL     1      48.534   5.820  20.199  0.00  0.00    +0.000 A 
ATOM      6  C   UNL     1      49.465   4.925  19.664  0.00  0.00    +0.000 A 
ATOM      7  C   UNL     1      49.178   4.211  18.501  0.00  0.00    +0.000 A 
BRANCH   5   8
ATOM      8  C   UNL     1      48.904   6.578  21.441  0.00  0.00    +0.000 C 
BRANCH   8   9
ATOM      9  O   UNL     1      48.506   7.933  21.310  0.00  0.00    +0.000 OA
BRANCH   9  10
ATOM     10  C   UNL     1      49.555   8.712  20.746  0.00  0.00    +0.000 C 
BRANCH  10  11
ATOM     11  C   UNL     1      49.202   9.091  19.336  0.00  0.00    +0.000 A 
ATOM     12  C   UNL     1      48.131   9.940  19.047  0.00  0.00    +0.000 A 
ATOM     13  C   UNL     1      47.870  10.250  17.720  0.00  0.00    +0.000 A 
ATOM     14  N   UNL     1      48.606   9.792  16.685  0.00  0.00    +0.000 NA
ATOM     15  C   UNL     1      49.646   8.989  16.990  0.00  0.00    +0.000 A 
ATOM     16  C   UNL     1      49.983   8.618  18.281  0.00  0.00    +0.000 A 
ENDBRANCH  10  11
ENDBRANCH   9  10
ENDBRANCH   8   9
ENDBRANCH   5   8
ENDBRANCH   1   2
BRANCH   1  19
ATOM     17  C   UNL     1      46.707   4.032  14.366  0.00  0.00    +0.000 C 
ATOM     18  O   UNL     1      47.376   3.127  13.893  0.00  0.00    +0.000 OA
ATOM     19  N   UNL     1      46.735   4.343  15.711  0.00  0.00    +0.000 N 
ATOM     20  H   UNL     1      46.207   5.131  16.062  0.00  0.00    +0.000 HD
BRANCH  17  24
ATOM     21  C   UNL     1      42.793   5.504  11.624  0.00  0.00    +0.000 C 
ATOM     22  N   UNL     1      44.060   5.514  12.320  0.00  0.00    +0.000 N 
ATOM     23  C   UNL     1      44.580   4.479  13.053  0.00  0.00    +0.000 A 
ATOM     24  C   UNL     1      45.818   4.869  13.557  0.00  0.00    +0.000 A 
ATOM     25  C   UNL     1      46.042   6.218  13.096  0.00  0.00    +0.000 A 
ATOM     26  C   UNL     1      46.996   7.230  13.195  0.00  0.00    +0.000 A 
ATOM     27 CL   UNL     1      48.421   7.040  14.092  0.00  0.00    +0.000 Cl
ATOM     28  N   UNL     1      46.833   8.431  12.618  0.00  0.00    +0.000 NA
ATOM     29  C   UNL     1      45.708   8.621  11.921  0.00  0.00    +0.000 A 
ATOM     30  N   UNL     1      44.703   7.752  11.733  0.00  0.00    +0.000 NA
ATOM     31  C   UNL     1      44.925   6.574  12.342  0.00  0.00    +0.000 A 
ENDBRANCH  17  24
ENDBRANCH   1  19
TORSDOF 7
ENDMDL
