MODEL 1
REMARK VINA RESULT:    -7.639      0.000      0.000
REMARK INTER + INTRA:          -9.966
REMARK INTER:                  -9.426
REMARK INTRA:                  -0.540
REMARK UNBOUND:                -0.540
REMARK  Name = 
REMARK  4 active torsions:
REMARK  status: ('A' for Active; 'I' for Inactive)
REMARK    1  A    between atoms: C_5  and  O_6
REMARK    2  A    between atoms: O_6  and  C_7
REMARK    3  A    between atoms: C_7  and  C_8
REMARK    4  A    between atoms: C_12  and  C_13
REMARK                            x       y       z     vdW  Elec       q    Type
REMARK                         _______ _______ _______ _____ _____    ______ ____
ROOT
ATOM      1  C   UNL     1      45.143   4.694  12.171  0.00  0.00    +0.000 A 
ATOM      2  C   UNL     1      45.538   3.567  12.902  0.00  0.00    +0.000 A 
ATOM      3  C   UNL     1      46.742   3.567  13.581  0.00  0.00    +0.000 A 
ATOM      4  N   UNL     1      47.598   4.603  13.571  0.00  0.00    +0.000 NA
ATOM      5  C   UNL     1      47.243   5.709  12.874  0.00  0.00    +0.000 A 
ATOM      6  C   UNL     1      46.029   5.782  12.181  0.00  0.00    +0.000 A 
ENDROOT
BRANCH   5   7
ATOM      7  C   UNL     1      48.231   6.803  12.891  0.00  0.00    +0.000 A 
ATOM      8  C   UNL     1      48.484   7.589  11.757  0.00  0.00    +0.000 A 
ATOM      9  C   UNL     1      49.421   8.622  11.798  0.00  0.00    +0.000 A 
ATOM     10  C   UNL     1      50.099   8.839  12.985  0.00  0.00    +0.000 A 
ATOM     11  N   UNL     1      49.900   8.112  14.103  0.00  0.00    +0.000 NA
ATOM     12  C   UNL     1      48.981   7.118  14.024  0.00  0.00    +0.000 A 
ENDBRANCH   5   7
BRANCH   1  13
ATOM     13  C   UNL     1      43.834   4.713  11.382  0.00  0.00    +0.000 C 
ATOM     14  C   UNL     1      42.556   5.162  12.082  0.00  0.00    +0.000 C 
ATOM     15  C   UNL     1      43.200   6.055  11.075  0.00  0.00    +0.000 C 
BRANCH  13  16
ATOM     16  O   UNL     1      43.557   3.608  10.479  0.00  0.00    +0.000 OA
BRANCH  16  21
ATOM     17  F   UNL     1      46.982   2.631   6.440  0.00  0.00    +0.000 F 
ATOM     18  C   UNL     1      46.209   2.911   7.497  0.00  0.00    +0.000 A 
ATOM     19  C   UNL     1      45.877   1.896   8.383  0.00  0.00    +0.000 A 
ATOM     20  N   UNL     1      45.037   2.081   9.433  0.00  0.00    +0.000 NA
ATOM     21  C   UNL     1      44.525   3.329   9.537  0.00  0.00    +0.000 A 
ATOM     22  C   UNL     1      44.908   4.359   8.685  0.00  0.00    +0.000 A 
ATOM     23  N   UNL     1      45.754   4.173   7.641  0.00  0.00    +0.000 NA
ENDBRANCH  16  21
ENDBRANCH  13  16
ENDBRANCH   1  13
TORSDOF 4
ENDMDL
MODEL 2
REMARK VINA RESULT:    -7.136      1.970      3.183
REMARK INTER + INTRA:          -9.345
REMARK INTER:                  -9.476
REMARK INTRA:                   0.131
REMARK UNBOUND:                -0.540
REMARK  Name = 
REMARK  4 active torsions:
REMARK  status: ('A' for Active; 'I' for Inactive)
REMARK    1  A    between atoms: C_5  and  O_6
REMARK    2  A    between atoms: O_6  and  C_7
REMARK    3  A    between atoms: C_7  and  C_8
REMARK    4  A    between atoms: C_12  and  C_13
REMARK                            x       y       z     vdW  Elec       q    Type
REMARK                         _______ _______ _______ _____ _____    ______ ____
ROOT
ATOM      1  C   UNL     1      45.497   5.200  12.470  0.00  0.00    +0.000 A 
ATOM      2  C   UNL     1      46.344   6.142  11.873  0.00  0.00    +0.000 A 
ATOM      3  C   UNL     1      47.533   6.491  12.483  0.00  0.00    +0.000 A 
ATOM      4  N   UNL     1      47.938   5.986  13.663  0.00  0.00    +0.000 NA
ATOM      5  C   UNL     1      47.140   5.072  14.264  0.00  0.00    +0.000 A 
ATOM      6  C   UNL     1      45.932   4.660  13.690  0.00  0.00    +0.000 A 
ENDROOT
BRANCH   5   7
ATOM      7  C   UNL     1      47.632   4.570  15.560  0.00  0.00    +0.000 A 
ATOM      8  C   UNL     1      47.566   3.210  15.899  0.00  0.00    +0.000 A 
ATOM      9  C   UNL     1      48.043   2.757  17.130  0.00  0.00    +0.000 A 
ATOM     10  C   UNL     1      48.570   3.689  18.007  0.00  0.00    +0.000 A 
ATOM     11  N   UNL     1      48.654   5.007  17.735  0.00  0.00    +0.000 NA
ATOM     12  C   UNL     1      48.182   5.408  16.529  0.00  0.00    +0.000 A 
ENDBRANCH   5   7
BRANCH   1  13
ATOM     13  C   UNL     1      44.159   4.818  11.837  0.00  0.00    +0.000 C 
ATOM     14  C   UNL     1      42.869   5.160  12.574  0.00  0.00    +0.000 C 
ATOM     15  C   UNL     1      43.250   5.932  11.355  0.00  0.00    +0.000 C 
BRANCH  13  16
ATOM     16  O   UNL     1      44.046   3.521  11.192  0.00  0.00    +0.000 OA
BRANCH  16  21
ATOM     17  F   UNL     1      46.367   3.043   6.357  0.00  0.00    +0.000 F 
ATOM     18  C   UNL     1      45.880   3.191   7.596  0.00  0.00    +0.000 A 
ATOM     19  C   UNL     1      45.731   2.074   8.404  0.00  0.00    +0.000 A 
ATOM     20  N   UNL     1      45.175   2.129   9.641  0.00  0.00    +0.000 NA
ATOM     21  C   UNL     1      44.750   3.357  10.018  0.00  0.00    +0.000 A 
ATOM     22  C   UNL     1      44.957   4.485   9.231  0.00  0.00    +0.000 A 
ATOM     23  N   UNL     1      45.521   4.428   7.998  0.00  0.00    +0.000 NA
ENDBRANCH  16  21
ENDBRANCH  13  16
ENDBRANCH   1  13
TORSDOF 4
ENDMDL
MODEL 3
REMARK VINA RESULT:    -6.880      3.119      6.670
REMARK INTER + INTRA:          -9.028
REMARK INTER:                  -8.855
REMARK INTRA:                  -0.173
REMARK UNBOUND:                -0.540
REMARK  Name = 
REMARK  4 active torsions:
REMARK  status: ('A' for Active; 'I' for Inactive)
REMARK    1  A    between atoms: C_5  and  O_6
REMARK    2  A    between atoms: O_6  and  C_7
REMARK    3  A    between atoms: C_7  and  C_8
REMARK    4  A    between atoms: C_12  and  C_13
REMARK                            x       y       z     vdW  Elec       q    Type
REMARK                         _______ _______ _______ _____ _____    ______ ____
ROOT
ATOM      1  C   UNL     1      45.502   6.278  11.653  0.00  0.00    +0.000 A 
ATOM      2  C   UNL     1      44.110   6.368  11.784  0.00  0.00    +0.000 A 
ATOM      3  C   UNL     1      43.288   5.552  11.031  0.00  0.00    +0.000 A 
ATOM      4  N   UNL     1      43.747   4.661  10.135  0.00  0.00    +0.000 NA
ATOM      5  C   UNL     1      45.089   4.549   9.986  0.00  0.00    +0.000 A 
ATOM      6  C   UNL     1      45.978   5.332  10.733  0.00  0.00    +0.000 A 
ENDROOT
BRANCH   5   7
ATOM      7  C   UNL     1      45.527   3.567   8.979  0.00  0.00    +0.000 A 
ATOM      8  C   UNL     1      46.022   3.961   7.727  0.00  0.00    +0.000 A 
ATOM      9  C   UNL     1      46.435   3.012   6.791  0.00  0.00    +0.000 A 
ATOM     10  C   UNL     1      46.331   1.675   7.130  0.00  0.00    +0.000 A 
ATOM     11  N   UNL     1      45.859   1.239   8.316  0.00  0.00    +0.000 NA
ATOM     12  C   UNL     1      45.468   2.191   9.199  0.00  0.00    +0.000 A 
ENDBRANCH   5   7
BRANCH   1  13
ATOM     13  C   UNL     1      46.437   7.190  12.447  0.00  0.00    +0.000 C 
ATOM     14  C   UNL     1      46.588   8.646  12.018  0.00  0.00    +0.000 C 
ATOM     15  C   UNL     1      45.823   8.316  13.257  0.00  0.00    +0.000 C 
BRANCH  13  16
ATOM     16  O   UNL     1      47.715   6.655  12.885  0.00  0.00    +0.000 OA
BRANCH  16  21
ATOM     17  F   UNL     1      47.115   3.644  17.309  0.00  0.00    +0.000 F 
ATOM     18  C   UNL     1      47.331   4.324  16.175  0.00  0.00    +0.000 A 
ATOM     19  C   UNL     1      48.198   5.406  16.188  0.00  0.00    +0.000 A 
ATOM     20  N   UNL     1      48.411   6.192  15.103  0.00  0.00    +0.000 NA
ATOM     21  C   UNL     1      47.691   5.855  14.008  0.00  0.00    +0.000 A 
ATOM     22  C   UNL     1      46.870   4.733  13.980  0.00  0.00    +0.000 A 
ATOM     23  N   UNL     1      46.665   3.944  15.064  0.00  0.00    +0.000 NA
ENDBRANCH  16  21
ENDBRANCH  13  16
ENDBRANCH   1  13
TORSDOF 4
ENDMDL
MODEL 4
REMARK VINA RESULT:    -6.670      3.855      6.762
REMARK INTER + INTRA:          -8.769
REMARK INTER:                  -8.335
REMARK INTRA:                  -0.434
REMARK UNBOUND:                -0.540
REMARK  Name = 
REMARK  4 active torsions:
REMARK  status: ('A' for Active; 'I' for Inactive)
REMARK    1  A    between atoms: C_5  and  O_6
REMARK    2  A    between atoms: O_6  and  C_7
REMARK    3  A    between atoms: C_7  and  C_8
REMARK    4  A    between atoms: C_12  and  C_13
REMARK                            x       y       z     vdW  Elec       q    Type
REMARK                         _______ _______ _______ _____ _____    ______ ____
ROOT
ATOM      1  C   UNL     1      45.086   6.520  11.588  0.00  0.00    +0.000 A 
ATOM      2  C   UNL     1      43.725   6.305  11.834  0.00  0.00    +0.000 A 
ATOM      3  C   UNL     1      43.054   5.286  11.184  0.00  0.00    +0.000 A 
ATOM      4  N   UNL     1      43.635   4.472  10.284  0.00  0.00    +0.000 NA
ATOM      5  C   UNL     1      44.952   4.655  10.026  0.00  0.00    +0.000 A 
ATOM      6  C   UNL     1      45.694   5.655  10.665  0.00  0.00    +0.000 A 
ENDROOT
BRANCH   5   7
ATOM      7  C   UNL     1      45.524   3.741   9.021  0.00  0.00    +0.000 A 
ATOM      8  C   UNL     1      46.153   4.218   7.860  0.00  0.00    +0.000 A 
ATOM      9  C   UNL     1      46.691   3.333   6.925  0.00  0.00    +0.000 A 
ATOM     10  C   UNL     1      46.576   1.977   7.171  0.00  0.00    +0.000 A 
ATOM     11  N   UNL     1      45.979   1.463   8.265  0.00  0.00    +0.000 NA
ATOM     12  C   UNL     1      45.469   2.354   9.151  0.00  0.00    +0.000 A 
ENDBRANCH   5   7
BRANCH   1  13
ATOM     13  C   UNL     1      45.848   7.659  12.265  0.00  0.00    +0.000 C 
ATOM     14  C   UNL     1      46.929   7.321  13.285  0.00  0.00    +0.000 C 
ATOM     15  C   UNL     1      47.318   7.834  11.938  0.00  0.00    +0.000 C 
BRANCH  13  16
ATOM     16  O   UNL     1      45.101   8.832  12.687  0.00  0.00    +0.000 OA
BRANCH  16  21
ATOM     17  F   UNL     1      44.764  12.458   8.720  0.00  0.00    +0.000 F 
ATOM     18  C   UNL     1      44.774  11.608   9.755  0.00  0.00    +0.000 A 
ATOM     19  C   UNL     1      45.743  11.746  10.737  0.00  0.00    +0.000 A 
ATOM     20  N   UNL     1      45.869  10.880  11.775  0.00  0.00    +0.000 NA
ATOM     21  C   UNL     1      44.990   9.852  11.765  0.00  0.00    +0.000 A 
ATOM     22  C   UNL     1      43.980   9.751  10.814  0.00  0.00    +0.000 A 
ATOM     23  N   UNL     1      43.852  10.622   9.782  0.00  0.00    +0.000 NA
ENDBRANCH  16  21
ENDBRANCH  13  16
ENDBRANCH   1  13
TORSDOF 4
ENDMDL
MODEL 5
REMARK VINA RESULT:    -6.552      2.407      2.781
REMARK INTER + INTRA:          -8.624
REMARK INTER:                  -8.194
REMARK INTRA:                  -0.430
REMARK UNBOUND:                -0.540
REMARK  Name = 
REMARK  4 active torsions:
REMARK  status: ('A' for Active; 'I' for Inactive)
REMARK    1  A    between atoms: C_5  and  O_6
REMARK    2  A    between atoms: O_6  and  C_7
REMARK    3  A    between atoms: C_7  and  C_8
REMARK    4  A    between atoms: C_12  and  C_13
REMARK                            x       y       z     vdW  Elec       q    Type
REMARK                         _______ _______ _______ _____ _____    ______ ____
ROOT
ATOM      1  C   UNL     1      45.303   5.774  12.705  0.00  0.00    +0.000 A 
ATOM      2  C   UNL     1      46.439   5.341  13.402  0.00  0.00    +0.000 A 
ATOM      3  C   UNL     1      47.436   6.240  13.730  0.00  0.00    +0.000 A 
ATOM      4  N   UNL     1      47.399   7.543  13.397  0.00  0.00    +0.000 NA
ATOM      5  C   UNL     1      46.313   7.991  12.724  0.00  0.00    +0.000 A 
ATOM      6  C   UNL     1      45.258   7.137  12.378  0.00  0.00    +0.000 A 
ENDROOT
BRANCH   5   7
ATOM      7  C   UNL     1      46.341   9.423  12.376  0.00  0.00    +0.000 A 
ATOM      8  C   UNL     1      45.187  10.107  11.964  0.00  0.00    +0.000 A 
ATOM      9  C   UNL     1      45.237  11.464  11.643  0.00  0.00    +0.000 A 
ATOM     10  C   UNL     1      46.457  12.110  11.734  0.00  0.00    +0.000 A 
ATOM     11  N   UNL     1      47.598  11.502  12.119  0.00  0.00    +0.000 NA
ATOM     12  C   UNL     1      47.509  10.184  12.423  0.00  0.00    +0.000 A 
ENDBRANCH   5   7
BRANCH   1  13
ATOM     13  C   UNL     1      44.200   4.798  12.297  0.00  0.00    +0.000 C 
ATOM     14  C   UNL     1      43.004   4.607  13.223  0.00  0.00    +0.000 C 
ATOM     15  C   UNL     1      42.837   5.362  11.947  0.00  0.00    +0.000 C 
BRANCH  13  16
ATOM     16  O   UNL     1      44.586   3.531  11.699  0.00  0.00    +0.000 OA
BRANCH  16  21
ATOM     17  F   UNL     1      45.836   3.188   6.472  0.00  0.00    +0.000 F 
ATOM     18  C   UNL     1      45.429   3.294   7.744  0.00  0.00    +0.000 A 
ATOM     19  C   UNL     1      45.660   4.474   8.434  0.00  0.00    +0.000 A 
ATOM     20  N   UNL     1      45.349   4.634   9.745  0.00  0.00    +0.000 NA
ATOM     21  C   UNL     1      44.818   3.541  10.339  0.00  0.00    +0.000 A 
ATOM     22  C   UNL     1      44.530   2.380   9.630  0.00  0.00    +0.000 A 
ATOM     23  N   UNL     1      44.835   2.226   8.317  0.00  0.00    +0.000 NA
ENDBRANCH  16  21
ENDBRANCH  13  16
ENDBRANCH   1  13
TORSDOF 4
ENDMDL
MODEL 6
REMARK VINA RESULT:    -6.538      1.737      2.544
REMARK INTER + INTRA:          -8.606
REMARK INTER:                  -8.209
REMARK INTRA:                  -0.397
REMARK UNBOUND:                -0.540
REMARK  Name = 
REMARK  4 active torsions:
REMARK  status: ('A' for Active; 'I' for Inactive)
REMARK    1  A    between atoms: C_5  and  O_6
REMARK    2  A    between atoms: O_6  and  C_7
REMARK    3  A    between atoms: C_7  and  C_8
REMARK    4  A    between atoms: C_12  and  C_13
REMARK                            x       y       z     vdW  Elec       q    Type
REMARK                         _______ _______ _______ _____ _____    ______ ____
ROOT
ATOM      1  C   UNL     1      45.216   6.302  12.391  0.00  0.00    +0.000 A 
ATOM      2  C   UNL     1      45.049   7.602  11.899  0.00  0.00    +0.000 A 
ATOM      3  C   UNL     1      45.962   8.589  12.221  0.00  0.00    +0.000 A 
ATOM      4  N   UNL     1      47.024   8.383  13.020  0.00  0.00    +0.000 NA
ATOM      5  C   UNL     1      47.213   7.135  13.511  0.00  0.00    +0.000 A 
ATOM      6  C   UNL     1      46.337   6.086  13.207  0.00  0.00    +0.000 A 
ENDROOT
BRANCH   5   7
ATOM      7  C   UNL     1      48.385   6.980  14.390  0.00  0.00    +0.000 A 
ATOM      8  C   UNL     1      49.562   7.719  14.192  0.00  0.00    +0.000 A 
ATOM      9  C   UNL     1      50.658   7.558  15.041  0.00  0.00    +0.000 A 
ATOM     10  C   UNL     1      50.553   6.643  16.072  0.00  0.00    +0.000 A 
ATOM     11  N   UNL     1      49.450   5.903  16.307  0.00  0.00    +0.000 NA
ATOM     12  C   UNL     1      48.406   6.089  15.462  0.00  0.00    +0.000 A 
ENDBRANCH   5   7
BRANCH   1  13
ATOM     13  C   UNL     1      44.205   5.198  12.081  0.00  0.00    +0.000 C 
ATOM     14  C   UNL     1      43.008   5.011  13.006  0.00  0.00    +0.000 C 
ATOM     15  C   UNL     1      42.809   5.603  11.650  0.00  0.00    +0.000 C 
BRANCH  13  16
ATOM     16  O   UNL     1      44.707   3.909  11.634  0.00  0.00    +0.000 OA
BRANCH  16  21
ATOM     17  F   UNL     1      45.977   3.037   6.474  0.00  0.00    +0.000 F 
ATOM     18  C   UNL     1      45.565   3.270   7.727  0.00  0.00    +0.000 A 
ATOM     19  C   UNL     1      45.770   4.522   8.287  0.00  0.00    +0.000 A 
ATOM     20  N   UNL     1      45.453   4.813   9.574  0.00  0.00    +0.000 NA
ATOM     21  C   UNL     1      44.943   3.779  10.281  0.00  0.00    +0.000 A 
ATOM     22  C   UNL     1      44.681   2.544   9.699  0.00  0.00    +0.000 A 
ATOM     23  N   UNL     1      44.991   2.257   8.410  0.00  0.00    +0.000 NA
ENDBRANCH  16  21
ENDBRANCH  13  16
ENDBRANCH   1  13
TORSDOF 4
ENDMDL
MODEL 7
REMARK VINA RESULT:    -6.407      3.609      7.177
REMARK INTER + INTRA:          -8.445
REMARK INTER:                  -7.931
REMARK INTRA:                  -0.514
REMARK UNBOUND:                -0.540
REMARK  Name = 
REMARK  4 active torsions:
REMARK  status: ('A' for Active; 'I' for Inactive)
REMARK    1  A    between atoms: C_5  and  O_6
REMARK    2  A    between atoms: O_6  and  C_7
REMARK    3  A    between atoms: C_7  and  C_8
REMARK    4  A    between atoms: C_12  and  C_13
REMARK                            x       y       z     vdW  Elec       q    Type
REMARK                         _______ _______ _______ _____ _____    ______ ____
ROOT
ATOM      1  C   UNL     1      47.048   7.404  12.574  0.00  0.00    +0.000 A 
ATOM      2  C   UNL     1      46.002   8.322  12.730  0.00  0.00    +0.000 A 
ATOM      3  C   UNL     1      44.777   8.085  12.135  0.00  0.00    +0.000 A 
ATOM      4  N   UNL     1      44.518   7.007  11.375  0.00  0.00    +0.000 NA
ATOM      5  C   UNL     1      45.510   6.101  11.206  0.00  0.00    +0.000 A 
ATOM      6  C   UNL     1      46.768   6.270  11.797  0.00  0.00    +0.000 A 
ENDROOT
BRANCH   5   7
ATOM      7  C   UNL     1      45.167   4.950  10.351  0.00  0.00    +0.000 A 
ATOM      8  C   UNL     1      45.622   4.852   9.027  0.00  0.00    +0.000 A 
ATOM      9  C   UNL     1      45.288   3.751   8.237  0.00  0.00    +0.000 A 
ATOM     10  C   UNL     1      44.489   2.769   8.794  0.00  0.00    +0.000 A 
ATOM     11  N   UNL     1      44.020   2.813  10.058  0.00  0.00    +0.000 NA
ATOM     12  C   UNL     1      44.367   3.898  10.794  0.00  0.00    +0.000 A 
ENDBRANCH   5   7
BRANCH   1  13
ATOM     13  C   UNL     1      48.425   7.655  13.190  0.00  0.00    +0.000 C 
ATOM     14  C   UNL     1      49.410   8.556  12.454  0.00  0.00    +0.000 C 
ATOM     15  C   UNL     1      48.742   9.049  13.695  0.00  0.00    +0.000 C 
BRANCH  13  16
ATOM     16  O   UNL     1      49.121   6.535  13.802  0.00  0.00    +0.000 OA
BRANCH  16  21
ATOM     17  F   UNL     1      47.474   4.485  18.502  0.00  0.00    +0.000 F 
ATOM     18  C   UNL     1      47.808   5.062  17.340  0.00  0.00    +0.000 A 
ATOM     19  C   UNL     1      47.402   4.477  16.150  0.00  0.00    +0.000 A 
ATOM     20  N   UNL     1      47.763   4.956  14.933  0.00  0.00    +0.000 NA
ATOM     21  C   UNL     1      48.574   6.037  14.967  0.00  0.00    +0.000 A 
ATOM     22  C   UNL     1      48.929   6.659  16.159  0.00  0.00    +0.000 A 
ATOM     23  N   UNL     1      48.560   6.183  17.375  0.00  0.00    +0.000 NA
ENDBRANCH  16  21
ENDBRANCH  13  16
ENDBRANCH   1  13
TORSDOF 4
ENDMDL
MODEL 8
REMARK VINA RESULT:    -5.582      4.780      7.937
REMARK INTER + INTRA:          -7.427
REMARK INTER:                  -7.215
REMARK INTRA:                  -0.212
REMARK UNBOUND:                -0.540
REMARK  Name = 
REMARK  4 active torsions:
REMARK  status: ('A' for Active; 'I' for Inactive)
REMARK    1  A    between atoms: C_5  and  O_6
REMARK    2  A    between atoms: O_6  and  C_7
REMARK    3  A    between atoms: C_7  and  C_8
REMARK    4  A    between atoms: C_12  and  C_13
REMARK                            x       y       z     vdW  Elec       q    Type
REMARK                         _______ _______ _______ _____ _____    ______ ____
ROOT
ATOM      1  C   UNL     1      48.798   6.298  15.720  0.00  0.00    +0.000 A 
ATOM      2  C   UNL     1      49.568   7.196  14.970  0.00  0.00    +0.000 A 
ATOM      3  C   UNL     1      49.303   7.383  13.627  0.00  0.00    +0.000 A 
ATOM      4  N   UNL     1      48.337   6.724  12.962  0.00  0.00    +0.000 NA
ATOM      5  C   UNL     1      47.575   5.850  13.661  0.00  0.00    +0.000 A 
ATOM      6  C   UNL     1      47.777   5.628  15.029  0.00  0.00    +0.000 A 
ENDROOT
BRANCH   5   7
ATOM      7  C   UNL     1      46.545   5.150  12.872  0.00  0.00    +0.000 A 
ATOM      8  C   UNL     1      45.969   5.727  11.730  0.00  0.00    +0.000 A 
ATOM      9  C   UNL     1      44.998   5.042  10.997  0.00  0.00    +0.000 A 
ATOM     10  C   UNL     1      44.615   3.788  11.436  0.00  0.00    +0.000 A 
ATOM     11  N   UNL     1      45.131   3.188  12.528  0.00  0.00    +0.000 NA
ATOM     12  C   UNL     1      46.072   3.883  13.213  0.00  0.00    +0.000 A 
ENDBRANCH   5   7
BRANCH   1  13
ATOM     13  C   UNL     1      49.088   6.043  17.199  0.00  0.00    +0.000 C 
ATOM     14  C   UNL     1      48.459   6.959  18.243  0.00  0.00    +0.000 C 
ATOM     15  C   UNL     1      47.951   5.564  18.081  0.00  0.00    +0.000 C 
BRANCH  13  16
ATOM     16  O   UNL     1      50.444   5.689  17.585  0.00  0.00    +0.000 OA
BRANCH  16  21
ATOM     17  F   UNL     1      52.033   0.548  17.367  0.00  0.00    +0.000 F 
ATOM     18  C   UNL     1      51.605   1.809  17.516  0.00  0.00    +0.000 A 
ATOM     19  C   UNL     1      50.379   2.177  16.982  0.00  0.00    +0.000 A 
ATOM     20  N   UNL     1      49.910   3.449  17.022  0.00  0.00    +0.000 NA
ATOM     21  C   UNL     1      50.744   4.343  17.603  0.00  0.00    +0.000 A 
ATOM     22  C   UNL     1      51.944   3.960  18.192  0.00  0.00    +0.000 A 
ATOM     23  N   UNL     1      52.407   2.685  18.157  0.00  0.00    +0.000 NA
ENDBRANCH  16  21
ENDBRANCH  13  16
ENDBRANCH   1  13
TORSDOF 4
ENDMDL
MODEL 9
REMARK VINA RESULT:    -5.440      4.164      7.728
REMARK INTER + INTRA:          -7.252
REMARK INTER:                  -6.920
REMARK INTRA:                  -0.332
REMARK UNBOUND:                -0.540
REMARK  Name = 
REMARK  4 active torsions:
REMARK  status: ('A' for Active; 'I' for Inactive)
REMARK    1  A    between atoms: C_5  and  O_6
REMARK    2  A    between atoms: O_6  and  C_7
REMARK    3  A    between atoms: C_7  and  C_8
REMARK    4  A    between atoms: C_12  and  C_13
REMARK                            x       y       z     vdW  Elec       q    Type
REMARK                         _______ _______ _______ _____ _____    ______ ____
ROOT
ATOM      1  C   UNL     1      48.511   7.221  13.872  0.00  0.00    +0.000 A 
ATOM      2  C   UNL     1      49.106   7.764  12.726  0.00  0.00    +0.000 A 
ATOM      3  C   UNL     1      48.509   7.598  11.490  0.00  0.00    +0.000 A 
ATOM      4  N   UNL     1      47.369   6.910  11.304  0.00  0.00    +0.000 NA
ATOM      5  C   UNL     1      46.770   6.374  12.394  0.00  0.00    +0.000 A 
ATOM      6  C   UNL     1      47.311   6.522  13.677  0.00  0.00    +0.000 A 
ENDROOT
BRANCH   5   7
ATOM      7  C   UNL     1      45.533   5.621  12.120  0.00  0.00    +0.000 A 
ATOM      8  C   UNL     1      44.724   5.125  13.155  0.00  0.00    +0.000 A 
ATOM      9  C   UNL     1      43.555   4.418  12.871  0.00  0.00    +0.000 A 
ATOM     10  C   UNL     1      43.225   4.212  11.543  0.00  0.00    +0.000 A 
ATOM     11  N   UNL     1      43.965   4.662  10.510  0.00  0.00    +0.000 NA
ATOM     12  C   UNL     1      45.094   5.345  10.826  0.00  0.00    +0.000 A 
ENDBRANCH   5   7
BRANCH   1  13
ATOM     13  C   UNL     1      49.164   7.358  15.248  0.00  0.00    +0.000 C 
ATOM     14  C   UNL     1      49.754   8.703  15.654  0.00  0.00    +0.000 C 
ATOM     15  C   UNL     1      48.483   8.234  16.281  0.00  0.00    +0.000 C 
BRANCH  13  16
ATOM     16  O   UNL     1      50.003   6.271  15.725  0.00  0.00    +0.000 OA
BRANCH  16  21
ATOM     17  F   UNL     1      48.230   2.678  19.323  0.00  0.00    +0.000 F 
ATOM     18  C   UNL     1      48.609   3.640  18.471  0.00  0.00    +0.000 A 
ATOM     19  C   UNL     1      48.045   3.687  17.206  0.00  0.00    +0.000 A 
ATOM     20  N   UNL     1      48.430   4.580  16.260  0.00  0.00    +0.000 NA
ATOM     21  C   UNL     1      49.429   5.410  16.637  0.00  0.00    +0.000 A 
ATOM     22  C   UNL     1      49.950   5.402  17.927  0.00  0.00    +0.000 A 
ATOM     23  N   UNL     1      49.558   4.512  18.873  0.00  0.00    +0.000 NA
ENDBRANCH  16  21
ENDBRANCH  13  16
ENDBRANCH   1  13
TORSDOF 4
ENDMDL
