MODEL 1
REMARK VINA RESULT:    -8.675      0.000      0.000
REMARK INTER + INTRA:         -13.714
REMARK INTER:                 -12.732
REMARK INTRA:                  -0.981
REMARK UNBOUND:                -0.981
REMARK  Name = 
REMARK  9 active torsions:
REMARK  status: ('A' for Active; 'I' for Inactive)
REMARK    1  A    between atoms: C_1  and  C_2
REMARK    2  A    between atoms: C_2  and  N_3
REMARK    3  A    between atoms: C_2  and  C_20
REMARK    4  A    between atoms: N_3  and  C_4
REMARK    5  A    between atoms: C_4  and  C_5
REMARK    6  A    between atoms: C_9  and  C_10
REMARK    7  A    between atoms: C_10  and  N_11
REMARK    8  A    between atoms: N_11  and  C_12
REMARK    9  A    between atoms: C_12  and  C_13
REMARK                            x       y       z     vdW  Elec       q    Type
REMARK                         _______ _______ _______ _____ _____    ______ ____
ROOT
ATOM      1  C   UNL     1      47.185   3.899  15.081  0.00  0.00    +0.000 C 
ENDROOT
BRANCH   1   2
ATOM      2  C   UNL     1      46.676   4.637  13.857  0.00  0.00    +0.000 A 
ATOM      3  C   UNL     1      47.356   5.746  13.363  0.00  0.00    +0.000 A 
ATOM      4  C   UNL     1      46.874   6.379  12.225  0.00  0.00    +0.000 A 
ATOM      5  C   UNL     1      45.736   5.884  11.599  0.00  0.00    +0.000 A 
ATOM      6  C   UNL     1      45.113   4.759  12.132  0.00  0.00    +0.000 A 
ATOM      7  N   UNL     1      45.572   4.134  13.246  0.00  0.00    +0.000 NA
BRANCH   6   8
ATOM      8  C   UNL     1      43.865   4.192  11.483  0.00  0.00    +0.000 C 
BRANCH   8   9
ATOM      9  N   UNL     1      44.007   3.888  10.051  0.00  0.00    +0.000 NA
ATOM     10  H   UNL     1      44.722   4.525   9.688  0.00  0.00    +0.000 HD
BRANCH   9  11
ATOM     11  C   UNL     1      44.505   2.522   9.825  0.00  0.00    +0.000 C 
BRANCH  11  12
ATOM     12  C   UNL     1      45.471   2.457   8.656  0.00  0.00    +0.000 A 
ATOM     13  C   UNL     1      45.738   3.595   7.897  0.00  0.00    +0.000 A 
ATOM     14  C   UNL     1      46.662   3.512   6.860  0.00  0.00    +0.000 A 
ATOM     15  C   UNL     1      47.287   2.299   6.599  0.00  0.00    +0.000 A 
ATOM     16  C   UNL     1      46.955   1.212   7.389  0.00  0.00    +0.000 A 
ATOM     17  N   UNL     1      46.066   1.263   8.404  0.00  0.00    +0.000 NA
ENDBRANCH  11  12
ENDBRANCH   9  11
ENDBRANCH   8   9
ENDBRANCH   6   8
ENDBRANCH   1   2
BRANCH   1  18
ATOM     18  N   UNL     1      48.190   4.652  15.850  0.00  0.00    +0.000 NA
ATOM     19  H   UNL     1      49.117   4.407  15.515  0.00  0.00    +0.000 HD
BRANCH  18  21
ATOM     20  C   UNL     1      47.340   5.408  18.078  0.00  0.00    +0.000 C 
ATOM     21  C   UNL     1      48.128   4.354  17.288  0.00  0.00    +0.000 C 
BRANCH  21  22
ATOM     22  C   UNL     1      49.560   4.277  17.783  0.00  0.00    +0.000 A 
ATOM     23  C   UNL     1      50.183   5.278  18.516  0.00  0.00    +0.000 A 
ATOM     24  S   UNL     1      51.771   4.883  18.997  0.00  0.00    +0.000 S 
ATOM     25  C   UNL     1      51.692   3.372  18.217  0.00  0.00    +0.000 A 
ATOM     26  N   UNL     1      52.748   2.514  18.246  0.00  0.00    +0.000 NA
ATOM     27  C   UNL     1      52.549   1.408  17.608  0.00  0.00    +0.000 A 
ATOM     28  N   UNL     1      51.394   1.083  16.944  0.00  0.00    +0.000 N 
ATOM     29  C   UNL     1      50.304   1.920  16.879  0.00  0.00    +0.000 A 
ATOM     30  O   UNL     1      49.296   1.609  16.254  0.00  0.00    +0.000 OA
ATOM     31  C   UNL     1      50.474   3.172  17.595  0.00  0.00    +0.000 A 
ATOM     32  H   UNL     1      51.309   0.204  16.453  0.00  0.00    +0.000 HD
ENDBRANCH  21  22
ENDBRANCH  18  21
ENDBRANCH   1  18
TORSDOF 8
ENDMDL
MODEL 2
REMARK VINA RESULT:    -8.012      2.563      3.167
REMARK INTER + INTRA:         -12.741
REMARK INTER:                 -11.639
REMARK INTRA:                  -1.103
REMARK UNBOUND:                -0.981
REMARK  Name = 
REMARK  9 active torsions:
REMARK  status: ('A' for Active; 'I' for Inactive)
REMARK    1  A    between atoms: C_1  and  C_2
REMARK    2  A    between atoms: C_2  and  N_3
REMARK    3  A    between atoms: C_2  and  C_20
REMARK    4  A    between atoms: N_3  and  C_4
REMARK    5  A    between atoms: C_4  and  C_5
REMARK    6  A    between atoms: C_9  and  C_10
REMARK    7  A    between atoms: C_10  and  N_11
REMARK    8  A    between atoms: N_11  and  C_12
REMARK    9  A    between atoms: C_12  and  C_13
REMARK                            x       y       z     vdW  Elec       q    Type
REMARK                         _______ _______ _______ _____ _____    ______ ____
ROOT
ATOM      1  C   UNL     1      46.907   4.212  14.719  0.00  0.00    +0.000 C 
ENDROOT
BRANCH   1   2
ATOM      2  C   UNL     1      46.399   4.804  13.417  0.00  0.00    +0.000 A 
ATOM      3  C   UNL     1      47.084   5.846  12.798  0.00  0.00    +0.000 A 
ATOM      4  C   UNL     1      46.605   6.344  11.594  0.00  0.00    +0.000 A 
ATOM      5  C   UNL     1      45.464   5.785  11.030  0.00  0.00    +0.000 A 
ATOM      6  C   UNL     1      44.836   4.731  11.690  0.00  0.00    +0.000 A 
ATOM      7  N   UNL     1      45.293   4.238  12.869  0.00  0.00    +0.000 NA
BRANCH   6   8
ATOM      8  C   UNL     1      43.586   4.098  11.111  0.00  0.00    +0.000 C 
BRANCH   8   9
ATOM      9  N   UNL     1      43.740   3.588   9.740  0.00  0.00    +0.000 NA
ATOM     10  H   UNL     1      44.275   4.293   9.225  0.00  0.00    +0.000 HD
BRANCH   9  11
ATOM     11  C   UNL     1      44.529   2.347   9.700  0.00  0.00    +0.000 C 
BRANCH  11  12
ATOM     12  C   UNL     1      45.527   2.347   8.555  0.00  0.00    +0.000 A 
ATOM     13  C   UNL     1      45.754   3.507   7.817  0.00  0.00    +0.000 A 
ATOM     14  C   UNL     1      46.706   3.485   6.802  0.00  0.00    +0.000 A 
ATOM     15  C   UNL     1      47.398   2.308   6.543  0.00  0.00    +0.000 A 
ATOM     16  C   UNL     1      47.102   1.195   7.311  0.00  0.00    +0.000 A 
ATOM     17  N   UNL     1      46.187   1.187   8.304  0.00  0.00    +0.000 NA
ENDBRANCH  11  12
ENDBRANCH   9  11
ENDBRANCH   8   9
ENDBRANCH   6   8
ENDBRANCH   1   2
BRANCH   1  18
ATOM     18  N   UNL     1      47.739   5.137  15.505  0.00  0.00    +0.000 NA
ATOM     19  H   UNL     1      48.568   5.376  14.969  0.00  0.00    +0.000 HD
BRANCH  18  21
ATOM     20  C   UNL     1      47.227   3.444  17.276  0.00  0.00    +0.000 C 
ATOM     21  C   UNL     1      48.172   4.548  16.781  0.00  0.00    +0.000 C 
BRANCH  21  22
ATOM     22  C   UNL     1      48.242   5.681  17.787  0.00  0.00    +0.000 A 
ATOM     23  C   UNL     1      47.365   5.827  18.854  0.00  0.00    +0.000 A 
ATOM     24  S   UNL     1      47.731   7.155  19.859  0.00  0.00    +0.000 S 
ATOM     25  C   UNL     1      49.056   7.600  18.887  0.00  0.00    +0.000 A 
ATOM     26  N   UNL     1      49.821   8.680  19.200  0.00  0.00    +0.000 NA
ATOM     27  C   UNL     1      50.788   8.902  18.372  0.00  0.00    +0.000 A 
ATOM     28  N   UNL     1      51.057   8.144  17.260  0.00  0.00    +0.000 N 
ATOM     29  C   UNL     1      50.307   7.050  16.898  0.00  0.00    +0.000 A 
ATOM     30  O   UNL     1      50.560   6.409  15.883  0.00  0.00    +0.000 OA
ATOM     31  C   UNL     1      49.216   6.751  17.808  0.00  0.00    +0.000 A 
ATOM     32  H   UNL     1      51.824   8.381  16.645  0.00  0.00    +0.000 HD
ENDBRANCH  21  22
ENDBRANCH  18  21
ENDBRANCH   1  18
TORSDOF 8
ENDMDL
MODEL 3
REMARK VINA RESULT:    -7.925      2.293      3.034
REMARK INTER + INTRA:         -12.613
REMARK INTER:                 -11.538
REMARK INTRA:                  -1.074
REMARK UNBOUND:                -0.981
REMARK  Name = 
REMARK  9 active torsions:
REMARK  status: ('A' for Active; 'I' for Inactive)
REMARK    1  A    between atoms: C_1  and  C_2
REMARK    2  A    between atoms: C_2  and  N_3
REMARK    3  A    between atoms: C_2  and  C_20
REMARK    4  A    between atoms: N_3  and  C_4
REMARK    5  A    between atoms: C_4  and  C_5
REMARK    6  A    between atoms: C_9  and  C_10
REMARK    7  A    between atoms: C_10  and  N_11
REMARK    8  A    between atoms: N_11  and  C_12
REMARK    9  A    between atoms: C_12  and  C_13
REMARK                            x       y       z     vdW  Elec       q    Type
REMARK                         _______ _______ _______ _____ _____    ______ ____
ROOT
ATOM      1  C   UNL     1      49.015   7.456  12.807  0.00  0.00    +0.000 C 
ENDROOT
BRANCH   1   2
ATOM      2  C   UNL     1      47.551   7.569  12.425  0.00  0.00    +0.000 A 
ATOM      3  C   UNL     1      46.836   8.732  12.696  0.00  0.00    +0.000 A 
ATOM      4  C   UNL     1      45.505   8.809  12.307  0.00  0.00    +0.000 A 
ATOM      5  C   UNL     1      44.924   7.733  11.647  0.00  0.00    +0.000 A 
ATOM      6  C   UNL     1      45.699   6.606  11.389  0.00  0.00    +0.000 A 
ATOM      7  N   UNL     1      47.000   6.517  11.767  0.00  0.00    +0.000 NA
BRANCH   6   8
ATOM      8  C   UNL     1      45.100   5.409  10.677  0.00  0.00    +0.000 C 
BRANCH   8   9
ATOM      9  N   UNL     1      45.514   5.264   9.273  0.00  0.00    +0.000 NA
ATOM     10  H   UNL     1      46.494   4.968   9.288  0.00  0.00    +0.000 HD
BRANCH   9  11
ATOM     11  C   UNL     1      44.762   4.203   8.583  0.00  0.00    +0.000 C 
BRANCH  11  12
ATOM     12  C   UNL     1      45.684   3.189   7.931  0.00  0.00    +0.000 A 
ATOM     13  C   UNL     1      46.456   3.545   6.826  0.00  0.00    +0.000 A 
ATOM     14  C   UNL     1      47.323   2.604   6.278  0.00  0.00    +0.000 A 
ATOM     15  C   UNL     1      47.391   1.334   6.837  0.00  0.00    +0.000 A 
ATOM     16  C   UNL     1      46.580   1.055   7.923  0.00  0.00    +0.000 A 
ATOM     17  N   UNL     1      45.733   1.947   8.478  0.00  0.00    +0.000 NA
ENDBRANCH  11  12
ENDBRANCH   9  11
ENDBRANCH   8   9
ENDBRANCH   6   8
ENDBRANCH   1   2
BRANCH   1  18
ATOM     18  N   UNL     1      49.253   6.621  13.996  0.00  0.00    +0.000 NA
ATOM     19  H   UNL     1      48.709   5.767  13.918  0.00  0.00    +0.000 HD
BRANCH  18  21
ATOM     20  C   UNL     1      49.607   8.628  15.447  0.00  0.00    +0.000 C 
ATOM     21  C   UNL     1      48.866   7.301  15.241  0.00  0.00    +0.000 C 
BRANCH  21  22
ATOM     22  C   UNL     1      49.163   6.341  16.377  0.00  0.00    +0.000 A 
ATOM     23  C   UNL     1      50.157   6.544  17.325  0.00  0.00    +0.000 A 
ATOM     24  S   UNL     1      50.213   5.333  18.525  0.00  0.00    +0.000 S 
ATOM     25  C   UNL     1      48.930   4.478  17.802  0.00  0.00    +0.000 A 
ATOM     26  N   UNL     1      48.469   3.319  18.344  0.00  0.00    +0.000 NA
ATOM     27  C   UNL     1      47.498   2.776  17.687  0.00  0.00    +0.000 A 
ATOM     28  N   UNL     1      46.947   3.286  16.539  0.00  0.00    +0.000 N 
ATOM     29  C   UNL     1      47.384   4.448  15.948  0.00  0.00    +0.000 A 
ATOM     30  O   UNL     1      46.887   4.862  14.907  0.00  0.00    +0.000 OA
ATOM     31  C   UNL     1      48.467   5.104  16.659  0.00  0.00    +0.000 A 
ATOM     32  H   UNL     1      46.195   2.803  16.066  0.00  0.00    +0.000 HD
ENDBRANCH  21  22
ENDBRANCH  18  21
ENDBRANCH   1  18
TORSDOF 8
ENDMDL
MODEL 4
REMARK VINA RESULT:    -7.165      2.887      3.801
REMARK INTER + INTRA:         -11.497
REMARK INTER:                 -10.491
REMARK INTRA:                  -1.006
REMARK UNBOUND:                -0.981
REMARK  Name = 
REMARK  9 active torsions:
REMARK  status: ('A' for Active; 'I' for Inactive)
REMARK    1  A    between atoms: C_1  and  C_2
REMARK    2  A    between atoms: C_2  and  N_3
REMARK    3  A    between atoms: C_2  and  C_20
REMARK    4  A    between atoms: N_3  and  C_4
REMARK    5  A    between atoms: C_4  and  C_5
REMARK    6  A    between atoms: C_9  and  C_10
REMARK    7  A    between atoms: C_10  and  N_11
REMARK    8  A    between atoms: N_11  and  C_12
REMARK    9  A    between atoms: C_12  and  C_13
REMARK                            x       y       z     vdW  Elec       q    Type
REMARK                         _______ _______ _______ _____ _____    ______ ____
ROOT
ATOM      1  C   UNL     1      47.678   7.234  11.759  0.00  0.00    +0.000 C 
ENDROOT
BRANCH   1   2
ATOM      2  C   UNL     1      46.628   6.199  12.119  0.00  0.00    +0.000 A 
ATOM      3  C   UNL     1      46.686   5.525  13.335  0.00  0.00    +0.000 A 
ATOM      4  C   UNL     1      45.692   4.605  13.642  0.00  0.00    +0.000 A 
ATOM      5  C   UNL     1      44.659   4.389  12.737  0.00  0.00    +0.000 A 
ATOM      6  C   UNL     1      44.648   5.110  11.546  0.00  0.00    +0.000 A 
ATOM      7  N   UNL     1      45.616   6.010  11.234  0.00  0.00    +0.000 NA
BRANCH   6   8
ATOM      8  C   UNL     1      43.543   4.900  10.530  0.00  0.00    +0.000 C 
BRANCH   8   9
ATOM      9  N   UNL     1      43.991   4.330   9.251  0.00  0.00    +0.000 NA
ATOM     10  H   UNL     1      44.830   4.851   8.978  0.00  0.00    +0.000 HD
BRANCH   9  11
ATOM     11  C   UNL     1      44.393   2.921   9.385  0.00  0.00    +0.000 C 
BRANCH  11  12
ATOM     12  C   UNL     1      45.474   2.543   8.389  0.00  0.00    +0.000 A 
ATOM     13  C   UNL     1      45.958   3.484   7.482  0.00  0.00    +0.000 A 
ATOM     14  C   UNL     1      46.980   3.117   6.611  0.00  0.00    +0.000 A 
ATOM     15  C   UNL     1      47.486   1.824   6.661  0.00  0.00    +0.000 A 
ATOM     16  C   UNL     1      46.941   0.945   7.581  0.00  0.00    +0.000 A 
ATOM     17  N   UNL     1      45.952   1.273   8.440  0.00  0.00    +0.000 NA
ENDBRANCH  11  12
ENDBRANCH   9  11
ENDBRANCH   8   9
ENDBRANCH   6   8
ENDBRANCH   1   2
BRANCH   1  18
ATOM     18  N   UNL     1      48.903   7.140  12.569  0.00  0.00    +0.000 NA
ATOM     19  H   UNL     1      48.845   6.322  13.168  0.00  0.00    +0.000 HD
BRANCH  18  21
ATOM     20  C   UNL     1      48.942   9.641  12.654  0.00  0.00    +0.000 C 
ATOM     21  C   UNL     1      49.098   8.321  13.422  0.00  0.00    +0.000 C 
BRANCH  21  22
ATOM     22  C   UNL     1      50.489   8.211  14.016  0.00  0.00    +0.000 A 
ATOM     23  C   UNL     1      51.593   8.908  13.542  0.00  0.00    +0.000 A 
ATOM     24  S   UNL     1      53.011   8.639  14.452  0.00  0.00    +0.000 S 
ATOM     25  C   UNL     1      52.207   7.558  15.492  0.00  0.00    +0.000 A 
ATOM     26  N   UNL     1      52.865   6.957  16.520  0.00  0.00    +0.000 NA
ATOM     27  C   UNL     1      52.131   6.158  17.223  0.00  0.00    +0.000 A 
ATOM     28  N   UNL     1      50.803   5.905  16.992  0.00  0.00    +0.000 N 
ATOM     29  C   UNL     1      50.098   6.481  15.961  0.00  0.00    +0.000 A 
ATOM     30  O   UNL     1      48.917   6.213  15.767  0.00  0.00    +0.000 OA
ATOM     31  C   UNL     1      50.876   7.400  15.150  0.00  0.00    +0.000 A 
ATOM     32  H   UNL     1      50.290   5.257  17.574  0.00  0.00    +0.000 HD
ENDBRANCH  21  22
ENDBRANCH  18  21
ENDBRANCH   1  18
TORSDOF 8
ENDMDL
MODEL 5
REMARK VINA RESULT:    -7.161      2.282      2.856
REMARK INTER + INTRA:         -11.491
REMARK INTER:                 -10.635
REMARK INTRA:                  -0.856
REMARK UNBOUND:                -0.981
REMARK  Name = 
REMARK  9 active torsions:
REMARK  status: ('A' for Active; 'I' for Inactive)
REMARK    1  A    between atoms: C_1  and  C_2
REMARK    2  A    between atoms: C_2  and  N_3
REMARK    3  A    between atoms: C_2  and  C_20
REMARK    4  A    between atoms: N_3  and  C_4
REMARK    5  A    between atoms: C_4  and  C_5
REMARK    6  A    between atoms: C_9  and  C_10
REMARK    7  A    between atoms: C_10  and  N_11
REMARK    8  A    between atoms: N_11  and  C_12
REMARK    9  A    between atoms: C_12  and  C_13
REMARK                            x       y       z     vdW  Elec       q    Type
REMARK                         _______ _______ _______ _____ _____    ______ ____
ROOT
ATOM      1  C   UNL     1      46.487   3.766  13.904  0.00  0.00    +0.000 C 
ENDROOT
BRANCH   1   2
ATOM      2  C   UNL     1      45.378   4.321  13.030  0.00  0.00    +0.000 A 
ATOM      3  C   UNL     1      44.129   4.613  13.570  0.00  0.00    +0.000 A 
ATOM      4  C   UNL     1      43.147   5.145  12.745  0.00  0.00    +0.000 A 
ATOM      5  C   UNL     1      43.437   5.387  11.408  0.00  0.00    +0.000 A 
ATOM      6  C   UNL     1      44.713   5.091  10.933  0.00  0.00    +0.000 A 
ATOM      7  N   UNL     1      45.680   4.567  11.729  0.00  0.00    +0.000 NA
BRANCH   6   8
ATOM      8  C   UNL     1      45.067   5.334   9.479  0.00  0.00    +0.000 C 
BRANCH   8   9
ATOM      9  N   UNL     1      44.296   4.528   8.521  0.00  0.00    +0.000 NA
ATOM     10  H   UNL     1      44.635   4.782   7.588  0.00  0.00    +0.000 HD
BRANCH   9  11
ATOM     11  C   UNL     1      44.546   3.088   8.684  0.00  0.00    +0.000 C 
BRANCH  11  12
ATOM     12  C   UNL     1      45.677   2.604   7.794  0.00  0.00    +0.000 A 
ATOM     13  C   UNL     1      46.050   3.336   6.668  0.00  0.00    +0.000 A 
ATOM     14  C   UNL     1      47.119   2.888   5.897  0.00  0.00    +0.000 A 
ATOM     15  C   UNL     1      47.780   1.722   6.261  0.00  0.00    +0.000 A 
ATOM     16  C   UNL     1      47.337   1.045   7.384  0.00  0.00    +0.000 A 
ATOM     17  N   UNL     1      46.307   1.457   8.153  0.00  0.00    +0.000 NA
ENDBRANCH  11  12
ENDBRANCH   9  11
ENDBRANCH   8   9
ENDBRANCH   6   8
ENDBRANCH   1   2
BRANCH   1  18
ATOM     18  N   UNL     1      47.700   4.599  13.923  0.00  0.00    +0.000 NA
ATOM     19  H   UNL     1      48.431   4.110  14.431  0.00  0.00    +0.000 HD
BRANCH  18  21
ATOM     20  C   UNL     1      47.559   7.076  13.599  0.00  0.00    +0.000 C 
ATOM     21  C   UNL     1      47.475   5.896  14.577  0.00  0.00    +0.000 C 
BRANCH  21  22
ATOM     22  C   UNL     1      48.524   6.028  15.664  0.00  0.00    +0.000 A 
ATOM     23  C   UNL     1      49.642   6.846  15.569  0.00  0.00    +0.000 A 
ATOM     24  S   UNL     1      50.608   6.847  16.974  0.00  0.00    +0.000 S 
ATOM     25  C   UNL     1      49.583   5.730  17.749  0.00  0.00    +0.000 A 
ATOM     26  N   UNL     1      49.845   5.299  19.012  0.00  0.00    +0.000 NA
ATOM     27  C   UNL     1      48.986   4.449  19.471  0.00  0.00    +0.000 A 
ATOM     28  N   UNL     1      47.892   3.991  18.782  0.00  0.00    +0.000 N 
ATOM     29  C   UNL     1      47.590   4.390  17.501  0.00  0.00    +0.000 A 
ATOM     30  O   UNL     1      46.618   3.941  16.904  0.00  0.00    +0.000 OA
ATOM     31  C   UNL     1      48.520   5.358  16.946  0.00  0.00    +0.000 A 
ATOM     32  H   UNL     1      47.265   3.315  19.196  0.00  0.00    +0.000 HD
ENDBRANCH  21  22
ENDBRANCH  18  21
ENDBRANCH   1  18
TORSDOF 8
ENDMDL
MODEL 6
REMARK VINA RESULT:    -7.115      2.320      3.143
REMARK INTER + INTRA:         -11.424
REMARK INTER:                 -10.838
REMARK INTRA:                  -0.586
REMARK UNBOUND:                -0.981
REMARK  Name = 
REMARK  9 active torsions:
REMARK  status: ('A' for Active; 'I' for Inactive)
REMARK    1  A    between atoms: C_1  and  C_2
REMARK    2  A    between atoms: C_2  and  N_3
REMARK    3  A    between atoms: C_2  and  C_20
REMARK    4  A    between atoms: N_3  and  C_4
REMARK    5  A    between atoms: C_4  and  C_5
REMARK    6  A    between atoms: C_9  and  C_10
REMARK    7  A    between atoms: C_10  and  N_11
REMARK    8  A    between atoms: N_11  and  C_12
REMARK    9  A    between atoms: C_12  and  C_13
REMARK                            x       y       z     vdW  Elec       q    Type
REMARK                         _______ _______ _______ _____ _____    ______ ____
ROOT
ATOM      1  C   UNL     1      48.099   6.594  14.036  0.00  0.00    +0.000 C 
ENDROOT
BRANCH   1   2
ATOM      2  C   UNL     1      47.150   5.619  13.366  0.00  0.00    +0.000 A 
ATOM      3  C   UNL     1      46.991   4.329  13.864  0.00  0.00    +0.000 A 
ATOM      4  C   UNL     1      46.093   3.473  13.240  0.00  0.00    +0.000 A 
ATOM      5  C   UNL     1      45.366   3.926  12.146  0.00  0.00    +0.000 A 
ATOM      6  C   UNL     1      45.557   5.234  11.708  0.00  0.00    +0.000 A 
ATOM      7  N   UNL     1      46.434   6.079  12.307  0.00  0.00    +0.000 NA
BRANCH   6   8
ATOM      8  C   UNL     1      44.788   5.765  10.514  0.00  0.00    +0.000 C 
BRANCH   8   9
ATOM      9  N   UNL     1      45.326   5.351   9.209  0.00  0.00    +0.000 NA
ATOM     10  H   UNL     1      46.307   5.100   9.365  0.00  0.00    +0.000 HD
BRANCH   9  11
ATOM     11  C   UNL     1      44.658   4.144   8.696  0.00  0.00    +0.000 C 
BRANCH  11  12
ATOM     12  C   UNL     1      45.629   3.220   7.982  0.00  0.00    +0.000 A 
ATOM     13  C   UNL     1      45.826   1.918   8.437  0.00  0.00    +0.000 A 
ATOM     14  C   UNL     1      46.690   1.083   7.734  0.00  0.00    +0.000 A 
ATOM     15  C   UNL     1      47.340   1.569   6.606  0.00  0.00    +0.000 A 
ATOM     16  C   UNL     1      47.101   2.879   6.229  0.00  0.00    +0.000 A 
ATOM     17  N   UNL     1      46.267   3.711   6.888  0.00  0.00    +0.000 NA
ENDBRANCH  11  12
ENDBRANCH   9  11
ENDBRANCH   8   9
ENDBRANCH   6   8
ENDBRANCH   1   2
BRANCH   1  18
ATOM     18  N   UNL     1      48.219   6.400  15.490  0.00  0.00    +0.000 NA
ATOM     19  H   UNL     1      47.297   6.462  15.911  0.00  0.00    +0.000 HD
BRANCH  18  21
ATOM     20  C   UNL     1      50.569   7.194  15.818  0.00  0.00    +0.000 C 
ATOM     21  C   UNL     1      49.079   7.413  16.118  0.00  0.00    +0.000 C 
BRANCH  21  22
ATOM     22  C   UNL     1      48.821   7.345  17.611  0.00  0.00    +0.000 A 
ATOM     23  C   UNL     1      48.487   8.444  18.392  0.00  0.00    +0.000 A 
ATOM     24  S   UNL     1      48.184   8.054  20.024  0.00  0.00    +0.000 S 
ATOM     25  C   UNL     1      48.519   6.407  19.752  0.00  0.00    +0.000 A 
ATOM     26  N   UNL     1      48.439   5.501  20.763  0.00  0.00    +0.000 NA
ATOM     27  C   UNL     1      48.724   4.290  20.413  0.00  0.00    +0.000 A 
ATOM     28  N   UNL     1      49.083   3.904  19.147  0.00  0.00    +0.000 N 
ATOM     29  C   UNL     1      49.186   4.784  18.095  0.00  0.00    +0.000 A 
ATOM     30  O   UNL     1      49.535   4.410  16.981  0.00  0.00    +0.000 OA
ATOM     31  C   UNL     1      48.860   6.157  18.436  0.00  0.00    +0.000 A 
ATOM     32  H   UNL     1      49.307   2.939  18.943  0.00  0.00    +0.000 HD
ENDBRANCH  21  22
ENDBRANCH  18  21
ENDBRANCH   1  18
TORSDOF 8
ENDMDL
MODEL 7
REMARK VINA RESULT:    -6.916      1.591      2.230
REMARK INTER + INTRA:         -11.131
REMARK INTER:                 -10.215
REMARK INTRA:                  -0.916
REMARK UNBOUND:                -0.981
REMARK  Name = 
REMARK  9 active torsions:
REMARK  status: ('A' for Active; 'I' for Inactive)
REMARK    1  A    between atoms: C_1  and  C_2
REMARK    2  A    between atoms: C_2  and  N_3
REMARK    3  A    between atoms: C_2  and  C_20
REMARK    4  A    between atoms: N_3  and  C_4
REMARK    5  A    between atoms: C_4  and  C_5
REMARK    6  A    between atoms: C_9  and  C_10
REMARK    7  A    between atoms: C_10  and  N_11
REMARK    8  A    between atoms: N_11  and  C_12
REMARK    9  A    between atoms: C_12  and  C_13
REMARK                            x       y       z     vdW  Elec       q    Type
REMARK                         _______ _______ _______ _____ _____    ______ ____
ROOT
ATOM      1  C   UNL     1      48.960   6.641  16.139  0.00  0.00    +0.000 C 
ENDROOT
BRANCH   1   2
ATOM      2  C   UNL     1      48.692   6.796  14.654  0.00  0.00    +0.000 A 
ATOM      3  C   UNL     1      49.529   7.574  13.860  0.00  0.00    +0.000 A 
ATOM      4  C   UNL     1      49.267   7.671  12.500  0.00  0.00    +0.000 A 
ATOM      5  C   UNL     1      48.188   6.981  11.962  0.00  0.00    +0.000 A 
ATOM      6  C   UNL     1      47.400   6.203  12.807  0.00  0.00    +0.000 A 
ATOM      7  N   UNL     1      47.643   6.104  14.139  0.00  0.00    +0.000 NA
BRANCH   6   8
ATOM      8  C   UNL     1      46.209   5.440  12.260  0.00  0.00    +0.000 C 
BRANCH   8   9
ATOM      9  N   UNL     1      45.450   6.155  11.224  0.00  0.00    +0.000 NA
ATOM     10  H   UNL     1      46.117   6.386  10.482  0.00  0.00    +0.000 HD
BRANCH   9  11
ATOM     11  C   UNL     1      44.416   5.305  10.612  0.00  0.00    +0.000 C 
BRANCH  11  12
ATOM     12  C   UNL     1      45.010   4.300   9.642  0.00  0.00    +0.000 A 
ATOM     13  C   UNL     1      44.852   2.932   9.858  0.00  0.00    +0.000 A 
ATOM     14  C   UNL     1      45.372   2.038   8.926  0.00  0.00    +0.000 A 
ATOM     15  C   UNL     1      46.042   2.528   7.812  0.00  0.00    +0.000 A 
ATOM     16  C   UNL     1      46.170   3.899   7.680  0.00  0.00    +0.000 A 
ATOM     17  N   UNL     1      45.674   4.791   8.564  0.00  0.00    +0.000 NA
ENDBRANCH  11  12
ENDBRANCH   9  11
ENDBRANCH   8   9
ENDBRANCH   6   8
ENDBRANCH   1   2
BRANCH   1  18
ATOM     18  N   UNL     1      48.056   5.691  16.808  0.00  0.00    +0.000 NA
ATOM     19  H   UNL     1      47.101   6.024  16.723  0.00  0.00    +0.000 HD
BRANCH  18  21
ATOM     20  C   UNL     1      48.244   6.864  19.010  0.00  0.00    +0.000 C 
ATOM     21  C   UNL     1      48.364   5.543  18.238  0.00  0.00    +0.000 C 
BRANCH  21  22
ATOM     22  C   UNL     1      49.776   4.997  18.331  0.00  0.00    +0.000 A 
ATOM     23  C   UNL     1      50.839   5.686  18.900  0.00  0.00    +0.000 A 
ATOM     24  S   UNL     1      52.292   4.794  18.927  0.00  0.00    +0.000 S 
ATOM     25  C   UNL     1      51.560   3.467  18.150  0.00  0.00    +0.000 A 
ATOM     26  N   UNL     1      52.270   2.342  17.871  0.00  0.00    +0.000 NA
ATOM     27  C   UNL     1      51.588   1.419  17.275  0.00  0.00    +0.000 A 
ATOM     28  N   UNL     1      50.263   1.521  16.935  0.00  0.00    +0.000 N 
ATOM     29  C   UNL     1      49.506   2.641  17.189  0.00  0.00    +0.000 A 
ATOM     30  O   UNL     1      48.330   2.709  16.847  0.00  0.00    +0.000 OA
ATOM     31  C   UNL     1      50.226   3.701  17.871  0.00  0.00    +0.000 A 
ATOM     32  H   UNL     1      49.792   0.765  16.457  0.00  0.00    +0.000 HD
ENDBRANCH  21  22
ENDBRANCH  18  21
ENDBRANCH   1  18
TORSDOF 8
ENDMDL
MODEL 8
REMARK VINA RESULT:    -6.836      3.272      8.692
REMARK INTER + INTRA:         -11.014
REMARK INTER:                 -10.157
REMARK INTRA:                  -0.858
REMARK UNBOUND:                -0.981
REMARK  Name = 
REMARK  9 active torsions:
REMARK  status: ('A' for Active; 'I' for Inactive)
REMARK    1  A    between atoms: C_1  and  C_2
REMARK    2  A    between atoms: C_2  and  N_3
REMARK    3  A    between atoms: C_2  and  C_20
REMARK    4  A    between atoms: N_3  and  C_4
REMARK    5  A    between atoms: C_4  and  C_5
REMARK    6  A    between atoms: C_9  and  C_10
REMARK    7  A    between atoms: C_10  and  N_11
REMARK    8  A    between atoms: N_11  and  C_12
REMARK    9  A    between atoms: C_12  and  C_13
REMARK                            x       y       z     vdW  Elec       q    Type
REMARK                         _______ _______ _______ _____ _____    ______ ____
ROOT
ATOM      1  C   UNL     1      48.188   7.104  13.131  0.00  0.00    +0.000 C 
ENDROOT
BRANCH   1   2
ATOM      2  C   UNL     1      48.360   6.707  14.585  0.00  0.00    +0.000 A 
ATOM      3  C   UNL     1      48.803   7.633  15.525  0.00  0.00    +0.000 A 
ATOM      4  C   UNL     1      48.923   7.241  16.851  0.00  0.00    +0.000 A 
ATOM      5  C   UNL     1      48.586   5.942  17.211  0.00  0.00    +0.000 A 
ATOM      6  C   UNL     1      48.130   5.069  16.227  0.00  0.00    +0.000 A 
ATOM      7  N   UNL     1      48.012   5.439  14.926  0.00  0.00    +0.000 NA
BRANCH   6   8
ATOM      8  C   UNL     1      47.758   3.641  16.578  0.00  0.00    +0.000 C 
BRANCH   8   9
ATOM      9  N   UNL     1      48.842   2.665  16.393  0.00  0.00    +0.000 NA
ATOM     10  H   UNL     1      49.593   3.155  15.898  0.00  0.00    +0.000 HD
BRANCH   9  11
ATOM     11  C   UNL     1      49.405   2.218  17.677  0.00  0.00    +0.000 C 
BRANCH  11  12
ATOM     12  C   UNL     1      50.922   2.179  17.648  0.00  0.00    +0.000 A 
ATOM     13  C   UNL     1      51.662   3.342  17.856  0.00  0.00    +0.000 A 
ATOM     14  C   UNL     1      53.052   3.263  17.866  0.00  0.00    +0.000 A 
ATOM     15  C   UNL     1      53.666   2.035  17.659  0.00  0.00    +0.000 A 
ATOM     16  C   UNL     1      52.860   0.931  17.444  0.00  0.00    +0.000 A 
ATOM     17  N   UNL     1      51.511   0.975  17.432  0.00  0.00    +0.000 NA
ENDBRANCH  11  12
ENDBRANCH   9  11
ENDBRANCH   8   9
ENDBRANCH   6   8
ENDBRANCH   1   2
BRANCH   1  18
ATOM     18  N   UNL     1      47.435   6.121  12.334  0.00  0.00    +0.000 NA
ATOM     19  H   UNL     1      48.090   5.513  11.851  0.00  0.00    +0.000 HD
BRANCH  18  21
ATOM     20  C   UNL     1      45.621   7.798  11.936  0.00  0.00    +0.000 C 
ATOM     21  C   UNL     1      46.576   6.762  11.328  0.00  0.00    +0.000 C 
BRANCH  21  22
ATOM     22  C   UNL     1      45.795   5.654  10.646  0.00  0.00    +0.000 A 
ATOM     23  C   UNL     1      45.796   5.434   9.275  0.00  0.00    +0.000 A 
ATOM     24  S   UNL     1      44.884   4.072   8.803  0.00  0.00    +0.000 S 
ATOM     25  C   UNL     1      44.430   3.747  10.411  0.00  0.00    +0.000 A 
ATOM     26  N   UNL     1      43.633   2.687  10.712  0.00  0.00    +0.000 NA
ATOM     27  C   UNL     1      43.366   2.565  11.970  0.00  0.00    +0.000 A 
ATOM     28  N   UNL     1      43.823   3.406  12.953  0.00  0.00    +0.000 N 
ATOM     29  C   UNL     1      44.624   4.494  12.698  0.00  0.00    +0.000 A 
ATOM     30  O   UNL     1      44.993   5.241  13.598  0.00  0.00    +0.000 OA
ATOM     31  C   UNL     1      44.964   4.665  11.297  0.00  0.00    +0.000 A 
ATOM     32  H   UNL     1      43.565   3.260  13.920  0.00  0.00    +0.000 HD
ENDBRANCH  21  22
ENDBRANCH  18  21
ENDBRANCH   1  18
TORSDOF 8
ENDMDL
MODEL 9
REMARK VINA RESULT:    -6.670      5.053      6.705
REMARK INTER + INTRA:         -10.771
REMARK INTER:                 -10.043
REMARK INTRA:                  -0.728
REMARK UNBOUND:                -0.981
REMARK  Name = 
REMARK  9 active torsions:
REMARK  status: ('A' for Active; 'I' for Inactive)
REMARK    1  A    between atoms: C_1  and  C_2
REMARK    2  A    between atoms: C_2  and  N_3
REMARK    3  A    between atoms: C_2  and  C_20
REMARK    4  A    between atoms: N_3  and  C_4
REMARK    5  A    between atoms: C_4  and  C_5
REMARK    6  A    between atoms: C_9  and  C_10
REMARK    7  A    between atoms: C_10  and  N_11
REMARK    8  A    between atoms: N_11  and  C_12
REMARK    9  A    between atoms: C_12  and  C_13
REMARK                            x       y       z     vdW  Elec       q    Type
REMARK                         _______ _______ _______ _____ _____    ______ ____
ROOT
ATOM      1  C   UNL     1      47.611   7.297  11.686  0.00  0.00    +0.000 C 
ENDROOT
BRANCH   1   2
ATOM      2  C   UNL     1      46.599   6.232  12.063  0.00  0.00    +0.000 A 
ATOM      3  C   UNL     1      46.694   5.564  13.281  0.00  0.00    +0.000 A 
ATOM      4  C   UNL     1      45.734   4.615  13.604  0.00  0.00    +0.000 A 
ATOM      5  C   UNL     1      44.696   4.363  12.714  0.00  0.00    +0.000 A 
ATOM      6  C   UNL     1      44.647   5.079  11.521  0.00  0.00    +0.000 A 
ATOM      7  N   UNL     1      45.582   6.008  11.192  0.00  0.00    +0.000 NA
BRANCH   6   8
ATOM      8  C   UNL     1      43.535   4.830  10.520  0.00  0.00    +0.000 C 
BRANCH   8   9
ATOM      9  N   UNL     1      43.976   4.216   9.259  0.00  0.00    +0.000 NA
ATOM     10  H   UNL     1      44.767   4.774   8.924  0.00  0.00    +0.000 HD
BRANCH   9  11
ATOM     11  C   UNL     1      44.480   2.848   9.459  0.00  0.00    +0.000 C 
BRANCH  11  12
ATOM     12  C   UNL     1      45.556   2.487   8.451  0.00  0.00    +0.000 A 
ATOM     13  C   UNL     1      46.092   3.463   7.611  0.00  0.00    +0.000 A 
ATOM     14  C   UNL     1      47.107   3.108   6.728  0.00  0.00    +0.000 A 
ATOM     15  C   UNL     1      47.555   1.793   6.698  0.00  0.00    +0.000 A 
ATOM     16  C   UNL     1      46.960   0.881   7.553  0.00  0.00    +0.000 A 
ATOM     17  N   UNL     1      45.976   1.196   8.422  0.00  0.00    +0.000 NA
ENDBRANCH  11  12
ENDBRANCH   9  11
ENDBRANCH   8   9
ENDBRANCH   6   8
ENDBRANCH   1   2
BRANCH   1  18
ATOM     18  N   UNL     1      47.590   8.474  12.569  0.00  0.00    +0.000 NA
ATOM     19  H   UNL     1      47.422   9.306  12.010  0.00  0.00    +0.000 HD
BRANCH  18  21
ATOM     20  C   UNL     1      48.729   9.593  14.495  0.00  0.00    +0.000 C 
ATOM     21  C   UNL     1      48.859   8.654  13.288  0.00  0.00    +0.000 C 
BRANCH  21  22
ATOM     22  C   UNL     1      49.858   9.206  12.288  0.00  0.00    +0.000 A 
ATOM     23  C   UNL     1      51.112   8.656  12.060  0.00  0.00    +0.000 A 
ATOM     24  S   UNL     1      51.988   9.446  10.828  0.00  0.00    +0.000 S 
ATOM     25  C   UNL     1      50.734  10.570  10.578  0.00  0.00    +0.000 A 
ATOM     26  N   UNL     1      50.846  11.544   9.635  0.00  0.00    +0.000 NA
ATOM     27  C   UNL     1      49.821  12.328   9.560  0.00  0.00    +0.000 A 
ATOM     28  N   UNL     1      48.697  12.227  10.340  0.00  0.00    +0.000 N 
ATOM     29  C   UNL     1      48.541  11.265  11.310  0.00  0.00    +0.000 A 
ATOM     30  O   UNL     1      47.534  11.219  12.008  0.00  0.00    +0.000 OA
ATOM     31  C   UNL     1      49.663  10.349  11.424  0.00  0.00    +0.000 A 
ATOM     32  H   UNL     1      47.935  12.883  10.237  0.00  0.00    +0.000 HD
ENDBRANCH  21  22
ENDBRANCH  18  21
ENDBRANCH   1  18
TORSDOF 8
ENDMDL
