MODEL 1
REMARK VINA RESULT:    -7.663      0.000      0.000
REMARK INTER + INTRA:         -11.169
REMARK INTER:                 -10.351
REMARK INTRA:                  -0.817
REMARK UNBOUND:                -0.817
REMARK  Name = 
REMARK  8 active torsions:
REMARK  status: ('A' for Active; 'I' for Inactive)
REMARK    1  A    between atoms: C_1  and  C_2
REMARK    2  A    between atoms: C_3  and  C_4
REMARK    3  A    between atoms: C_7  and  C_8
REMARK    4  A    between atoms: C_12  and  C_13
REMARK    5  A    between atoms: C_13  and  C_14
REMARK    6  A    between atoms: C_14  and  O_15
REMARK    7  A    between atoms: O_15  and  C_16
REMARK    8  A    between atoms: C_20  and  C_21
REMARK                            x       y       z     vdW  Elec       q    Type
REMARK                         _______ _______ _______ _____ _____    ______ ____
ROOT
ATOM      1  C   UNL     1      45.058   7.118  12.273  0.00  0.00    +0.000 A 
ATOM      2  C   UNL     1      46.235   7.378  12.974  0.00  0.00    +0.000 A 
ATOM      3  N   UNL     1      46.892   6.476  13.737  0.00  0.00    +0.000 NA
ATOM      4  C   UNL     1      46.329   5.239  13.810  0.00  0.00    +0.000 A 
ATOM      5  C   UNL     1      45.146   4.885  13.166  0.00  0.00    +0.000 A 
ATOM      6  C   UNL     1      44.477   5.839  12.379  0.00  0.00    +0.000 A 
ENDROOT
BRANCH   4   7
ATOM      7  C   UNL     1      47.087   4.221  14.597  0.00  0.00    +0.000 C 
ATOM      8  N   UNL     1      47.471   4.607  15.852  0.00  0.00    +0.000 N 
ATOM      9  O   UNL     1      47.361   3.109  14.153  0.00  0.00    +0.000 OA
ATOM     10  H   UNL     1      47.240   5.540  16.177  0.00  0.00    +0.000 HD
ATOM     11  H   UNL     1      48.009   3.978  16.432  0.00  0.00    +0.000 HD
ENDBRANCH   4   7
BRANCH   1  14
ATOM     12  C   UNL     1      43.480  10.316   9.959  0.00  0.00    +0.000 C 
ATOM     13  C   UNL     1      44.043   9.151  10.757  0.00  0.00    +0.000 C 
ATOM     14  C   UNL     1      44.525   8.153  11.441  0.00  0.00    +0.000 C 
ENDBRANCH   1  14
BRANCH   6  15
ATOM     15  C   UNL     1      43.225   5.409  11.622  0.00  0.00    +0.000 C 
BRANCH  15  16
ATOM     16  C   UNL     1      43.596   4.917  10.220  0.00  0.00    +0.000 C 
BRANCH  16  17
ATOM     17  O   UNL     1      44.076   3.561  10.195  0.00  0.00    +0.000 OA
BRANCH  17  18
ATOM     18  C   UNL     1      45.013   3.312   9.207  0.00  0.00    +0.000 A 
ATOM     19  C   UNL     1      45.612   4.300   8.423  0.00  0.00    +0.000 A 
ATOM     20  C   UNL     1      46.530   3.972   7.426  0.00  0.00    +0.000 A 
ATOM     21  C   UNL     1      46.863   2.643   7.198  0.00  0.00    +0.000 A 
ATOM     22  C   UNL     1      46.290   1.627   7.974  0.00  0.00    +0.000 A 
ATOM     23  C   UNL     1      46.676   0.199   7.720  0.00  0.00    +0.000 C 
ATOM     24  C   UNL     1      45.361   1.970   8.979  0.00  0.00    +0.000 A 
ENDBRANCH  17  18
ENDBRANCH  16  17
ENDBRANCH  15  16
ENDBRANCH   6  15
TORSDOF 6
ENDMDL
MODEL 2
REMARK VINA RESULT:    -7.464      2.080      4.239
REMARK INTER + INTRA:         -10.899
REMARK INTER:                  -9.917
REMARK INTRA:                  -0.983
REMARK UNBOUND:                -0.817
REMARK  Name = 
REMARK  8 active torsions:
REMARK  status: ('A' for Active; 'I' for Inactive)
REMARK    1  A    between atoms: C_1  and  C_2
REMARK    2  A    between atoms: C_3  and  C_4
REMARK    3  A    between atoms: C_7  and  C_8
REMARK    4  A    between atoms: C_12  and  C_13
REMARK    5  A    between atoms: C_13  and  C_14
REMARK    6  A    between atoms: C_14  and  O_15
REMARK    7  A    between atoms: O_15  and  C_16
REMARK    8  A    between atoms: C_20  and  C_21
REMARK                            x       y       z     vdW  Elec       q    Type
REMARK                         _______ _______ _______ _____ _____    ______ ____
ROOT
ATOM      1  C   UNL     1      45.961   5.984  13.239  0.00  0.00    +0.000 A 
ATOM      2  C   UNL     1      46.476   7.278  13.154  0.00  0.00    +0.000 A 
ATOM      3  N   UNL     1      45.914   8.285  12.448  0.00  0.00    +0.000 NA
ATOM      4  C   UNL     1      44.772   7.974  11.777  0.00  0.00    +0.000 A 
ATOM      5  C   UNL     1      44.189   6.708  11.779  0.00  0.00    +0.000 A 
ATOM      6  C   UNL     1      44.791   5.674  12.519  0.00  0.00    +0.000 A 
ENDROOT
BRANCH   4   7
ATOM      7  C   UNL     1      44.112   9.099  11.051  0.00  0.00    +0.000 C 
ATOM      8  N   UNL     1      42.812   8.886  10.683  0.00  0.00    +0.000 N 
ATOM      9  O   UNL     1      44.693  10.148  10.786  0.00  0.00    +0.000 OA
ATOM     10  H   UNL     1      42.372   8.000  10.905  0.00  0.00    +0.000 HD
ATOM     11  H   UNL     1      42.309   9.596  10.166  0.00  0.00    +0.000 HD
ENDBRANCH   4   7
BRANCH   1  14
ATOM     12  C   UNL     1      47.758   3.170  15.871  0.00  0.00    +0.000 C 
ATOM     13  C   UNL     1      47.148   4.182  14.914  0.00  0.00    +0.000 C 
ATOM     14  C   UNL     1      46.624   5.048  14.094  0.00  0.00    +0.000 C 
ENDBRANCH   1  14
BRANCH   6  15
ATOM     15  C   UNL     1      44.097   4.317  12.569  0.00  0.00    +0.000 C 
BRANCH  15  16
ATOM     16  C   UNL     1      43.278   4.093  11.293  0.00  0.00    +0.000 C 
BRANCH  16  17
ATOM     17  O   UNL     1      43.608   2.874  10.605  0.00  0.00    +0.000 OA
BRANCH  17  18
ATOM     18  C   UNL     1      44.545   3.031   9.599  0.00  0.00    +0.000 A 
ATOM     19  C   UNL     1      44.880   4.255   9.017  0.00  0.00    +0.000 A 
ATOM     20  C   UNL     1      45.817   4.333   7.987  0.00  0.00    +0.000 A 
ATOM     21  C   UNL     1      46.435   3.181   7.521  0.00  0.00    +0.000 A 
ATOM     22  C   UNL     1      46.131   1.936   8.089  0.00  0.00    +0.000 A 
ATOM     23  C   UNL     1      46.822   0.705   7.580  0.00  0.00    +0.000 C 
ATOM     24  C   UNL     1      45.180   1.868   9.129  0.00  0.00    +0.000 A 
ENDBRANCH  17  18
ENDBRANCH  16  17
ENDBRANCH  15  16
ENDBRANCH   6  15
TORSDOF 6
ENDMDL
MODEL 3
REMARK VINA RESULT:    -7.068      1.683      2.321
REMARK INTER + INTRA:         -10.365
REMARK INTER:                  -9.657
REMARK INTRA:                  -0.708
REMARK UNBOUND:                -0.817
REMARK  Name = 
REMARK  8 active torsions:
REMARK  status: ('A' for Active; 'I' for Inactive)
REMARK    1  A    between atoms: C_1  and  C_2
REMARK    2  A    between atoms: C_3  and  C_4
REMARK    3  A    between atoms: C_7  and  C_8
REMARK    4  A    between atoms: C_12  and  C_13
REMARK    5  A    between atoms: C_13  and  C_14
REMARK    6  A    between atoms: C_14  and  O_15
REMARK    7  A    between atoms: O_15  and  C_16
REMARK    8  A    between atoms: C_20  and  C_21
REMARK                            x       y       z     vdW  Elec       q    Type
REMARK                         _______ _______ _______ _____ _____    ______ ____
ROOT
ATOM      1  C   UNL     1      47.352   7.603  12.768  0.00  0.00    +0.000 A 
ATOM      2  C   UNL     1      48.147   7.279  13.868  0.00  0.00    +0.000 A 
ATOM      3  N   UNL     1      48.099   6.103  14.532  0.00  0.00    +0.000 NA
ATOM      4  C   UNL     1      47.191   5.199  14.073  0.00  0.00    +0.000 A 
ATOM      5  C   UNL     1      46.337   5.433  12.997  0.00  0.00    +0.000 A 
ATOM      6  C   UNL     1      46.403   6.665  12.321  0.00  0.00    +0.000 A 
ENDROOT
BRANCH   4   7
ATOM      7  C   UNL     1      47.182   3.873  14.761  0.00  0.00    +0.000 C 
ATOM      8  N   UNL     1      46.934   3.906  16.106  0.00  0.00    +0.000 N 
ATOM      9  O   UNL     1      47.391   2.818  14.169  0.00  0.00    +0.000 OA
ATOM     10  H   UNL     1      46.782   4.800  16.561  0.00  0.00    +0.000 HD
ATOM     11  H   UNL     1      46.937   3.049  16.642  0.00  0.00    +0.000 HD
ENDBRANCH   4   7
BRANCH   1  14
ATOM     12  C   UNL     1      47.887  11.416  10.965  0.00  0.00    +0.000 C 
ATOM     13  C   UNL     1      47.720  10.039  11.586  0.00  0.00    +0.000 C 
ATOM     14  C   UNL     1      47.577   8.859  12.120  0.00  0.00    +0.000 C 
ENDBRANCH   1  14
BRANCH   6  15
ATOM     15  C   UNL     1      45.512   6.872  11.101  0.00  0.00    +0.000 C 
BRANCH  15  16
ATOM     16  C   UNL     1      45.176   5.524  10.455  0.00  0.00    +0.000 C 
BRANCH  16  17
ATOM     17  O   UNL     1      45.591   5.426   9.082  0.00  0.00    +0.000 OA
BRANCH  17  18
ATOM     18  C   UNL     1      45.781   4.127   8.642  0.00  0.00    +0.000 A 
ATOM     19  C   UNL     1      45.245   2.998   9.265  0.00  0.00    +0.000 A 
ATOM     20  C   UNL     1      45.500   1.716   8.780  0.00  0.00    +0.000 A 
ATOM     21  C   UNL     1      46.300   1.544   7.658  0.00  0.00    +0.000 A 
ATOM     22  C   UNL     1      46.845   2.654   7.001  0.00  0.00    +0.000 A 
ATOM     23  C   UNL     1      47.695   2.446   5.782  0.00  0.00    +0.000 C 
ATOM     24  C   UNL     1      46.582   3.947   7.502  0.00  0.00    +0.000 A 
ENDBRANCH  17  18
ENDBRANCH  16  17
ENDBRANCH  15  16
ENDBRANCH   6  15
TORSDOF 6
ENDMDL
MODEL 4
REMARK VINA RESULT:    -6.703      2.224      3.687
REMARK INTER + INTRA:          -9.871
REMARK INTER:                  -8.931
REMARK INTRA:                  -0.940
REMARK UNBOUND:                -0.817
REMARK  Name = 
REMARK  8 active torsions:
REMARK  status: ('A' for Active; 'I' for Inactive)
REMARK    1  A    between atoms: C_1  and  C_2
REMARK    2  A    between atoms: C_3  and  C_4
REMARK    3  A    between atoms: C_7  and  C_8
REMARK    4  A    between atoms: C_12  and  C_13
REMARK    5  A    between atoms: C_13  and  C_14
REMARK    6  A    between atoms: C_14  and  O_15
REMARK    7  A    between atoms: O_15  and  C_16
REMARK    8  A    between atoms: C_20  and  C_21
REMARK                            x       y       z     vdW  Elec       q    Type
REMARK                         _______ _______ _______ _____ _____    ______ ____
ROOT
ATOM      1  C   UNL     1      46.304   4.995  12.749  0.00  0.00    +0.000 A 
ATOM      2  C   UNL     1      47.120   4.854  13.871  0.00  0.00    +0.000 A 
ATOM      3  N   UNL     1      48.060   5.746  14.256  0.00  0.00    +0.000 NA
ATOM      4  C   UNL     1      48.196   6.844  13.462  0.00  0.00    +0.000 A 
ATOM      5  C   UNL     1      47.446   7.068  12.311  0.00  0.00    +0.000 A 
ATOM      6  C   UNL     1      46.475   6.125  11.927  0.00  0.00    +0.000 A 
ENDROOT
BRANCH   4   7
ATOM      7  C   UNL     1      49.186   7.865  13.921  0.00  0.00    +0.000 C 
ATOM      8  N   UNL     1      50.499   7.565  13.685  0.00  0.00    +0.000 N 
ATOM      9  O   UNL     1      48.853   8.904  14.484  0.00  0.00    +0.000 OA
ATOM     10  H   UNL     1      50.734   6.688  13.232  0.00  0.00    +0.000 HD
ATOM     11  H   UNL     1      51.225   8.198  13.990  0.00  0.00    +0.000 HD
ENDBRANCH   4   7
BRANCH   1  14
ATOM     12  C   UNL     1      43.189   2.198  12.008  0.00  0.00    +0.000 C 
ATOM     13  C   UNL     1      44.325   3.170  12.282  0.00  0.00    +0.000 C 
ATOM     14  C   UNL     1      45.298   4.004  12.518  0.00  0.00    +0.000 C 
ENDBRANCH   1  14
BRANCH   6  15
ATOM     15  C   UNL     1      45.613   6.426  10.705  0.00  0.00    +0.000 C 
BRANCH  15  16
ATOM     16  C   UNL     1      46.082   5.594   9.507  0.00  0.00    +0.000 C 
BRANCH  16  17
ATOM     17  O   UNL     1      45.071   4.714   8.988  0.00  0.00    +0.000 OA
BRANCH  17  18
ATOM     18  C   UNL     1      45.569   3.547   8.433  0.00  0.00    +0.000 A 
ATOM     19  C   UNL     1      45.371   2.273   8.969  0.00  0.00    +0.000 A 
ATOM     20  C   UNL     1      45.926   1.143   8.369  0.00  0.00    +0.000 A 
ATOM     21  C   UNL     1      46.692   1.273   7.218  0.00  0.00    +0.000 A 
ATOM     22  C   UNL     1      46.903   2.535   6.648  0.00  0.00    +0.000 A 
ATOM     23  C   UNL     1      47.722   2.650   5.395  0.00  0.00    +0.000 C 
ATOM     24  C   UNL     1      46.338   3.672   7.264  0.00  0.00    +0.000 A 
ENDBRANCH  17  18
ENDBRANCH  16  17
ENDBRANCH  15  16
ENDBRANCH   6  15
TORSDOF 6
ENDMDL
MODEL 5
REMARK VINA RESULT:    -6.298      3.273      6.980
REMARK INTER + INTRA:          -9.325
REMARK INTER:                  -8.671
REMARK INTRA:                  -0.654
REMARK UNBOUND:                -0.817
REMARK  Name = 
REMARK  8 active torsions:
REMARK  status: ('A' for Active; 'I' for Inactive)
REMARK    1  A    between atoms: C_1  and  C_2
REMARK    2  A    between atoms: C_3  and  C_4
REMARK    3  A    between atoms: C_7  and  C_8
REMARK    4  A    between atoms: C_12  and  C_13
REMARK    5  A    between atoms: C_13  and  C_14
REMARK    6  A    between atoms: C_14  and  O_15
REMARK    7  A    between atoms: O_15  and  C_16
REMARK    8  A    between atoms: C_20  and  C_21
REMARK                            x       y       z     vdW  Elec       q    Type
REMARK                         _______ _______ _______ _____ _____    ______ ____
ROOT
ATOM      1  C   UNL     1      46.439   6.073  11.886  0.00  0.00    +0.000 A 
ATOM      2  C   UNL     1      45.762   5.950  10.672  0.00  0.00    +0.000 A 
ATOM      3  N   UNL     1      44.979   4.902  10.331  0.00  0.00    +0.000 NA
ATOM      4  C   UNL     1      44.876   3.911  11.259  0.00  0.00    +0.000 A 
ATOM      5  C   UNL     1      45.527   3.929  12.490  0.00  0.00    +0.000 A 
ATOM      6  C   UNL     1      46.339   5.028  12.824  0.00  0.00    +0.000 A 
ENDROOT
BRANCH   4   7
ATOM      7  C   UNL     1      43.959   2.784  10.914  0.00  0.00    +0.000 C 
ATOM      8  N   UNL     1      44.338   2.018   9.846  0.00  0.00    +0.000 N 
ATOM      9  O   UNL     1      42.924   2.558  11.535  0.00  0.00    +0.000 OA
ATOM     10  H   UNL     1      45.192   2.247   9.348  0.00  0.00    +0.000 HD
ATOM     11  H   UNL     1      43.753   1.252   9.540  0.00  0.00    +0.000 HD
ENDBRANCH   4   7
BRANCH   1  14
ATOM     12  C   UNL     1      48.425   9.767  12.586  0.00  0.00    +0.000 C 
ATOM     13  C   UNL     1      47.746   8.428  12.343  0.00  0.00    +0.000 C 
ATOM     14  C   UNL     1      47.164   7.281  12.134  0.00  0.00    +0.000 C 
ENDBRANCH   1  14
BRANCH   6  15
ATOM     15  C   UNL     1      46.983   5.063  14.206  0.00  0.00    +0.000 C 
BRANCH  15  16
ATOM     16  C   UNL     1      47.038   3.652  14.801  0.00  0.00    +0.000 C 
BRANCH  16  17
ATOM     17  O   UNL     1      47.158   3.637  16.233  0.00  0.00    +0.000 OA
BRANCH  17  18
ATOM     18  C   UNL     1      48.448   3.428  16.690  0.00  0.00    +0.000 A 
ATOM     19  C   UNL     1      49.103   2.195  16.664  0.00  0.00    +0.000 A 
ATOM     20  C   UNL     1      50.396   2.053  17.166  0.00  0.00    +0.000 A 
ATOM     21  C   UNL     1      51.056   3.150  17.704  0.00  0.00    +0.000 A 
ATOM     22  C   UNL     1      50.434   4.404  17.737  0.00  0.00    +0.000 A 
ATOM     23  C   UNL     1      51.172   5.579  18.310  0.00  0.00    +0.000 C 
ATOM     24  C   UNL     1      49.124   4.536  17.227  0.00  0.00    +0.000 A 
ENDBRANCH  17  18
ENDBRANCH  16  17
ENDBRANCH  15  16
ENDBRANCH   6  15
TORSDOF 6
ENDMDL
MODEL 6
REMARK VINA RESULT:    -6.291      3.478      7.144
REMARK INTER + INTRA:          -9.316
REMARK INTER:                  -8.388
REMARK INTRA:                  -0.927
REMARK UNBOUND:                -0.817
REMARK  Name = 
REMARK  8 active torsions:
REMARK  status: ('A' for Active; 'I' for Inactive)
REMARK    1  A    between atoms: C_1  and  C_2
REMARK    2  A    between atoms: C_3  and  C_4
REMARK    3  A    between atoms: C_7  and  C_8
REMARK    4  A    between atoms: C_12  and  C_13
REMARK    5  A    between atoms: C_13  and  C_14
REMARK    6  A    between atoms: C_14  and  O_15
REMARK    7  A    between atoms: O_15  and  C_16
REMARK    8  A    between atoms: C_20  and  C_21
REMARK                            x       y       z     vdW  Elec       q    Type
REMARK                         _______ _______ _______ _____ _____    ______ ____
ROOT
ATOM      1  C   UNL     1      46.981   5.926  12.916  0.00  0.00    +0.000 A 
ATOM      2  C   UNL     1      46.194   6.661  12.030  0.00  0.00    +0.000 A 
ATOM      3  N   UNL     1      45.012   6.245  11.523  0.00  0.00    +0.000 NA
ATOM      4  C   UNL     1      44.598   5.011  11.920  0.00  0.00    +0.000 A 
ATOM      5  C   UNL     1      45.319   4.190  12.784  0.00  0.00    +0.000 A 
ATOM      6  C   UNL     1      46.548   4.641  13.298  0.00  0.00    +0.000 A 
ENDROOT
BRANCH   4   7
ATOM      7  C   UNL     1      43.261   4.575  11.416  0.00  0.00    +0.000 C 
ATOM      8  N   UNL     1      42.209   5.381  11.753  0.00  0.00    +0.000 N 
ATOM      9  O   UNL     1      43.105   3.555  10.750  0.00  0.00    +0.000 OA
ATOM     10  H   UNL     1      42.377   6.206  12.318  0.00  0.00    +0.000 HD
ATOM     11  H   UNL     1      41.271   5.134  11.466  0.00  0.00    +0.000 HD
ENDBRANCH   4   7
BRANCH   1  14
ATOM     12  C   UNL     1      50.412   7.775  14.615  0.00  0.00    +0.000 C 
ATOM     13  C   UNL     1      49.204   7.108  13.977  0.00  0.00    +0.000 C 
ATOM     14  C   UNL     1      48.168   6.536  13.430  0.00  0.00    +0.000 C 
ENDBRANCH   1  14
BRANCH   6  15
ATOM     15  C   UNL     1      47.285   3.759  14.300  0.00  0.00    +0.000 C 
BRANCH  15  16
ATOM     16  C   UNL     1      46.857   4.108  15.729  0.00  0.00    +0.000 C 
BRANCH  16  17
ATOM     17  O   UNL     1      47.364   3.196  16.719  0.00  0.00    +0.000 OA
BRANCH  17  18
ATOM     18  C   UNL     1      48.694   3.398  17.044  0.00  0.00    +0.000 A 
ATOM     19  C   UNL     1      49.262   4.648  17.298  0.00  0.00    +0.000 A 
ATOM     20  C   UNL     1      50.618   4.779  17.594  0.00  0.00    +0.000 A 
ATOM     21  C   UNL     1      51.431   3.654  17.640  0.00  0.00    +0.000 A 
ATOM     22  C   UNL     1      50.893   2.383  17.400  0.00  0.00    +0.000 A 
ATOM     23  C   UNL     1      51.787   1.179  17.469  0.00  0.00    +0.000 C 
ATOM     24  C   UNL     1      49.520   2.262  17.100  0.00  0.00    +0.000 A 
ENDBRANCH  17  18
ENDBRANCH  16  17
ENDBRANCH  15  16
ENDBRANCH   6  15
TORSDOF 6
ENDMDL
MODEL 7
REMARK VINA RESULT:    -6.170      2.714      4.691
REMARK INTER + INTRA:          -9.152
REMARK INTER:                  -8.544
REMARK INTRA:                  -0.608
REMARK UNBOUND:                -0.817
REMARK  Name = 
REMARK  8 active torsions:
REMARK  status: ('A' for Active; 'I' for Inactive)
REMARK    1  A    between atoms: C_1  and  C_2
REMARK    2  A    between atoms: C_3  and  C_4
REMARK    3  A    between atoms: C_7  and  C_8
REMARK    4  A    between atoms: C_12  and  C_13
REMARK    5  A    between atoms: C_13  and  C_14
REMARK    6  A    between atoms: C_14  and  O_15
REMARK    7  A    between atoms: O_15  and  C_16
REMARK    8  A    between atoms: C_20  and  C_21
REMARK                            x       y       z     vdW  Elec       q    Type
REMARK                         _______ _______ _______ _____ _____    ______ ____
ROOT
ATOM      1  C   UNL     1      46.272   8.369  12.424  0.00  0.00    +0.000 A 
ATOM      2  C   UNL     1      45.931   9.721  12.402  0.00  0.00    +0.000 A 
ATOM      3  N   UNL     1      44.827  10.226  11.808  0.00  0.00    +0.000 NA
ATOM      4  C   UNL     1      44.020   9.321  11.188  0.00  0.00    +0.000 A 
ATOM      5  C   UNL     1      44.283   7.954  11.135  0.00  0.00    +0.000 A 
ATOM      6  C   UNL     1      45.439   7.450  11.758  0.00  0.00    +0.000 A 
ENDROOT
BRANCH   4   7
ATOM      7  C   UNL     1      42.765   9.866  10.588  0.00  0.00    +0.000 C 
ATOM      8  N   UNL     1      41.599   9.344  11.078  0.00  0.00    +0.000 N 
ATOM      9  O   UNL     1      42.769  10.719   9.705  0.00  0.00    +0.000 OA
ATOM     10  H   UNL     1      41.638   8.628  11.796  0.00  0.00    +0.000 HD
ATOM     11  H   UNL     1      40.712   9.647  10.701  0.00  0.00    +0.000 HD
ENDBRANCH   4   7
BRANCH   1  14
ATOM     12  C   UNL     1      49.624   7.264  14.796  0.00  0.00    +0.000 C 
ATOM     13  C   UNL     1      48.443   7.649  13.918  0.00  0.00    +0.000 C 
ATOM     14  C   UNL     1      47.432   7.978  13.166  0.00  0.00    +0.000 C 
ENDBRANCH   1  14
BRANCH   6  15
ATOM     15  C   UNL     1      45.669   5.943  11.753  0.00  0.00    +0.000 C 
BRANCH  15  16
ATOM     16  C   UNL     1      44.811   5.280  10.670  0.00  0.00    +0.000 C 
BRANCH  16  17
ATOM     17  O   UNL     1      45.423   5.285   9.369  0.00  0.00    +0.000 OA
BRANCH  17  18
ATOM     18  C   UNL     1      45.625   4.024   8.835  0.00  0.00    +0.000 A 
ATOM     19  C   UNL     1      45.140   2.843   9.400  0.00  0.00    +0.000 A 
ATOM     20  C   UNL     1      45.405   1.603   8.819  0.00  0.00    +0.000 A 
ATOM     21  C   UNL     1      46.164   1.527   7.659  0.00  0.00    +0.000 A 
ATOM     22  C   UNL     1      46.658   2.693   7.060  0.00  0.00    +0.000 A 
ATOM     23  C   UNL     1      47.463   2.589   5.798  0.00  0.00    +0.000 C 
ATOM     24  C   UNL     1      46.385   3.942   7.656  0.00  0.00    +0.000 A 
ENDBRANCH  17  18
ENDBRANCH  16  17
ENDBRANCH  15  16
ENDBRANCH   6  15
TORSDOF 6
ENDMDL
MODEL 8
REMARK VINA RESULT:    -6.022      3.535      6.495
REMARK INTER + INTRA:          -8.951
REMARK INTER:                  -7.113
REMARK INTRA:                  -1.838
REMARK UNBOUND:                -0.817
REMARK  Name = 
REMARK  8 active torsions:
REMARK  status: ('A' for Active; 'I' for Inactive)
REMARK    1  A    between atoms: C_1  and  C_2
REMARK    2  A    between atoms: C_3  and  C_4
REMARK    3  A    between atoms: C_7  and  C_8
REMARK    4  A    between atoms: C_12  and  C_13
REMARK    5  A    between atoms: C_13  and  C_14
REMARK    6  A    between atoms: C_14  and  O_15
REMARK    7  A    between atoms: O_15  and  C_16
REMARK    8  A    between atoms: C_20  and  C_21
REMARK                            x       y       z     vdW  Elec       q    Type
REMARK                         _______ _______ _______ _____ _____    ______ ____
ROOT
ATOM      1  C   UNL     1      46.719   5.305  13.658  0.00  0.00    +0.000 A 
ATOM      2  C   UNL     1      46.811   3.918  13.547  0.00  0.00    +0.000 A 
ATOM      3  N   UNL     1      45.985   3.149  12.803  0.00  0.00    +0.000 NA
ATOM      4  C   UNL     1      44.998   3.811  12.137  0.00  0.00    +0.000 A 
ATOM      5  C   UNL     1      44.808   5.189  12.200  0.00  0.00    +0.000 A 
ATOM      6  C   UNL     1      45.679   5.970  12.982  0.00  0.00    +0.000 A 
ENDROOT
BRANCH   4   7
ATOM      7  C   UNL     1      44.125   2.974  11.261  0.00  0.00    +0.000 C 
ATOM      8  N   UNL     1      44.756   2.341  10.226  0.00  0.00    +0.000 N 
ATOM      9  O   UNL     1      42.915   2.864  11.443  0.00  0.00    +0.000 OA
ATOM     10  H   UNL     1      45.754   2.470  10.099  0.00  0.00    +0.000 HD
ATOM     11  H   UNL     1      44.223   1.777   9.578  0.00  0.00    +0.000 HD
ENDBRANCH   4   7
BRANCH   1  14
ATOM     12  C   UNL     1      49.743   7.437  15.754  0.00  0.00    +0.000 C 
ATOM     13  C   UNL     1      48.653   6.657  15.035  0.00  0.00    +0.000 C 
ATOM     14  C   UNL     1      47.720   5.989  14.419  0.00  0.00    +0.000 C 
ENDBRANCH   1  14
BRANCH   6  15
ATOM     15  C   UNL     1      45.500   7.484  12.977  0.00  0.00    +0.000 C 
BRANCH  15  16
ATOM     16  C   UNL     1      46.185   8.095  11.750  0.00  0.00    +0.000 C 
BRANCH  16  17
ATOM     17  O   UNL     1      47.020   9.224  12.061  0.00  0.00    +0.000 OA
BRANCH  17  18
ATOM     18  C   UNL     1      48.374   8.939  12.072  0.00  0.00    +0.000 A 
ATOM     19  C   UNL     1      48.950   7.829  11.450  0.00  0.00    +0.000 A 
ATOM     20  C   UNL     1      50.322   7.590  11.526  0.00  0.00    +0.000 A 
ATOM     21  C   UNL     1      51.141   8.463  12.229  0.00  0.00    +0.000 A 
ATOM     22  C   UNL     1      50.599   9.593  12.855  0.00  0.00    +0.000 A 
ATOM     23  C   UNL     1      51.506  10.531  13.597  0.00  0.00    +0.000 C 
ATOM     24  C   UNL     1      49.209   9.824  12.774  0.00  0.00    +0.000 A 
ENDBRANCH  17  18
ENDBRANCH  16  17
ENDBRANCH  15  16
ENDBRANCH   6  15
TORSDOF 6
ENDMDL
MODEL 9
REMARK VINA RESULT:    -5.872      3.567      7.652
REMARK INTER + INTRA:          -8.749
REMARK INTER:                  -7.636
REMARK INTRA:                  -1.113
REMARK UNBOUND:                -0.817
REMARK  Name = 
REMARK  8 active torsions:
REMARK  status: ('A' for Active; 'I' for Inactive)
REMARK    1  A    between atoms: C_1  and  C_2
REMARK    2  A    between atoms: C_3  and  C_4
REMARK    3  A    between atoms: C_7  and  C_8
REMARK    4  A    between atoms: C_12  and  C_13
REMARK    5  A    between atoms: C_13  and  C_14
REMARK    6  A    between atoms: C_14  and  O_15
REMARK    7  A    between atoms: O_15  and  C_16
REMARK    8  A    between atoms: C_20  and  C_21
REMARK                            x       y       z     vdW  Elec       q    Type
REMARK                         _______ _______ _______ _____ _____    ______ ____
ROOT
ATOM      1  C   UNL     1      46.939   6.168  12.794  0.00  0.00    +0.000 A 
ATOM      2  C   UNL     1      46.081   6.975  12.047  0.00  0.00    +0.000 A 
ATOM      3  N   UNL     1      44.840   6.617  11.647  0.00  0.00    +0.000 NA
ATOM      4  C   UNL     1      44.437   5.368  12.010  0.00  0.00    +0.000 A 
ATOM      5  C   UNL     1      45.225   4.478  12.737  0.00  0.00    +0.000 A 
ATOM      6  C   UNL     1      46.514   4.871  13.141  0.00  0.00    +0.000 A 
ENDROOT
BRANCH   4   7
ATOM      7  C   UNL     1      43.043   4.993  11.629  0.00  0.00    +0.000 C 
ATOM      8  N   UNL     1      42.110   5.986  11.745  0.00  0.00    +0.000 N 
ATOM      9  O   UNL     1      42.741   3.866  11.244  0.00  0.00    +0.000 OA
ATOM     10  H   UNL     1      42.395   6.899  12.082  0.00  0.00    +0.000 HD
ATOM     11  H   UNL     1      41.141   5.797  11.528  0.00  0.00    +0.000 HD
ENDBRANCH   4   7
BRANCH   1  14
ATOM     12  C   UNL     1      50.605   7.982  13.954  0.00  0.00    +0.000 C 
ATOM     13  C   UNL     1      49.305   7.302  13.555  0.00  0.00    +0.000 C 
ATOM     14  C   UNL     1      48.191   6.720  13.212  0.00  0.00    +0.000 C 
ENDBRANCH   1  14
BRANCH   6  15
ATOM     15  C   UNL     1      47.331   3.911  14.000  0.00  0.00    +0.000 C 
BRANCH  15  16
ATOM     16  C   UNL     1      47.022   4.133  15.484  0.00  0.00    +0.000 C 
BRANCH  16  17
ATOM     17  O   UNL     1      48.197   4.261  16.302  0.00  0.00    +0.000 OA
BRANCH  17  18
ATOM     18  C   UNL     1      48.124   5.278  17.239  0.00  0.00    +0.000 A 
ATOM     19  C   UNL     1      47.366   5.217  18.410  0.00  0.00    +0.000 A 
ATOM     20  C   UNL     1      47.319   6.292  19.296  0.00  0.00    +0.000 A 
ATOM     21  C   UNL     1      48.035   7.450  19.022  0.00  0.00    +0.000 A 
ATOM     22  C   UNL     1      48.814   7.542  17.862  0.00  0.00    +0.000 A 
ATOM     23  C   UNL     1      49.591   8.798  17.593  0.00  0.00    +0.000 C 
ATOM     24  C   UNL     1      48.853   6.449  16.971  0.00  0.00    +0.000 A 
ENDBRANCH  17  18
ENDBRANCH  16  17
ENDBRANCH  15  16
ENDBRANCH   6  15
TORSDOF 6
ENDMDL
