MODEL 1
REMARK VINA RESULT:    -9.149      0.000      0.000
REMARK INTER + INTRA:         -13.451
REMARK INTER:                 -12.358
REMARK INTRA:                  -1.094
REMARK UNBOUND:                -1.094
REMARK  Name = 
REMARK  8 active torsions:
REMARK  status: ('A' for Active; 'I' for Inactive)
REMARK    1  A    between atoms: C_1  and  O_2
REMARK    2  A    between atoms: O_2  and  C_3
REMARK    3  A    between atoms: C_5  and  C_6
REMARK    4  A    between atoms: C_14  and  C_15
REMARK    5  A    between atoms: C_15  and  C_16
REMARK    6  A    between atoms: C_15  and  C_17
REMARK    7  A    between atoms: C_17  and  N_18
REMARK    8  A    between atoms: C_22  and  C_23
REMARK                            x       y       z     vdW  Elec       q    Type
REMARK                         _______ _______ _______ _____ _____    ______ ____
ROOT
ATOM      1  C   UNL     1      43.417   5.531  12.111  0.00  0.00    +0.000 C 
ATOM      2  C   UNL     1      42.966   6.838  11.449  0.00  0.00    +0.000 C 
ENDROOT
BRANCH   1   7
ATOM      3  C   UNL     1      46.649   4.744  14.021  0.00  0.00    +0.000 A 
ATOM      4  C   UNL     1      47.463   5.810  13.633  0.00  0.00    +0.000 A 
ATOM      5  C   UNL     1      47.004   6.806  12.751  0.00  0.00    +0.000 A 
ATOM      6  C   UNL     1      45.673   6.711  12.305  0.00  0.00    +0.000 A 
ATOM      7  C   UNL     1      44.825   5.657  12.690  0.00  0.00    +0.000 A 
ATOM      8  C   UNL     1      45.333   4.677  13.553  0.00  0.00    +0.000 A 
BRANCH   5   9
ATOM      9  C   UNL     1      47.900   7.889  12.279  0.00  0.00    +0.000 A 
ATOM     10  C   UNL     1      47.464   9.227  12.190  0.00  0.00    +0.000 A 
ATOM     11  C   UNL     1      48.302  10.246  11.723  0.00  0.00    +0.000 A 
ATOM     12  C   UNL     1      49.608   9.950  11.347  0.00  0.00    +0.000 A 
ATOM     13  C   UNL     1      50.056   8.641  11.428  0.00  0.00    +0.000 A 
ATOM     14  F   UNL     1      51.311   8.349  11.066  0.00  0.00    +0.000 F 
ATOM     15  C   UNL     1      49.220   7.620  11.876  0.00  0.00    +0.000 A 
ENDBRANCH   5   9
BRANCH   3  17
ATOM     16  C   UNL     1      47.383   4.030  16.172  0.00  0.00    +0.000 C 
ATOM     17  O   UNL     1      47.028   3.707  14.831  0.00  0.00    +0.000 OA
ENDBRANCH   3  17
ENDBRANCH   1   7
BRANCH   1  18
ATOM     18  C   UNL     1      43.382   4.323  11.146  0.00  0.00    +0.000 C 
BRANCH  18  19
ATOM     19  N   UNL     1      43.682   4.685   9.763  0.00  0.00    +0.000 N 
ATOM     20  C   UNL     1      44.637   3.921   9.099  0.00  0.00    +0.000 A 
ATOM     21  C   UNL     1      44.783   2.537   9.250  0.00  0.00    +0.000 A 
ATOM     22  N   UNL     1      45.689   1.781   8.577  0.00  0.00    +0.000 NA
ATOM     23  C   UNL     1      46.450   2.476   7.694  0.00  0.00    +0.000 A 
ATOM     24  C   UNL     1      46.316   3.844   7.516  0.00  0.00    +0.000 A 
ATOM     25  N   UNL     1      45.418   4.590   8.220  0.00  0.00    +0.000 NA
ATOM     26  H   UNL     1      43.930   5.657   9.597  0.00  0.00    +0.000 HD
BRANCH  23  27
ATOM     27  C   UNL     1      47.454   1.708   6.909  0.00  0.00    +0.000 C 
ATOM     28  N   UNL     1      48.531   2.431   6.466  0.00  0.00    +0.000 N 
ATOM     29  O   UNL     1      47.331   0.517   6.673  0.00  0.00    +0.000 OA
ATOM     30  H   UNL     1      48.603   3.418   6.685  0.00  0.00    +0.000 HD
ATOM     31  H   UNL     1      49.255   1.973   5.930  0.00  0.00    +0.000 HD
ENDBRANCH  23  27
ENDBRANCH  18  19
ENDBRANCH   1  18
TORSDOF 6
ENDMDL
MODEL 2
REMARK VINA RESULT:    -8.639      2.391      4.206
REMARK INTER + INTRA:         -12.762
REMARK INTER:                 -11.794
REMARK INTRA:                  -0.969
REMARK UNBOUND:                -1.094
REMARK  Name = 
REMARK  8 active torsions:
REMARK  status: ('A' for Active; 'I' for Inactive)
REMARK    1  A    between atoms: C_1  and  O_2
REMARK    2  A    between atoms: O_2  and  C_3
REMARK    3  A    between atoms: C_5  and  C_6
REMARK    4  A    between atoms: C_14  and  C_15
REMARK    5  A    between atoms: C_15  and  C_16
REMARK    6  A    between atoms: C_15  and  C_17
REMARK    7  A    between atoms: C_17  and  N_18
REMARK    8  A    between atoms: C_22  and  C_23
REMARK                            x       y       z     vdW  Elec       q    Type
REMARK                         _______ _______ _______ _____ _____    ______ ____
ROOT
ATOM      1  C   UNL     1      43.912   5.770  12.112  0.00  0.00    +0.000 C 
ATOM      2  C   UNL     1      43.430   7.023  11.372  0.00  0.00    +0.000 C 
ENDROOT
BRANCH   1   7
ATOM      3  C   UNL     1      47.598   6.831  12.172  0.00  0.00    +0.000 A 
ATOM      4  C   UNL     1      48.028   6.261  13.372  0.00  0.00    +0.000 A 
ATOM      5  C   UNL     1      47.154   5.526  14.195  0.00  0.00    +0.000 A 
ATOM      6  C   UNL     1      45.834   5.349  13.740  0.00  0.00    +0.000 A 
ATOM      7  C   UNL     1      45.376   5.899  12.529  0.00  0.00    +0.000 A 
ATOM      8  C   UNL     1      46.277   6.641  11.754  0.00  0.00    +0.000 A 
BRANCH   5   9
ATOM      9  C   UNL     1      47.595   4.994  15.506  0.00  0.00    +0.000 A 
ATOM     10  C   UNL     1      48.633   5.602  16.242  0.00  0.00    +0.000 A 
ATOM     11  C   UNL     1      49.066   5.087  17.470  0.00  0.00    +0.000 A 
ATOM     12  C   UNL     1      48.457   3.954  17.999  0.00  0.00    +0.000 A 
ATOM     13  C   UNL     1      47.434   3.342  17.290  0.00  0.00    +0.000 A 
ATOM     14  F   UNL     1      46.845   2.250  17.793  0.00  0.00    +0.000 F 
ATOM     15  C   UNL     1      47.011   3.841  16.060  0.00  0.00    +0.000 A 
ENDBRANCH   5   9
BRANCH   3  17
ATOM     16  C   UNL     1      49.768   7.616  11.577  0.00  0.00    +0.000 C 
ATOM     17  O   UNL     1      48.364   7.601  11.338  0.00  0.00    +0.000 OA
ENDBRANCH   3  17
ENDBRANCH   1   7
BRANCH   1  18
ATOM     18  C   UNL     1      43.744   4.477  11.281  0.00  0.00    +0.000 C 
BRANCH  18  19
ATOM     19  N   UNL     1      43.880   4.696   9.844  0.00  0.00    +0.000 N 
ATOM     20  C   UNL     1      44.770   3.876   9.157  0.00  0.00    +0.000 A 
ATOM     21  C   UNL     1      44.959   2.516   9.430  0.00  0.00    +0.000 A 
ATOM     22  N   UNL     1      45.799   1.702   8.740  0.00  0.00    +0.000 NA
ATOM     23  C   UNL     1      46.443   2.309   7.710  0.00  0.00    +0.000 A 
ATOM     24  C   UNL     1      46.262   3.650   7.410  0.00  0.00    +0.000 A 
ATOM     25  N   UNL     1      45.434   4.457   8.132  0.00  0.00    +0.000 NA
ATOM     26  H   UNL     1      44.088   5.649   9.553  0.00  0.00    +0.000 HD
BRANCH  23  27
ATOM     27  C   UNL     1      47.368   1.472   6.898  0.00  0.00    +0.000 C 
ATOM     28  N   UNL     1      48.526   2.091   6.504  0.00  0.00    +0.000 N 
ATOM     29  O   UNL     1      47.117   0.315   6.602  0.00  0.00    +0.000 OA
ATOM     30  H   UNL     1      48.704   3.052   6.773  0.00  0.00    +0.000 HD
ATOM     31  H   UNL     1      49.204   1.581   5.955  0.00  0.00    +0.000 HD
ENDBRANCH  23  27
ENDBRANCH  18  19
ENDBRANCH   1  18
TORSDOF 6
ENDMDL
MODEL 3
REMARK VINA RESULT:    -8.059      1.875      3.084
REMARK INTER + INTRA:         -11.979
REMARK INTER:                 -11.087
REMARK INTRA:                  -0.892
REMARK UNBOUND:                -1.094
REMARK  Name = 
REMARK  8 active torsions:
REMARK  status: ('A' for Active; 'I' for Inactive)
REMARK    1  A    between atoms: C_1  and  O_2
REMARK    2  A    between atoms: O_2  and  C_3
REMARK    3  A    between atoms: C_5  and  C_6
REMARK    4  A    between atoms: C_14  and  C_15
REMARK    5  A    between atoms: C_15  and  C_16
REMARK    6  A    between atoms: C_15  and  C_17
REMARK    7  A    between atoms: C_17  and  N_18
REMARK    8  A    between atoms: C_22  and  C_23
REMARK                            x       y       z     vdW  Elec       q    Type
REMARK                         _______ _______ _______ _____ _____    ______ ____
ROOT
ATOM      1  C   UNL     1      45.628   5.211  11.985  0.00  0.00    +0.000 C 
ATOM      2  C   UNL     1      45.586   4.679  13.422  0.00  0.00    +0.000 C 
ENDROOT
BRANCH   1   7
ATOM      3  C   UNL     1      45.518   9.034  12.275  0.00  0.00    +0.000 A 
ATOM      4  C   UNL     1      46.851   9.367  12.024  0.00  0.00    +0.000 A 
ATOM      5  C   UNL     1      47.819   8.381  11.758  0.00  0.00    +0.000 A 
ATOM      6  C   UNL     1      47.385   7.043  11.711  0.00  0.00    +0.000 A 
ATOM      7  C   UNL     1      46.047   6.679  11.946  0.00  0.00    +0.000 A 
ATOM      8  C   UNL     1      45.122   7.693  12.229  0.00  0.00    +0.000 A 
BRANCH   5   9
ATOM      9  C   UNL     1      49.248   8.735  11.573  0.00  0.00    +0.000 A 
ATOM     10  C   UNL     1      50.275   7.784  11.742  0.00  0.00    +0.000 A 
ATOM     11  C   UNL     1      51.625   8.124  11.590  0.00  0.00    +0.000 A 
ATOM     12  C   UNL     1      51.978   9.425  11.249  0.00  0.00    +0.000 A 
ATOM     13  C   UNL     1      50.981  10.373  11.077  0.00  0.00    +0.000 A 
ATOM     14  F   UNL     1      51.315  11.628  10.750  0.00  0.00    +0.000 F 
ATOM     15  C   UNL     1      49.637  10.045  11.244  0.00  0.00    +0.000 A 
ENDBRANCH   5   9
BRANCH   3  17
ATOM     16  C   UNL     1      43.801  10.498  11.509  0.00  0.00    +0.000 C 
ATOM     17  O   UNL     1      44.523   9.920  12.593  0.00  0.00    +0.000 OA
ENDBRANCH   3  17
ENDBRANCH   1   7
BRANCH   1  18
ATOM     18  C   UNL     1      44.278   5.059  11.246  0.00  0.00    +0.000 C 
BRANCH  18  19
ATOM     19  N   UNL     1      44.394   5.214   9.799  0.00  0.00    +0.000 N 
ATOM     20  C   UNL     1      45.139   4.258   9.115  0.00  0.00    +0.000 A 
ATOM     21  C   UNL     1      45.147   2.894   9.429  0.00  0.00    +0.000 A 
ATOM     22  N   UNL     1      45.843   1.950   8.743  0.00  0.00    +0.000 NA
ATOM     23  C   UNL     1      46.529   2.430   7.675  0.00  0.00    +0.000 A 
ATOM     24  C   UNL     1      46.525   3.774   7.334  0.00  0.00    +0.000 A 
ATOM     25  N   UNL     1      45.841   4.709   8.052  0.00  0.00    +0.000 NA
ATOM     26  H   UNL     1      44.723   6.119   9.469  0.00  0.00    +0.000 HD
BRANCH  23  27
ATOM     27  C   UNL     1      47.302   1.449   6.865  0.00  0.00    +0.000 C 
ATOM     28  N   UNL     1      48.409   1.951   6.233  0.00  0.00    +0.000 N 
ATOM     29  O   UNL     1      46.975   0.276   6.769  0.00  0.00    +0.000 OA
ATOM     30  H   UNL     1      48.652   2.930   6.340  0.00  0.00    +0.000 HD
ATOM     31  H   UNL     1      48.984   1.340   5.670  0.00  0.00    +0.000 HD
ENDBRANCH  23  27
ENDBRANCH  18  19
ENDBRANCH   1  18
TORSDOF 6
ENDMDL
MODEL 4
REMARK VINA RESULT:    -8.021      3.074      4.132
REMARK INTER + INTRA:         -11.928
REMARK INTER:                 -11.210
REMARK INTRA:                  -0.718
REMARK UNBOUND:                -1.094
REMARK  Name = 
REMARK  8 active torsions:
REMARK  status: ('A' for Active; 'I' for Inactive)
REMARK    1  A    between atoms: C_1  and  O_2
REMARK    2  A    between atoms: O_2  and  C_3
REMARK    3  A    between atoms: C_5  and  C_6
REMARK    4  A    between atoms: C_14  and  C_15
REMARK    5  A    between atoms: C_15  and  C_16
REMARK    6  A    between atoms: C_15  and  C_17
REMARK    7  A    between atoms: C_17  and  N_18
REMARK    8  A    between atoms: C_22  and  C_23
REMARK                            x       y       z     vdW  Elec       q    Type
REMARK                         _______ _______ _______ _____ _____    ______ ____
ROOT
ATOM      1  C   UNL     1      45.052   5.020  11.875  0.00  0.00    +0.000 C 
ATOM      2  C   UNL     1      44.917   4.329  13.237  0.00  0.00    +0.000 C 
ENDROOT
BRANCH   1   7
ATOM      3  C   UNL     1      47.320   8.049  12.500  0.00  0.00    +0.000 A 
ATOM      4  C   UNL     1      46.468   9.104  12.163  0.00  0.00    +0.000 A 
ATOM      5  C   UNL     1      45.150   8.876  11.726  0.00  0.00    +0.000 A 
ATOM      6  C   UNL     1      44.705   7.542  11.681  0.00  0.00    +0.000 A 
ATOM      7  C   UNL     1      45.535   6.461  12.028  0.00  0.00    +0.000 A 
ATOM      8  C   UNL     1      46.847   6.735  12.437  0.00  0.00    +0.000 A 
BRANCH   5   9
ATOM      9  C   UNL     1      44.279   9.995  11.291  0.00  0.00    +0.000 A 
ATOM     10  C   UNL     1      44.689  11.340  11.400  0.00  0.00    +0.000 A 
ATOM     11  C   UNL     1      43.858  12.397  11.011  0.00  0.00    +0.000 A 
ATOM     12  C   UNL     1      42.598  12.131  10.488  0.00  0.00    +0.000 A 
ATOM     13  C   UNL     1      42.177  10.815  10.373  0.00  0.00    +0.000 A 
ATOM     14  F   UNL     1      40.963  10.553   9.872  0.00  0.00    +0.000 F 
ATOM     15  C   UNL     1      42.993   9.760  10.774  0.00  0.00    +0.000 A 
ENDBRANCH   5   9
BRANCH   3  17
ATOM     16  C   UNL     1      49.617   7.672  11.991  0.00  0.00    +0.000 C 
ATOM     17  O   UNL     1      48.628   8.175  12.885  0.00  0.00    +0.000 OA
ENDBRANCH   3  17
ENDBRANCH   1   7
BRANCH   1  18
ATOM     18  C   UNL     1      43.733   5.021  11.066  0.00  0.00    +0.000 C 
BRANCH  18  19
ATOM     19  N   UNL     1      43.946   5.025   9.622  0.00  0.00    +0.000 N 
ATOM     20  C   UNL     1      44.753   4.020   9.095  0.00  0.00    +0.000 A 
ATOM     21  C   UNL     1      44.766   2.698   9.554  0.00  0.00    +0.000 A 
ATOM     22  N   UNL     1      45.524   1.705   9.021  0.00  0.00    +0.000 NA
ATOM     23  C   UNL     1      46.273   2.087   7.955  0.00  0.00    +0.000 A 
ATOM     24  C   UNL     1      46.268   3.386   7.472  0.00  0.00    +0.000 A 
ATOM     25  N   UNL     1      45.519   4.374   8.038  0.00  0.00    +0.000 NA
ATOM     26  H   UNL     1      44.279   5.897   9.219  0.00  0.00    +0.000 HD
BRANCH  23  27
ATOM     27  C   UNL     1      47.118   1.046   7.309  0.00  0.00    +0.000 C 
ATOM     28  N   UNL     1      46.817  -0.248   7.648  0.00  0.00    +0.000 N 
ATOM     29  O   UNL     1      48.016   1.320   6.529  0.00  0.00    +0.000 OA
ATOM     30  H   UNL     1      46.060  -0.438   8.295  0.00  0.00    +0.000 HD
ATOM     31  H   UNL     1      47.347  -1.007   7.243  0.00  0.00    +0.000 HD
ENDBRANCH  23  27
ENDBRANCH  18  19
ENDBRANCH   1  18
TORSDOF 6
ENDMDL
MODEL 5
REMARK VINA RESULT:    -7.517      4.491      7.798
REMARK INTER + INTRA:         -11.247
REMARK INTER:                 -10.252
REMARK INTRA:                  -0.996
REMARK UNBOUND:                -1.094
REMARK  Name = 
REMARK  8 active torsions:
REMARK  status: ('A' for Active; 'I' for Inactive)
REMARK    1  A    between atoms: C_1  and  O_2
REMARK    2  A    between atoms: O_2  and  C_3
REMARK    3  A    between atoms: C_5  and  C_6
REMARK    4  A    between atoms: C_14  and  C_15
REMARK    5  A    between atoms: C_15  and  C_16
REMARK    6  A    between atoms: C_15  and  C_17
REMARK    7  A    between atoms: C_17  and  N_18
REMARK    8  A    between atoms: C_22  and  C_23
REMARK                            x       y       z     vdW  Elec       q    Type
REMARK                         _______ _______ _______ _____ _____    ______ ____
ROOT
ATOM      1  C   UNL     1      48.954   8.200  12.525  0.00  0.00    +0.000 C 
ATOM      2  C   UNL     1      49.540   9.340  11.684  0.00  0.00    +0.000 C 
ENDROOT
BRANCH   1   7
ATOM      3  C   UNL     1      45.208   8.892  12.079  0.00  0.00    +0.000 A 
ATOM      4  C   UNL     1      44.765   7.678  11.549  0.00  0.00    +0.000 A 
ATOM      5  C   UNL     1      45.650   6.608  11.319  0.00  0.00    +0.000 A 
ATOM      6  C   UNL     1      46.997   6.793  11.683  0.00  0.00    +0.000 A 
ATOM      7  C   UNL     1      47.468   7.999  12.231  0.00  0.00    +0.000 A 
ATOM      8  C   UNL     1      46.555   9.044  12.422  0.00  0.00    +0.000 A 
BRANCH   5   9
ATOM      9  C   UNL     1      45.189   5.351  10.681  0.00  0.00    +0.000 A 
ATOM     10  C   UNL     1      45.512   5.036   9.345  0.00  0.00    +0.000 A 
ATOM     11  C   UNL     1      45.057   3.860   8.735  0.00  0.00    +0.000 A 
ATOM     12  C   UNL     1      44.279   2.962   9.457  0.00  0.00    +0.000 A 
ATOM     13  C   UNL     1      43.952   3.255  10.772  0.00  0.00    +0.000 A 
ATOM     14  F   UNL     1      43.201   2.395  11.471  0.00  0.00    +0.000 F 
ATOM     15  C   UNL     1      44.387   4.431  11.379  0.00  0.00    +0.000 A 
ENDBRANCH   5   9
BRANCH   3  17
ATOM     16  C   UNL     1      43.562  10.390  11.227  0.00  0.00    +0.000 C 
ATOM     17  O   UNL     1      44.430  10.000  12.287  0.00  0.00    +0.000 OA
ENDBRANCH   3  17
ENDBRANCH   1   7
BRANCH   1  18
ATOM     18  C   UNL     1      49.135   8.418  14.045  0.00  0.00    +0.000 C 
BRANCH  18  19
ATOM     19  N   UNL     1      49.996   7.417  14.670  0.00  0.00    +0.000 N 
ATOM     20  C   UNL     1      49.377   6.444  15.449  0.00  0.00    +0.000 A 
ATOM     21  C   UNL     1      48.144   5.857  15.144  0.00  0.00    +0.000 A 
ATOM     22  N   UNL     1      47.553   4.880  15.880  0.00  0.00    +0.000 NA
ATOM     23  C   UNL     1      48.278   4.475  16.953  0.00  0.00    +0.000 A 
ATOM     24  C   UNL     1      49.509   5.029  17.269  0.00  0.00    +0.000 A 
ATOM     25  N   UNL     1      50.073   6.027  16.531  0.00  0.00    +0.000 NA
ATOM     26  H   UNL     1      50.771   7.774  15.224  0.00  0.00    +0.000 HD
BRANCH  23  27
ATOM     27  C   UNL     1      47.699   3.394  17.797  0.00  0.00    +0.000 C 
ATOM     28  N   UNL     1      48.387   3.116  18.949  0.00  0.00    +0.000 N 
ATOM     29  O   UNL     1      46.681   2.795  17.488  0.00  0.00    +0.000 OA
ATOM     30  H   UNL     1      49.226   3.638  19.176  0.00  0.00    +0.000 HD
ATOM     31  H   UNL     1      48.048   2.398  19.574  0.00  0.00    +0.000 HD
ENDBRANCH  23  27
ENDBRANCH  18  19
ENDBRANCH   1  18
TORSDOF 6
ENDMDL
MODEL 6
REMARK VINA RESULT:    -7.110      4.734      7.934
REMARK INTER + INTRA:         -10.697
REMARK INTER:                  -9.839
REMARK INTRA:                  -0.858
REMARK UNBOUND:                -1.094
REMARK  Name = 
REMARK  8 active torsions:
REMARK  status: ('A' for Active; 'I' for Inactive)
REMARK    1  A    between atoms: C_1  and  O_2
REMARK    2  A    between atoms: O_2  and  C_3
REMARK    3  A    between atoms: C_5  and  C_6
REMARK    4  A    between atoms: C_14  and  C_15
REMARK    5  A    between atoms: C_15  and  C_16
REMARK    6  A    between atoms: C_15  and  C_17
REMARK    7  A    between atoms: C_17  and  N_18
REMARK    8  A    between atoms: C_22  and  C_23
REMARK                            x       y       z     vdW  Elec       q    Type
REMARK                         _______ _______ _______ _____ _____    ______ ____
ROOT
ATOM      1  C   UNL     1      48.529   6.623  14.261  0.00  0.00    +0.000 C 
ATOM      2  C   UNL     1      49.642   7.604  13.875  0.00  0.00    +0.000 C 
ENDROOT
BRANCH   1   7
ATOM      3  C   UNL     1      45.569   8.272  12.463  0.00  0.00    +0.000 A 
ATOM      4  C   UNL     1      45.103   7.216  11.676  0.00  0.00    +0.000 A 
ATOM      5  C   UNL     1      45.722   5.952  11.697  0.00  0.00    +0.000 A 
ATOM      6  C   UNL     1      46.807   5.778  12.576  0.00  0.00    +0.000 A 
ATOM      7  C   UNL     1      47.289   6.818  13.390  0.00  0.00    +0.000 A 
ATOM      8  C   UNL     1      46.655   8.065  13.320  0.00  0.00    +0.000 A 
BRANCH   5   9
ATOM      9  C   UNL     1      45.274   4.861  10.798  0.00  0.00    +0.000 A 
ATOM     10  C   UNL     1      44.565   3.744  11.285  0.00  0.00    +0.000 A 
ATOM     11  C   UNL     1      44.162   2.702  10.441  0.00  0.00    +0.000 A 
ATOM     12  C   UNL     1      44.446   2.763   9.081  0.00  0.00    +0.000 A 
ATOM     13  C   UNL     1      45.142   3.854   8.584  0.00  0.00    +0.000 A 
ATOM     14  F   UNL     1      45.421   3.917   7.276  0.00  0.00    +0.000 F 
ATOM     15  C   UNL     1      45.561   4.885   9.422  0.00  0.00    +0.000 A 
ENDBRANCH   5   9
BRANCH   3  17
ATOM     16  C   UNL     1      45.787  10.533  11.745  0.00  0.00    +0.000 C 
ATOM     17  O   UNL     1      45.062   9.544  12.469  0.00  0.00    +0.000 OA
ENDBRANCH   3  17
ENDBRANCH   1   7
BRANCH   1  18
ATOM     18  C   UNL     1      48.116   6.734  15.747  0.00  0.00    +0.000 C 
BRANCH  18  19
ATOM     19  N   UNL     1      47.762   5.448  16.342  0.00  0.00    +0.000 N 
ATOM     20  C   UNL     1      48.808   4.607  16.707  0.00  0.00    +0.000 A 
ATOM     21  C   UNL     1      50.017   5.047  17.259  0.00  0.00    +0.000 A 
ATOM     22  N   UNL     1      51.028   4.228  17.651  0.00  0.00    +0.000 NA
ATOM     23  C   UNL     1      50.766   2.905  17.495  0.00  0.00    +0.000 A 
ATOM     24  C   UNL     1      49.571   2.443  16.964  0.00  0.00    +0.000 A 
ATOM     25  N   UNL     1      48.580   3.283  16.552  0.00  0.00    +0.000 NA
ATOM     26  H   UNL     1      47.107   4.875  15.815  0.00  0.00    +0.000 HD
BRANCH  23  27
ATOM     27  C   UNL     1      51.823   1.947  17.919  0.00  0.00    +0.000 C 
ATOM     28  N   UNL     1      51.469   0.624  17.875  0.00  0.00    +0.000 N 
ATOM     29  O   UNL     1      52.930   2.312  18.283  0.00  0.00    +0.000 OA
ATOM     30  H   UNL     1      50.542   0.359  17.562  0.00  0.00    +0.000 HD
ATOM     31  H   UNL     1      52.139  -0.082  18.144  0.00  0.00    +0.000 HD
ENDBRANCH  23  27
ENDBRANCH  18  19
ENDBRANCH   1  18
TORSDOF 6
ENDMDL
MODEL 7
REMARK VINA RESULT:    -7.026      4.682      8.362
REMARK INTER + INTRA:         -10.584
REMARK INTER:                  -9.859
REMARK INTRA:                  -0.725
REMARK UNBOUND:                -1.094
REMARK  Name = 
REMARK  8 active torsions:
REMARK  status: ('A' for Active; 'I' for Inactive)
REMARK    1  A    between atoms: C_1  and  O_2
REMARK    2  A    between atoms: O_2  and  C_3
REMARK    3  A    between atoms: C_5  and  C_6
REMARK    4  A    between atoms: C_14  and  C_15
REMARK    5  A    between atoms: C_15  and  C_16
REMARK    6  A    between atoms: C_15  and  C_17
REMARK    7  A    between atoms: C_17  and  N_18
REMARK    8  A    between atoms: C_22  and  C_23
REMARK                            x       y       z     vdW  Elec       q    Type
REMARK                         _______ _______ _______ _____ _____    ______ ____
ROOT
ATOM      1  C   UNL     1      48.876   7.830  12.735  0.00  0.00    +0.000 C 
ATOM      2  C   UNL     1      49.475   9.143  12.217  0.00  0.00    +0.000 C 
ENDROOT
BRANCH   1   7
ATOM      3  C   UNL     1      45.203   8.614  11.954  0.00  0.00    +0.000 A 
ATOM      4  C   UNL     1      44.793   7.425  11.345  0.00  0.00    +0.000 A 
ATOM      5  C   UNL     1      45.677   6.345  11.167  0.00  0.00    +0.000 A 
ATOM      6  C   UNL     1      46.985   6.490  11.664  0.00  0.00    +0.000 A 
ATOM      7  C   UNL     1      47.423   7.669  12.294  0.00  0.00    +0.000 A 
ATOM      8  C   UNL     1      46.513   8.727  12.430  0.00  0.00    +0.000 A 
BRANCH   5   9
ATOM      9  C   UNL     1      45.257   5.118  10.447  0.00  0.00    +0.000 A 
ATOM     10  C   UNL     1      44.534   4.092  11.090  0.00  0.00    +0.000 A 
ATOM     11  C   UNL     1      44.157   2.923  10.416  0.00  0.00    +0.000 A 
ATOM     12  C   UNL     1      44.485   2.761   9.075  0.00  0.00    +0.000 A 
ATOM     13  C   UNL     1      45.195   3.759   8.426  0.00  0.00    +0.000 A 
ATOM     14  F   UNL     1      45.515   3.608   7.134  0.00  0.00    +0.000 F 
ATOM     15  C   UNL     1      45.587   4.917   9.095  0.00  0.00    +0.000 A 
ENDBRANCH   5   9
BRANCH   3  17
ATOM     16  C   UNL     1      44.268  10.583  10.993  0.00  0.00    +0.000 C 
ATOM     17  O   UNL     1      44.429   9.730  12.122  0.00  0.00    +0.000 OA
ENDBRANCH   3  17
ENDBRANCH   1   7
BRANCH   1  18
ATOM     18  C   UNL     1      48.945   7.702  14.275  0.00  0.00    +0.000 C 
BRANCH  18  19
ATOM     19  N   UNL     1      48.196   6.560  14.790  0.00  0.00    +0.000 N 
ATOM     20  C   UNL     1      48.530   6.101  16.060  0.00  0.00    +0.000 A 
ATOM     21  C   UNL     1      48.886   6.931  17.130  0.00  0.00    +0.000 A 
ATOM     22  N   UNL     1      49.177   6.492  18.382  0.00  0.00    +0.000 NA
ATOM     23  C   UNL     1      49.066   5.148  18.541  0.00  0.00    +0.000 A 
ATOM     24  C   UNL     1      48.701   4.306  17.502  0.00  0.00    +0.000 A 
ATOM     25  N   UNL     1      48.438   4.764  16.246  0.00  0.00    +0.000 NA
ATOM     26  H   UNL     1      48.162   5.738  14.191  0.00  0.00    +0.000 HD
BRANCH  23  27
ATOM     27  C   UNL     1      49.354   4.597  19.893  0.00  0.00    +0.000 C 
ATOM     28  N   UNL     1      48.484   3.634  20.333  0.00  0.00    +0.000 N 
ATOM     29  O   UNL     1      50.300   4.974  20.567  0.00  0.00    +0.000 OA
ATOM     30  H   UNL     1      47.713   3.342  19.743  0.00  0.00    +0.000 HD
ATOM     31  H   UNL     1      48.622   3.211  21.240  0.00  0.00    +0.000 HD
ENDBRANCH  23  27
ENDBRANCH  18  19
ENDBRANCH   1  18
TORSDOF 6
ENDMDL
MODEL 8
REMARK VINA RESULT:    -6.506      4.934      7.427
REMARK INTER + INTRA:          -9.882
REMARK INTER:                  -9.155
REMARK INTRA:                  -0.726
REMARK UNBOUND:                -1.094
REMARK  Name = 
REMARK  8 active torsions:
REMARK  status: ('A' for Active; 'I' for Inactive)
REMARK    1  A    between atoms: C_1  and  O_2
REMARK    2  A    between atoms: O_2  and  C_3
REMARK    3  A    between atoms: C_5  and  C_6
REMARK    4  A    between atoms: C_14  and  C_15
REMARK    5  A    between atoms: C_15  and  C_16
REMARK    6  A    between atoms: C_15  and  C_17
REMARK    7  A    between atoms: C_17  and  N_18
REMARK    8  A    between atoms: C_22  and  C_23
REMARK                            x       y       z     vdW  Elec       q    Type
REMARK                         _______ _______ _______ _____ _____    ______ ____
ROOT
ATOM      1  C   UNL     1      48.998   6.632  14.756  0.00  0.00    +0.000 C 
ATOM      2  C   UNL     1      49.851   7.809  14.268  0.00  0.00    +0.000 C 
ENDROOT
BRANCH   1   7
ATOM      3  C   UNL     1      45.795   5.182  13.222  0.00  0.00    +0.000 A 
ATOM      4  C   UNL     1      45.274   6.301  12.569  0.00  0.00    +0.000 A 
ATOM      5  C   UNL     1      45.928   7.546  12.602  0.00  0.00    +0.000 A 
ATOM      6  C   UNL     1      47.156   7.613  13.285  0.00  0.00    +0.000 A 
ATOM      7  C   UNL     1      47.713   6.500  13.941  0.00  0.00    +0.000 A 
ATOM      8  C   UNL     1      47.014   5.286  13.899  0.00  0.00    +0.000 A 
BRANCH   5   9
ATOM      9  C   UNL     1      45.328   8.748  11.975  0.00  0.00    +0.000 A 
ATOM     10  C   UNL     1      45.926  10.021  12.087  0.00  0.00    +0.000 A 
ATOM     11  C   UNL     1      45.347  11.160  11.515  0.00  0.00    +0.000 A 
ATOM     12  C   UNL     1      44.159  11.048  10.801  0.00  0.00    +0.000 A 
ATOM     13  C   UNL     1      43.557   9.806  10.679  0.00  0.00    +0.000 A 
ATOM     14  F   UNL     1      42.411   9.692   9.994  0.00  0.00    +0.000 F 
ATOM     15  C   UNL     1      44.119   8.672  11.260  0.00  0.00    +0.000 A 
ENDBRANCH   5   9
BRANCH   3  17
ATOM     16  C   UNL     1      44.434   3.542  12.158  0.00  0.00    +0.000 C 
ATOM     17  O   UNL     1      45.202   3.949  13.286  0.00  0.00    +0.000 OA
ENDBRANCH   3  17
ENDBRANCH   1   7
BRANCH   1  18
ATOM     18  C   UNL     1      48.629   6.735  16.254  0.00  0.00    +0.000 C 
BRANCH  18  19
ATOM     19  N   UNL     1      48.229   5.456  16.836  0.00  0.00    +0.000 N 
ATOM     20  C   UNL     1      49.222   4.496  17.005  0.00  0.00    +0.000 A 
ATOM     21  C   UNL     1      50.536   4.781  17.393  0.00  0.00    +0.000 A 
ATOM     22  N   UNL     1      51.499   3.846  17.595  0.00  0.00    +0.000 NA
ATOM     23  C   UNL     1      51.080   2.567  17.419  0.00  0.00    +0.000 A 
ATOM     24  C   UNL     1      49.781   2.257  17.050  0.00  0.00    +0.000 A 
ATOM     25  N   UNL     1      48.835   3.213  16.826  0.00  0.00    +0.000 NA
ATOM     26  H   UNL     1      47.449   4.983  16.386  0.00  0.00    +0.000 HD
BRANCH  23  27
ATOM     27  C   UNL     1      52.080   1.486  17.641  0.00  0.00    +0.000 C 
ATOM     28  N   UNL     1      51.574   0.310  18.130  0.00  0.00    +0.000 N 
ATOM     29  O   UNL     1      53.268   1.634  17.404  0.00  0.00    +0.000 OA
ATOM     30  H   UNL     1      50.580   0.222  18.310  0.00  0.00    +0.000 HD
ATOM     31  H   UNL     1      52.195  -0.469  18.299  0.00  0.00    +0.000 HD
ENDBRANCH  23  27
ENDBRANCH  18  19
ENDBRANCH   1  18
TORSDOF 6
ENDMDL
MODEL 9
REMARK VINA RESULT:    -6.415      4.854      7.222
REMARK INTER + INTRA:          -9.759
REMARK INTER:                  -9.012
REMARK INTRA:                  -0.746
REMARK UNBOUND:                -1.094
REMARK  Name = 
REMARK  8 active torsions:
REMARK  status: ('A' for Active; 'I' for Inactive)
REMARK    1  A    between atoms: C_1  and  O_2
REMARK    2  A    between atoms: O_2  and  C_3
REMARK    3  A    between atoms: C_5  and  C_6
REMARK    4  A    between atoms: C_14  and  C_15
REMARK    5  A    between atoms: C_15  and  C_16
REMARK    6  A    between atoms: C_15  and  C_17
REMARK    7  A    between atoms: C_17  and  N_18
REMARK    8  A    between atoms: C_22  and  C_23
REMARK                            x       y       z     vdW  Elec       q    Type
REMARK                         _______ _______ _______ _____ _____    ______ ____
ROOT
ATOM      1  C   UNL     1      48.298   3.717  16.889  0.00  0.00    +0.000 C 
ATOM      2  C   UNL     1      47.585   2.716  17.806  0.00  0.00    +0.000 C 
ENDROOT
BRANCH   1   7
ATOM      3  C   UNL     1      51.055   5.985  18.291  0.00  0.00    +0.000 A 
ATOM      4  C   UNL     1      50.308   6.882  19.059  0.00  0.00    +0.000 A 
ATOM      5  C   UNL     1      48.907   6.788  19.148  0.00  0.00    +0.000 A 
ATOM      6  C   UNL     1      48.286   5.726  18.465  0.00  0.00    +0.000 A 
ATOM      7  C   UNL     1      49.012   4.800  17.696  0.00  0.00    +0.000 A 
ATOM      8  C   UNL     1      50.404   4.946  17.620  0.00  0.00    +0.000 A 
BRANCH   5   9
ATOM      9  C   UNL     1      48.114   7.792  19.898  0.00  0.00    +0.000 A 
ATOM     10  C   UNL     1      47.811   7.627  21.265  0.00  0.00    +0.000 A 
ATOM     11  C   UNL     1      47.043   8.563  21.967  0.00  0.00    +0.000 A 
ATOM     12  C   UNL     1      46.571   9.699  21.319  0.00  0.00    +0.000 A 
ATOM     13  C   UNL     1      46.860   9.879  19.975  0.00  0.00    +0.000 A 
ATOM     14  F   UNL     1      46.407  10.970  19.344  0.00  0.00    +0.000 F 
ATOM     15  C   UNL     1      47.609   8.943  19.266  0.00  0.00    +0.000 A 
ENDBRANCH   5   9
BRANCH   3  17
ATOM     16  C   UNL     1      52.886   5.963  16.767  0.00  0.00    +0.000 C 
ATOM     17  O   UNL     1      52.411   6.032  18.108  0.00  0.00    +0.000 OA
ENDBRANCH   3  17
ENDBRANCH   1   7
BRANCH   1  18
ATOM     18  C   UNL     1      47.342   4.398  15.881  0.00  0.00    +0.000 C 
BRANCH  18  19
ATOM     19  N   UNL     1      47.242   3.682  14.612  0.00  0.00    +0.000 N 
ATOM     20  C   UNL     1      46.287   4.129  13.704  0.00  0.00    +0.000 A 
ATOM     21  C   UNL     1      45.969   5.476  13.493  0.00  0.00    +0.000 A 
ATOM     22  N   UNL     1      45.065   5.921  12.583  0.00  0.00    +0.000 NA
ATOM     23  C   UNL     1      44.491   4.938  11.841  0.00  0.00    +0.000 A 
ATOM     24  C   UNL     1      44.800   3.599  12.020  0.00  0.00    +0.000 A 
ATOM     25  N   UNL     1      45.692   3.172  12.958  0.00  0.00    +0.000 NA
ATOM     26  H   UNL     1      47.127   2.674  14.673  0.00  0.00    +0.000 HD
BRANCH  23  27
ATOM     27  C   UNL     1      43.501   5.354  10.811  0.00  0.00    +0.000 C 
ATOM     28  N   UNL     1      42.747   6.453  11.130  0.00  0.00    +0.000 N 
ATOM     29  O   UNL     1      43.367   4.759   9.753  0.00  0.00    +0.000 OA
ATOM     30  H   UNL     1      42.890   6.925  12.016  0.00  0.00    +0.000 HD
ATOM     31  H   UNL     1      42.059   6.795  10.474  0.00  0.00    +0.000 HD
ENDBRANCH  23  27
ENDBRANCH  18  19
ENDBRANCH   1  18
TORSDOF 6
ENDMDL
