MODEL 1
REMARK VINA RESULT:    -8.112      0.000      0.000
REMARK INTER + INTRA:         -12.168
REMARK INTER:                 -10.958
REMARK INTRA:                  -1.210
REMARK UNBOUND:                -1.210
REMARK  Name = 
REMARK  6 active torsions:
REMARK  status: ('A' for Active; 'I' for Inactive)
REMARK    1  A    between atoms: C_2  and  C_4
REMARK    2  A    between atoms: C_8  and  C_9
REMARK    3  A    between atoms: C_9  and  C_10
REMARK    4  A    between atoms: C_13  and  C_14
REMARK    5  A    between atoms: C_14  and  N_15
REMARK    6  A    between atoms: C_16  and  C_18
REMARK                            x       y       z     vdW  Elec       q    Type
REMARK                         _______ _______ _______ _____ _____    ______ ____
ROOT
ATOM      1  C   UNL     1      44.730   6.052  11.087  0.00  0.00    +0.000 A 
ATOM      2  C   UNL     1      45.904   5.455  11.569  0.00  0.00    +0.000 A 
ATOM      3  C   UNL     1      46.783   6.165  12.395  0.00  0.00    +0.000 A 
ATOM      4  C   UNL     1      46.502   7.485  12.767  0.00  0.00    +0.000 A 
ATOM      5  C   UNL     1      45.354   8.098  12.248  0.00  0.00    +0.000 A 
ATOM      6  C   UNL     1      44.473   7.388  11.425  0.00  0.00    +0.000 A 
ENDROOT
BRANCH   1   7
ATOM      7  C   UNL     1      43.739   5.260  10.261  0.00  0.00    +0.000 C 
BRANCH   7  12
ATOM      8  C   UNL     1      45.910   3.196   7.885  0.00  0.00    +0.000 A 
ATOM      9  C   UNL     1      45.687   1.898   8.356  0.00  0.00    +0.000 A 
ATOM     10  C   UNL     1      44.788   1.683   9.403  0.00  0.00    +0.000 A 
ATOM     11  C   UNL     1      44.131   2.763   9.999  0.00  0.00    +0.000 A 
ATOM     12  C   UNL     1      44.365   4.073   9.557  0.00  0.00    +0.000 A 
ATOM     13  C   UNL     1      45.250   4.276   8.488  0.00  0.00    +0.000 A 
BRANCH   8  15
ATOM     14  N   UNL     1      48.098   2.874   6.851  0.00  0.00    +0.000 N 
ATOM     15  C   UNL     1      46.876   3.487   6.793  0.00  0.00    +0.000 C 
ATOM     16  O   UNL     1      46.587   4.218   5.856  0.00  0.00    +0.000 OA
ATOM     17  H   UNL     1      48.702   3.012   6.050  0.00  0.00    +0.000 HD
ATOM     18  H   UNL     1      48.282   2.084   7.451  0.00  0.00    +0.000 HD
ENDBRANCH   8  15
ENDBRANCH   7  12
ENDBRANCH   1   7
BRANCH   4  19
ATOM     19  C   UNL     1      47.415   8.244  13.697  0.00  0.00    +0.000 C 
BRANCH  19  20
ATOM     20  N   UNL     1      47.740   7.466  14.866  0.00  0.00    +0.000 N 
ATOM     21  C   UNL     1      48.978   6.897  15.028  0.00  0.00    +0.000 C 
ATOM     22  O   UNL     1      49.882   7.054  14.211  0.00  0.00    +0.000 OA
ATOM     23  H   UNL     1      46.958   7.117  15.410  0.00  0.00    +0.000 HD
BRANCH  21  24
ATOM     24  C   UNL     1      49.187   6.144  16.270  0.00  0.00    +0.000 A 
ATOM     25  C   UNL     1      50.178   6.538  17.160  0.00  0.00    +0.000 A 
ATOM     26  S   UNL     1      50.230   5.600  18.585  0.00  0.00    +0.000 S 
ATOM     27  C   UNL     1      48.968   4.598  18.036  0.00  0.00    +0.000 A 
ATOM     28  N   UNL     1      48.523   3.557  18.789  0.00  0.00    +0.000 NA
ATOM     29  C   UNL     1      47.584   2.864  18.238  0.00  0.00    +0.000 A 
ATOM     30  N   UNL     1      47.048   3.119  17.002  0.00  0.00    +0.000 N 
ATOM     31  C   UNL     1      47.448   4.173  16.216  0.00  0.00    +0.000 A 
ATOM     32  O   UNL     1      46.926   4.388  15.130  0.00  0.00    +0.000 OA
ATOM     33  C   UNL     1      48.506   4.984  16.791  0.00  0.00    +0.000 A 
ATOM     34  H   UNL     1      46.312   2.538  16.627  0.00  0.00    +0.000 HD
ENDBRANCH  21  24
ENDBRANCH  19  20
ENDBRANCH   4  19
TORSDOF 6
ENDMDL
MODEL 2
REMARK VINA RESULT:    -7.547      2.163      2.651
REMARK INTER + INTRA:         -11.404
REMARK INTER:                 -10.099
REMARK INTRA:                  -1.305
REMARK UNBOUND:                -1.210
REMARK  Name = 
REMARK  6 active torsions:
REMARK  status: ('A' for Active; 'I' for Inactive)
REMARK    1  A    between atoms: C_2  and  C_4
REMARK    2  A    between atoms: C_8  and  C_9
REMARK    3  A    between atoms: C_9  and  C_10
REMARK    4  A    between atoms: C_13  and  C_14
REMARK    5  A    between atoms: C_14  and  N_15
REMARK    6  A    between atoms: C_16  and  C_18
REMARK                            x       y       z     vdW  Elec       q    Type
REMARK                         _______ _______ _______ _____ _____    ______ ____
ROOT
ATOM      1  C   UNL     1      45.603   5.823  11.756  0.00  0.00    +0.000 A 
ATOM      2  C   UNL     1      45.895   5.068  12.901  0.00  0.00    +0.000 A 
ATOM      3  C   UNL     1      46.954   5.426  13.745  0.00  0.00    +0.000 A 
ATOM      4  C   UNL     1      47.737   6.553  13.467  0.00  0.00    +0.000 A 
ATOM      5  C   UNL     1      47.475   7.280  12.298  0.00  0.00    +0.000 A 
ATOM      6  C   UNL     1      46.415   6.925  11.457  0.00  0.00    +0.000 A 
ENDROOT
BRANCH   1   7
ATOM      7  C   UNL     1      44.409   5.484  10.888  0.00  0.00    +0.000 C 
BRANCH   7  12
ATOM      8  C   UNL     1      45.780   3.182   8.162  0.00  0.00    +0.000 A 
ATOM      9  C   UNL     1      45.203   1.956   8.513  0.00  0.00    +0.000 A 
ATOM     10  C   UNL     1      44.324   1.886   9.596  0.00  0.00    +0.000 A 
ATOM     11  C   UNL     1      44.038   3.031  10.345  0.00  0.00    +0.000 A 
ATOM     12  C   UNL     1      44.629   4.260  10.024  0.00  0.00    +0.000 A 
ATOM     13  C   UNL     1      45.491   4.325   8.918  0.00  0.00    +0.000 A 
BRANCH   8  15
ATOM     14  N   UNL     1      47.686   2.328   6.899  0.00  0.00    +0.000 N 
ATOM     15  C   UNL     1      46.743   3.309   7.037  0.00  0.00    +0.000 C 
ATOM     16  O   UNL     1      46.683   4.236   6.240  0.00  0.00    +0.000 OA
ATOM     17  H   UNL     1      48.269   2.386   6.074  0.00  0.00    +0.000 HD
ATOM     18  H   UNL     1      47.615   1.436   7.365  0.00  0.00    +0.000 HD
ENDBRANCH   8  15
ENDBRANCH   7  12
ENDBRANCH   1   7
BRANCH   4  19
ATOM     19  C   UNL     1      48.848   6.978  14.395  0.00  0.00    +0.000 C 
BRANCH  19  20
ATOM     20  N   UNL     1      48.544   6.652  15.765  0.00  0.00    +0.000 N 
ATOM     21  C   UNL     1      49.504   6.171  16.618  0.00  0.00    +0.000 C 
ATOM     22  O   UNL     1      50.675   6.034  16.275  0.00  0.00    +0.000 OA
ATOM     23  H   UNL     1      47.564   6.514  15.991  0.00  0.00    +0.000 HD
BRANCH  21  24
ATOM     24  C   UNL     1      49.068   5.893  17.993  0.00  0.00    +0.000 A 
ATOM     25  C   UNL     1      49.216   4.617  18.519  0.00  0.00    +0.000 A 
ATOM     26  S   UNL     1      48.730   4.490  20.151  0.00  0.00    +0.000 S 
ATOM     27  C   UNL     1      48.252   6.123  20.191  0.00  0.00    +0.000 A 
ATOM     28  N   UNL     1      47.719   6.669  21.317  0.00  0.00    +0.000 NA
ATOM     29  C   UNL     1      47.373   7.907  21.197  0.00  0.00    +0.000 A 
ATOM     30  N   UNL     1      47.514   8.649  20.053  0.00  0.00    +0.000 N 
ATOM     31  C   UNL     1      48.070   8.149  18.900  0.00  0.00    +0.000 A 
ATOM     32  O   UNL     1      48.207   8.850  17.906  0.00  0.00    +0.000 OA
ATOM     33  C   UNL     1      48.473   6.757  18.982  0.00  0.00    +0.000 A 
ATOM     34  H   UNL     1      47.225   9.616  20.025  0.00  0.00    +0.000 HD
ENDBRANCH  21  24
ENDBRANCH  19  20
ENDBRANCH   4  19
TORSDOF 6
ENDMDL
MODEL 3
REMARK VINA RESULT:    -7.538      1.630      2.029
REMARK INTER + INTRA:         -11.392
REMARK INTER:                 -10.127
REMARK INTRA:                  -1.265
REMARK UNBOUND:                -1.210
REMARK  Name = 
REMARK  6 active torsions:
REMARK  status: ('A' for Active; 'I' for Inactive)
REMARK    1  A    between atoms: C_2  and  C_4
REMARK    2  A    between atoms: C_8  and  C_9
REMARK    3  A    between atoms: C_9  and  C_10
REMARK    4  A    between atoms: C_13  and  C_14
REMARK    5  A    between atoms: C_14  and  N_15
REMARK    6  A    between atoms: C_16  and  C_18
REMARK                            x       y       z     vdW  Elec       q    Type
REMARK                         _______ _______ _______ _____ _____    ______ ____
ROOT
ATOM      1  C   UNL     1      45.165   5.788  11.615  0.00  0.00    +0.000 A 
ATOM      2  C   UNL     1      45.563   7.132  11.579  0.00  0.00    +0.000 A 
ATOM      3  C   UNL     1      46.630   7.585  12.365  0.00  0.00    +0.000 A 
ATOM      4  C   UNL     1      47.329   6.700  13.195  0.00  0.00    +0.000 A 
ATOM      5  C   UNL     1      46.902   5.368  13.266  0.00  0.00    +0.000 A 
ATOM      6  C   UNL     1      45.838   4.914  12.478  0.00  0.00    +0.000 A 
ENDROOT
BRANCH   1   7
ATOM      7  C   UNL     1      44.065   5.281  10.705  0.00  0.00    +0.000 C 
BRANCH   7  12
ATOM      8  C   UNL     1      45.852   3.141   8.090  0.00  0.00    +0.000 A 
ATOM      9  C   UNL     1      45.423   1.856   8.437  0.00  0.00    +0.000 A 
ATOM     10  C   UNL     1      44.509   1.686   9.480  0.00  0.00    +0.000 A 
ATOM     11  C   UNL     1      44.042   2.793  10.193  0.00  0.00    +0.000 A 
ATOM     12  C   UNL     1      44.483   4.085   9.875  0.00  0.00    +0.000 A 
ATOM     13  C   UNL     1      45.381   4.248   8.810  0.00  0.00    +0.000 A 
BRANCH   8  15
ATOM     14  N   UNL     1      47.907   2.522   6.926  0.00  0.00    +0.000 N 
ATOM     15  C   UNL     1      46.843   3.379   7.008  0.00  0.00    +0.000 C 
ATOM     16  O   UNL     1      46.705   4.284   6.196  0.00  0.00    +0.000 OA
ATOM     17  H   UNL     1      48.516   2.646   6.128  0.00  0.00    +0.000 HD
ATOM     18  H   UNL     1      47.926   1.632   7.401  0.00  0.00    +0.000 HD
ENDBRANCH   8  15
ENDBRANCH   7  12
ENDBRANCH   1   7
BRANCH   4  19
ATOM     19  C   UNL     1      48.512   7.164  14.008  0.00  0.00    +0.000 C 
BRANCH  19  20
ATOM     20  N   UNL     1      48.295   6.960  15.418  0.00  0.00    +0.000 N 
ATOM     21  C   UNL     1      48.956   7.707  16.361  0.00  0.00    +0.000 C 
ATOM     22  O   UNL     1      49.729   8.610  16.056  0.00  0.00    +0.000 OA
ATOM     23  H   UNL     1      47.874   6.077  15.689  0.00  0.00    +0.000 HD
BRANCH  21  24
ATOM     24  C   UNL     1      48.633   7.411  17.762  0.00  0.00    +0.000 A 
ATOM     25  C   UNL     1      48.101   8.405  18.573  0.00  0.00    +0.000 A 
ATOM     26  S   UNL     1      47.714   7.869  20.147  0.00  0.00    +0.000 S 
ATOM     27  C   UNL     1      48.298   6.305  19.816  0.00  0.00    +0.000 A 
ATOM     28  N   UNL     1      48.275   5.333  20.767  0.00  0.00    +0.000 NA
ATOM     29  C   UNL     1      48.777   4.205  20.389  0.00  0.00    +0.000 A 
ATOM     30  N   UNL     1      49.297   3.960  19.145  0.00  0.00    +0.000 N 
ATOM     31  C   UNL     1      49.319   4.903  18.144  0.00  0.00    +0.000 A 
ATOM     32  O   UNL     1      49.764   4.639  17.035  0.00  0.00    +0.000 OA
ATOM     33  C   UNL     1      48.768   6.192  18.520  0.00  0.00    +0.000 A 
ATOM     34  H   UNL     1      49.675   3.053  18.910  0.00  0.00    +0.000 HD
ENDBRANCH  21  24
ENDBRANCH  19  20
ENDBRANCH   4  19
TORSDOF 6
ENDMDL
MODEL 4
REMARK VINA RESULT:    -7.477      3.533      8.279
REMARK INTER + INTRA:         -11.309
REMARK INTER:                 -10.161
REMARK INTRA:                  -1.148
REMARK UNBOUND:                -1.210
REMARK  Name = 
REMARK  6 active torsions:
REMARK  status: ('A' for Active; 'I' for Inactive)
REMARK    1  A    between atoms: C_2  and  C_4
REMARK    2  A    between atoms: C_8  and  C_9
REMARK    3  A    between atoms: C_9  and  C_10
REMARK    4  A    between atoms: C_13  and  C_14
REMARK    5  A    between atoms: C_14  and  N_15
REMARK    6  A    between atoms: C_16  and  C_18
REMARK                            x       y       z     vdW  Elec       q    Type
REMARK                         _______ _______ _______ _____ _____    ______ ____
ROOT
ATOM      1  C   UNL     1      49.527   6.898  16.356  0.00  0.00    +0.000 A 
ATOM      2  C   UNL     1      48.444   6.276  15.718  0.00  0.00    +0.000 A 
ATOM      3  C   UNL     1      48.145   6.554  14.378  0.00  0.00    +0.000 A 
ATOM      4  C   UNL     1      48.929   7.452  13.644  0.00  0.00    +0.000 A 
ATOM      5  C   UNL     1      49.983   8.108  14.294  0.00  0.00    +0.000 A 
ATOM      6  C   UNL     1      50.285   7.829  15.631  0.00  0.00    +0.000 A 
ENDROOT
BRANCH   1   7
ATOM      7  C   UNL     1      49.900   6.538  17.778  0.00  0.00    +0.000 C 
BRANCH   7  12
ATOM      8  C   UNL     1      51.411   3.036  17.514  0.00  0.00    +0.000 A 
ATOM      9  C   UNL     1      52.752   3.284  17.826  0.00  0.00    +0.000 A 
ATOM     10  C   UNL     1      53.157   4.573  18.180  0.00  0.00    +0.000 A 
ATOM     11  C   UNL     1      52.232   5.620  18.199  0.00  0.00    +0.000 A 
ATOM     12  C   UNL     1      50.890   5.394  17.862  0.00  0.00    +0.000 A 
ATOM     13  C   UNL     1      50.489   4.091  17.533  0.00  0.00    +0.000 A 
BRANCH   8  15
ATOM     14  N   UNL     1      51.429   0.609  17.778  0.00  0.00    +0.000 N 
ATOM     15  C   UNL     1      50.930   1.690  17.104  0.00  0.00    +0.000 C 
ATOM     16  O   UNL     1      50.095   1.547  16.222  0.00  0.00    +0.000 OA
ATOM     17  H   UNL     1      51.018  -0.286  17.546  0.00  0.00    +0.000 HD
ATOM     18  H   UNL     1      51.911   0.693  18.660  0.00  0.00    +0.000 HD
ENDBRANCH   8  15
ENDBRANCH   7  12
ENDBRANCH   1   7
BRANCH   4  19
ATOM     19  C   UNL     1      48.648   7.721  12.187  0.00  0.00    +0.000 C 
BRANCH  19  20
ATOM     20  N   UNL     1      47.835   6.682  11.607  0.00  0.00    +0.000 N 
ATOM     21  C   UNL     1      46.482   6.839  11.442  0.00  0.00    +0.000 C 
ATOM     22  O   UNL     1      45.902   7.880  11.738  0.00  0.00    +0.000 OA
ATOM     23  H   UNL     1      48.233   5.749  11.595  0.00  0.00    +0.000 HD
BRANCH  21  24
ATOM     24  C   UNL     1      45.772   5.712  10.823  0.00  0.00    +0.000 A 
ATOM     25  C   UNL     1      45.864   5.506   9.453  0.00  0.00    +0.000 A 
ATOM     26  S   UNL     1      45.041   4.110   8.916  0.00  0.00    +0.000 S 
ATOM     27  C   UNL     1      44.486   3.766  10.487  0.00  0.00    +0.000 A 
ATOM     28  N   UNL     1      43.695   2.687  10.730  0.00  0.00    +0.000 NA
ATOM     29  C   UNL     1      43.323   2.564  11.960  0.00  0.00    +0.000 A 
ATOM     30  N   UNL     1      43.672   3.422  12.970  0.00  0.00    +0.000 N 
ATOM     31  C   UNL     1      44.490   4.511  12.778  0.00  0.00    +0.000 A 
ATOM     32  O   UNL     1      44.805   5.239  13.711  0.00  0.00    +0.000 OA
ATOM     33  C   UNL     1      44.934   4.695  11.409  0.00  0.00    +0.000 A 
ATOM     34  H   UNL     1      43.349   3.270  13.915  0.00  0.00    +0.000 HD
ENDBRANCH  21  24
ENDBRANCH  19  20
ENDBRANCH   4  19
TORSDOF 6
ENDMDL
MODEL 5
REMARK VINA RESULT:    -7.413      3.206      8.698
REMARK INTER + INTRA:         -11.223
REMARK INTER:                 -10.168
REMARK INTRA:                  -1.055
REMARK UNBOUND:                -1.210
REMARK  Name = 
REMARK  6 active torsions:
REMARK  status: ('A' for Active; 'I' for Inactive)
REMARK    1  A    between atoms: C_2  and  C_4
REMARK    2  A    between atoms: C_8  and  C_9
REMARK    3  A    between atoms: C_9  and  C_10
REMARK    4  A    between atoms: C_13  and  C_14
REMARK    5  A    between atoms: C_14  and  N_15
REMARK    6  A    between atoms: C_16  and  C_18
REMARK                            x       y       z     vdW  Elec       q    Type
REMARK                         _______ _______ _______ _____ _____    ______ ____
ROOT
ATOM      1  C   UNL     1      50.150   6.813  16.331  0.00  0.00    +0.000 A 
ATOM      2  C   UNL     1      50.747   7.492  15.259  0.00  0.00    +0.000 A 
ATOM      3  C   UNL     1      50.060   7.670  14.052  0.00  0.00    +0.000 A 
ATOM      4  C   UNL     1      48.757   7.181  13.894  0.00  0.00    +0.000 A 
ATOM      5  C   UNL     1      48.179   6.462  14.949  0.00  0.00    +0.000 A 
ATOM      6  C   UNL     1      48.863   6.288  16.157  0.00  0.00    +0.000 A 
ENDROOT
BRANCH   1   7
ATOM      7  C   UNL     1      50.860   6.692  17.664  0.00  0.00    +0.000 C 
BRANCH   7  12
ATOM      8  C   UNL     1      51.716   2.967  17.594  0.00  0.00    +0.000 A 
ATOM      9  C   UNL     1      53.082   2.986  17.899  0.00  0.00    +0.000 A 
ATOM     10  C   UNL     1      53.713   4.199  18.185  0.00  0.00    +0.000 A 
ATOM     11  C   UNL     1      52.991   5.395  18.144  0.00  0.00    +0.000 A 
ATOM     12  C   UNL     1      51.629   5.395  17.813  0.00  0.00    +0.000 A 
ATOM     13  C   UNL     1      50.998   4.170  17.552  0.00  0.00    +0.000 A 
BRANCH   8  15
ATOM     14  N   UNL     1      51.366   0.574  17.922  0.00  0.00    +0.000 N 
ATOM     15  C   UNL     1      51.000   1.710  17.254  0.00  0.00    +0.000 C 
ATOM     16  O   UNL     1      50.092   1.688  16.434  0.00  0.00    +0.000 OA
ATOM     17  H   UNL     1      50.802  -0.248  17.743  0.00  0.00    +0.000 HD
ATOM     18  H   UNL     1      51.916   0.593  18.768  0.00  0.00    +0.000 HD
ENDBRANCH   8  15
ENDBRANCH   7  12
ENDBRANCH   1   7
BRANCH   4  19
ATOM     19  C   UNL     1      47.989   7.410  12.617  0.00  0.00    +0.000 C 
BRANCH  19  20
ATOM     20  N   UNL     1      47.205   6.254  12.259  0.00  0.00    +0.000 N 
ATOM     21  C   UNL     1      45.834   6.295  12.242  0.00  0.00    +0.000 C 
ATOM     22  O   UNL     1      45.206   7.321  12.488  0.00  0.00    +0.000 OA
ATOM     23  H   UNL     1      47.676   5.356  12.305  0.00  0.00    +0.000 HD
BRANCH  21  24
ATOM     24  C   UNL     1      45.155   5.055  11.845  0.00  0.00    +0.000 A 
ATOM     25  C   UNL     1      44.476   4.304  12.795  0.00  0.00    +0.000 A 
ATOM     26  S   UNL     1      43.682   2.939  12.147  0.00  0.00    +0.000 S 
ATOM     27  C   UNL     1      44.267   3.273  10.584  0.00  0.00    +0.000 A 
ATOM     28  N   UNL     1      43.965   2.462   9.535  0.00  0.00    +0.000 NA
ATOM     29  C   UNL     1      44.500   2.818   8.415  0.00  0.00    +0.000 A 
ATOM     30  N   UNL     1      45.308   3.912   8.249  0.00  0.00    +0.000 N 
ATOM     31  C   UNL     1      45.620   4.775   9.273  0.00  0.00    +0.000 A 
ATOM     32  O   UNL     1      46.321   5.760   9.081  0.00  0.00    +0.000 OA
ATOM     33  C   UNL     1      45.044   4.417  10.556  0.00  0.00    +0.000 A 
ATOM     34  H   UNL     1      45.695   4.138   7.344  0.00  0.00    +0.000 HD
ENDBRANCH  21  24
ENDBRANCH  19  20
ENDBRANCH   4  19
TORSDOF 6
ENDMDL
MODEL 6
REMARK VINA RESULT:    -7.232      2.725      8.423
REMARK INTER + INTRA:         -10.978
REMARK INTER:                  -9.822
REMARK INTRA:                  -1.156
REMARK UNBOUND:                -1.210
REMARK  Name = 
REMARK  6 active torsions:
REMARK  status: ('A' for Active; 'I' for Inactive)
REMARK    1  A    between atoms: C_2  and  C_4
REMARK    2  A    between atoms: C_8  and  C_9
REMARK    3  A    between atoms: C_9  and  C_10
REMARK    4  A    between atoms: C_13  and  C_14
REMARK    5  A    between atoms: C_14  and  N_15
REMARK    6  A    between atoms: C_16  and  C_18
REMARK                            x       y       z     vdW  Elec       q    Type
REMARK                         _______ _______ _______ _____ _____    ______ ____
ROOT
ATOM      1  C   UNL     1      49.320   8.042  15.853  0.00  0.00    +0.000 A 
ATOM      2  C   UNL     1      48.143   8.734  15.535  0.00  0.00    +0.000 A 
ATOM      3  C   UNL     1      47.605   8.679  14.243  0.00  0.00    +0.000 A 
ATOM      4  C   UNL     1      48.227   7.920  13.244  0.00  0.00    +0.000 A 
ATOM      5  C   UNL     1      49.428   7.266  13.549  0.00  0.00    +0.000 A 
ATOM      6  C   UNL     1      49.964   7.318  14.840  0.00  0.00    +0.000 A 
ENDROOT
BRANCH   1   7
ATOM      7  C   UNL     1      49.858   8.035  17.268  0.00  0.00    +0.000 C 
BRANCH   7  12
ATOM      8  C   UNL     1      48.490   4.561  18.089  0.00  0.00    +0.000 A 
ATOM      9  C   UNL     1      48.893   4.407  19.420  0.00  0.00    +0.000 A 
ATOM     10  C   UNL     1      49.555   5.451  20.071  0.00  0.00    +0.000 A 
ATOM     11  C   UNL     1      49.838   6.638  19.390  0.00  0.00    +0.000 A 
ATOM     12  C   UNL     1      49.466   6.797  18.048  0.00  0.00    +0.000 A 
ATOM     13  C   UNL     1      48.779   5.752  17.411  0.00  0.00    +0.000 A 
BRANCH   8  15
ATOM     14  N   UNL     1      48.588   2.477  16.822  0.00  0.00    +0.000 N 
ATOM     15  C   UNL     1      47.807   3.474  17.339  0.00  0.00    +0.000 C 
ATOM     16  O   UNL     1      46.591   3.447  17.211  0.00  0.00    +0.000 OA
ATOM     17  H   UNL     1      48.094   1.702  16.399  0.00  0.00    +0.000 HD
ATOM     18  H   UNL     1      49.542   2.326  17.115  0.00  0.00    +0.000 HD
ENDBRANCH   8  15
ENDBRANCH   7  12
ENDBRANCH   1   7
BRANCH   4  19
ATOM     19  C   UNL     1      47.630   7.811  11.864  0.00  0.00    +0.000 C 
BRANCH  19  20
ATOM     20  N   UNL     1      46.938   6.559  11.686  0.00  0.00    +0.000 N 
ATOM     21  C   UNL     1      45.569   6.501  11.606  0.00  0.00    +0.000 C 
ATOM     22  O   UNL     1      44.868   7.509  11.639  0.00  0.00    +0.000 OA
ATOM     23  H   UNL     1      47.459   5.718  11.910  0.00  0.00    +0.000 HD
BRANCH  21  24
ATOM     24  C   UNL     1      44.989   5.167  11.409  0.00  0.00    +0.000 A 
ATOM     25  C   UNL     1      44.326   4.540  12.455  0.00  0.00    +0.000 A 
ATOM     26  S   UNL     1      43.648   3.032  12.030  0.00  0.00    +0.000 S 
ATOM     27  C   UNL     1      44.268   3.139  10.448  0.00  0.00    +0.000 A 
ATOM     28  N   UNL     1      44.060   2.143   9.546  0.00  0.00    +0.000 NA
ATOM     29  C   UNL     1      44.612   2.342   8.395  0.00  0.00    +0.000 A 
ATOM     30  N   UNL     1      45.352   3.448   8.066  0.00  0.00    +0.000 N 
ATOM     31  C   UNL     1      45.568   4.491   8.936  0.00  0.00    +0.000 A 
ATOM     32  O   UNL     1      46.209   5.477   8.596  0.00  0.00    +0.000 OA
ATOM     33  C   UNL     1      44.969   4.315  10.246  0.00  0.00    +0.000 A 
ATOM     34  H   UNL     1      45.757   3.545   7.146  0.00  0.00    +0.000 HD
ENDBRANCH  21  24
ENDBRANCH  19  20
ENDBRANCH   4  19
TORSDOF 6
ENDMDL
MODEL 7
REMARK VINA RESULT:    -7.164      1.800      2.460
REMARK INTER + INTRA:         -10.886
REMARK INTER:                  -9.470
REMARK INTRA:                  -1.416
REMARK UNBOUND:                -1.210
REMARK  Name = 
REMARK  6 active torsions:
REMARK  status: ('A' for Active; 'I' for Inactive)
REMARK    1  A    between atoms: C_2  and  C_4
REMARK    2  A    between atoms: C_8  and  C_9
REMARK    3  A    between atoms: C_9  and  C_10
REMARK    4  A    between atoms: C_13  and  C_14
REMARK    5  A    between atoms: C_14  and  N_15
REMARK    6  A    between atoms: C_16  and  C_18
REMARK                            x       y       z     vdW  Elec       q    Type
REMARK                         _______ _______ _______ _____ _____    ______ ____
ROOT
ATOM      1  C   UNL     1      45.758   7.554  11.984  0.00  0.00    +0.000 A 
ATOM      2  C   UNL     1      46.843   6.685  11.800  0.00  0.00    +0.000 A 
ATOM      3  C   UNL     1      48.083   6.952  12.393  0.00  0.00    +0.000 A 
ATOM      4  C   UNL     1      48.261   8.087  13.193  0.00  0.00    +0.000 A 
ATOM      5  C   UNL     1      47.190   8.979  13.339  0.00  0.00    +0.000 A 
ATOM      6  C   UNL     1      45.950   8.712  12.750  0.00  0.00    +0.000 A 
ENDROOT
BRANCH   1   7
ATOM      7  C   UNL     1      44.396   7.224  11.410  0.00  0.00    +0.000 C 
BRANCH   7  12
ATOM      8  C   UNL     1      44.124   3.571  10.319  0.00  0.00    +0.000 A 
ATOM      9  C   UNL     1      43.692   2.955  11.498  0.00  0.00    +0.000 A 
ATOM     10  C   UNL     1      43.431   3.730  12.631  0.00  0.00    +0.000 A 
ATOM     11  C   UNL     1      43.624   5.114  12.596  0.00  0.00    +0.000 A 
ATOM     12  C   UNL     1      44.083   5.742  11.430  0.00  0.00    +0.000 A 
ATOM     13  C   UNL     1      44.318   4.958  10.290  0.00  0.00    +0.000 A 
BRANCH   8  15
ATOM     14  N   UNL     1      44.400   3.454   7.896  0.00  0.00    +0.000 N 
ATOM     15  C   UNL     1      44.444   2.793   9.092  0.00  0.00    +0.000 C 
ATOM     16  O   UNL     1      44.767   1.614   9.144  0.00  0.00    +0.000 OA
ATOM     17  H   UNL     1      44.712   2.931   7.088  0.00  0.00    +0.000 HD
ATOM     18  H   UNL     1      44.390   4.461   7.831  0.00  0.00    +0.000 HD
ENDBRANCH   8  15
ENDBRANCH   7  12
ENDBRANCH   1   7
BRANCH   4  19
ATOM     19  C   UNL     1      49.576   8.359  13.879  0.00  0.00    +0.000 C 
BRANCH  19  20
ATOM     20  N   UNL     1      49.716   7.575  15.081  0.00  0.00    +0.000 N 
ATOM     21  C   UNL     1      49.303   8.050  16.300  0.00  0.00    +0.000 C 
ATOM     22  O   UNL     1      48.758   9.143  16.425  0.00  0.00    +0.000 OA
ATOM     23  H   UNL     1      50.376   6.805  15.045  0.00  0.00    +0.000 HD
BRANCH  21  24
ATOM     24  C   UNL     1      49.486   7.146  17.442  0.00  0.00    +0.000 A 
ATOM     25  C   UNL     1      50.149   7.594  18.578  0.00  0.00    +0.000 A 
ATOM     26  S   UNL     1      50.204   6.441  19.835  0.00  0.00    +0.000 S 
ATOM     27  C   UNL     1      49.395   5.285  18.884  0.00  0.00    +0.000 A 
ATOM     28  N   UNL     1      49.131   4.041  19.368  0.00  0.00    +0.000 NA
ATOM     29  C   UNL     1      48.540   3.258  18.529  0.00  0.00    +0.000 A 
ATOM     30  N   UNL     1      48.187   3.606  17.251  0.00  0.00    +0.000 N 
ATOM     31  C   UNL     1      48.410   4.857  16.728  0.00  0.00    +0.000 A 
ATOM     32  O   UNL     1      48.054   5.142  15.592  0.00  0.00    +0.000 OA
ATOM     33  C   UNL     1      49.076   5.777  17.632  0.00  0.00    +0.000 A 
ATOM     34  H   UNL     1      47.724   2.945  16.643  0.00  0.00    +0.000 HD
ENDBRANCH  21  24
ENDBRANCH  19  20
ENDBRANCH   4  19
TORSDOF 6
ENDMDL
MODEL 8
REMARK VINA RESULT:    -7.140      4.704      7.450
REMARK INTER + INTRA:         -10.854
REMARK INTER:                  -9.806
REMARK INTRA:                  -1.048
REMARK UNBOUND:                -1.210
REMARK  Name = 
REMARK  6 active torsions:
REMARK  status: ('A' for Active; 'I' for Inactive)
REMARK    1  A    between atoms: C_2  and  C_4
REMARK    2  A    between atoms: C_8  and  C_9
REMARK    3  A    between atoms: C_9  and  C_10
REMARK    4  A    between atoms: C_13  and  C_14
REMARK    5  A    between atoms: C_14  and  N_15
REMARK    6  A    between atoms: C_16  and  C_18
REMARK                            x       y       z     vdW  Elec       q    Type
REMARK                         _______ _______ _______ _____ _____    ______ ____
ROOT
ATOM      1  C   UNL     1      50.488   9.016  11.165  0.00  0.00    +0.000 A 
ATOM      2  C   UNL     1      50.064   7.710  11.448  0.00  0.00    +0.000 A 
ATOM      3  C   UNL     1      48.773   7.464  11.932  0.00  0.00    +0.000 A 
ATOM      4  C   UNL     1      47.874   8.519  12.132  0.00  0.00    +0.000 A 
ATOM      5  C   UNL     1      48.313   9.828  11.893  0.00  0.00    +0.000 A 
ATOM      6  C   UNL     1      49.601  10.074  11.406  0.00  0.00    +0.000 A 
ENDROOT
BRANCH   1   7
ATOM      7  C   UNL     1      51.854   9.275  10.565  0.00  0.00    +0.000 C 
BRANCH   7  12
ATOM      8  C   UNL     1      53.301   6.142   8.922  0.00  0.00    +0.000 A 
ATOM      9  C   UNL     1      54.280   5.764   9.848  0.00  0.00    +0.000 A 
ATOM     10  C   UNL     1      54.431   6.489  11.033  0.00  0.00    +0.000 A 
ATOM     11  C   UNL     1      53.626   7.603  11.284  0.00  0.00    +0.000 A 
ATOM     12  C   UNL     1      52.661   8.011  10.354  0.00  0.00    +0.000 A 
ATOM     13  C   UNL     1      52.498   7.261   9.178  0.00  0.00    +0.000 A 
BRANCH   8  15
ATOM     14  N   UNL     1      53.726   4.210   7.491  0.00  0.00    +0.000 N 
ATOM     15  C   UNL     1      53.114   5.425   7.633  0.00  0.00    +0.000 C 
ATOM     16  O   UNL     1      52.414   5.881   6.739  0.00  0.00    +0.000 OA
ATOM     17  H   UNL     1      53.509   3.700   6.645  0.00  0.00    +0.000 HD
ATOM     18  H   UNL     1      54.092   3.691   8.275  0.00  0.00    +0.000 HD
ENDBRANCH   8  15
ENDBRANCH   7  12
ENDBRANCH   1   7
BRANCH   4  19
ATOM     19  C   UNL     1      46.465   8.262  12.604  0.00  0.00    +0.000 C 
BRANCH  19  20
ATOM     20  N   UNL     1      46.046   6.916  12.306  0.00  0.00    +0.000 N 
ATOM     21  C   UNL     1      44.860   6.658  11.667  0.00  0.00    +0.000 C 
ATOM     22  O   UNL     1      44.117   7.555  11.279  0.00  0.00    +0.000 OA
ATOM     23  H   UNL     1      46.501   6.174  12.829  0.00  0.00    +0.000 HD
BRANCH  21  24
ATOM     24  C   UNL     1      44.559   5.245  11.408  0.00  0.00    +0.000 A 
ATOM     25  C   UNL     1      43.844   4.508  12.344  0.00  0.00    +0.000 A 
ATOM     26  S   UNL     1      43.516   2.908  11.848  0.00  0.00    +0.000 S 
ATOM     27  C   UNL     1      44.368   3.127  10.391  0.00  0.00    +0.000 A 
ATOM     28  N   UNL     1      44.490   2.114   9.492  0.00  0.00    +0.000 NA
ATOM     29  C   UNL     1      45.187   2.411   8.446  0.00  0.00    +0.000 A 
ATOM     30  N   UNL     1      45.772   3.629   8.218  0.00  0.00    +0.000 N 
ATOM     31  C   UNL     1      45.656   4.689   9.085  0.00  0.00    +0.000 A 
ATOM     32  O   UNL     1      46.167   5.773   8.834  0.00  0.00    +0.000 OA
ATOM     33  C   UNL     1      44.882   4.407  10.280  0.00  0.00    +0.000 A 
ATOM     34  H   UNL     1      46.305   3.798   7.377  0.00  0.00    +0.000 HD
ENDBRANCH  21  24
ENDBRANCH  19  20
ENDBRANCH   4  19
TORSDOF 6
ENDMDL
MODEL 9
REMARK VINA RESULT:    -6.931      2.629      3.575
REMARK INTER + INTRA:         -10.571
REMARK INTER:                  -9.471
REMARK INTRA:                  -1.101
REMARK UNBOUND:                -1.210
REMARK  Name = 
REMARK  6 active torsions:
REMARK  status: ('A' for Active; 'I' for Inactive)
REMARK    1  A    between atoms: C_2  and  C_4
REMARK    2  A    between atoms: C_8  and  C_9
REMARK    3  A    between atoms: C_9  and  C_10
REMARK    4  A    between atoms: C_13  and  C_14
REMARK    5  A    between atoms: C_14  and  N_15
REMARK    6  A    between atoms: C_16  and  C_18
REMARK                            x       y       z     vdW  Elec       q    Type
REMARK                         _______ _______ _______ _____ _____    ______ ____
ROOT
ATOM      1  C   UNL     1      46.278   7.414  12.315  0.00  0.00    +0.000 A 
ATOM      2  C   UNL     1      47.299   6.473  12.126  0.00  0.00    +0.000 A 
ATOM      3  C   UNL     1      48.461   6.509  12.906  0.00  0.00    +0.000 A 
ATOM      4  C   UNL     1      48.622   7.481  13.901  0.00  0.00    +0.000 A 
ATOM      5  C   UNL     1      47.622   8.449  14.059  0.00  0.00    +0.000 A 
ATOM      6  C   UNL     1      46.459   8.412  13.283  0.00  0.00    +0.000 A 
ENDROOT
BRANCH   1   7
ATOM      7  C   UNL     1      44.987   7.327  11.528  0.00  0.00    +0.000 C 
BRANCH   7  12
ATOM      8  C   UNL     1      44.212   3.784  10.319  0.00  0.00    +0.000 A 
ATOM      9  C   UNL     1      43.534   3.252  11.421  0.00  0.00    +0.000 A 
ATOM     10  C   UNL     1      43.274   4.058  12.532  0.00  0.00    +0.000 A 
ATOM     11  C   UNL     1      43.712   5.385  12.557  0.00  0.00    +0.000 A 
ATOM     12  C   UNL     1      44.417   5.924  11.472  0.00  0.00    +0.000 A 
ATOM     13  C   UNL     1      44.651   5.115  10.350  0.00  0.00    +0.000 A 
BRANCH   8  15
ATOM     14  N   UNL     1      44.661   1.614   9.295  0.00  0.00    +0.000 N 
ATOM     15  C   UNL     1      44.540   2.966   9.122  0.00  0.00    +0.000 C 
ATOM     16  O   UNL     1      44.666   3.469   8.014  0.00  0.00    +0.000 OA
ATOM     17  H   UNL     1      44.790   1.069   8.452  0.00  0.00    +0.000 HD
ATOM     18  H   UNL     1      44.321   1.138  10.117  0.00  0.00    +0.000 HD
ENDBRANCH   8  15
ENDBRANCH   7  12
ENDBRANCH   1   7
BRANCH   4  19
ATOM     19  C   UNL     1      49.845   7.499  14.783  0.00  0.00    +0.000 C 
BRANCH  19  20
ATOM     20  N   UNL     1      49.492   7.406  16.177  0.00  0.00    +0.000 N 
ATOM     21  C   UNL     1      48.990   6.249  16.715  0.00  0.00    +0.000 C 
ATOM     22  O   UNL     1      48.855   5.224  16.052  0.00  0.00    +0.000 OA
ATOM     23  H   UNL     1      49.354   8.284  16.668  0.00  0.00    +0.000 HD
BRANCH  21  24
ATOM     24  C   UNL     1      48.685   6.281  18.151  0.00  0.00    +0.000 A 
ATOM     25  C   UNL     1      48.926   5.159  18.933  0.00  0.00    +0.000 A 
ATOM     26  S   UNL     1      48.589   5.397  20.590  0.00  0.00    +0.000 S 
ATOM     27  C   UNL     1      48.055   6.988  20.308  0.00  0.00    +0.000 A 
ATOM     28  N   UNL     1      47.602   7.765  21.328  0.00  0.00    +0.000 NA
ATOM     29  C   UNL     1      47.201   8.938  20.967  0.00  0.00    +0.000 A 
ATOM     30  N   UNL     1      47.214   9.405  19.678  0.00  0.00    +0.000 N 
ATOM     31  C   UNL     1      47.686   8.666  18.620  0.00  0.00    +0.000 A 
ATOM     32  O   UNL     1      47.710   9.127  17.486  0.00  0.00    +0.000 OA
ATOM     33  C   UNL     1      48.147   7.336  18.973  0.00  0.00    +0.000 A 
ATOM     34  H   UNL     1      46.887  10.336  19.461  0.00  0.00    +0.000 HD
ENDBRANCH  21  24
ENDBRANCH  19  20
ENDBRANCH   4  19
TORSDOF 6
ENDMDL
