MODEL 1
REMARK VINA RESULT:    -8.189      0.000      0.000
REMARK INTER + INTRA:         -12.619
REMARK INTER:                 -11.301
REMARK INTRA:                  -1.317
REMARK UNBOUND:                -1.317
REMARK  Name = 
REMARK  8 active torsions:
REMARK  status: ('A' for Active; 'I' for Inactive)
REMARK    1  A    between atoms: C_1  and  C_2
REMARK    2  A    between atoms: C_2  and  C_3
REMARK    3  A    between atoms: C_2  and  N_19
REMARK    4  A    between atoms: C_3  and  C_4
REMARK    5  A    between atoms: C_8  and  C_9
REMARK    6  A    between atoms: C_14  and  C_15
REMARK    7  A    between atoms: C_15  and  O_17
REMARK    8  A    between atoms: C_23  and  C_24
REMARK                            x       y       z     vdW  Elec       q    Type
REMARK                         _______ _______ _______ _____ _____    ______ ____
ROOT
ATOM      1  C   UNL     1      47.414   8.250  12.270  0.00  0.00    +0.000 C 
ENDROOT
BRANCH   1   2
ATOM      2  C   UNL     1      46.167   7.542  11.780  0.00  0.00    +0.000 A 
ATOM      3  C   UNL     1      44.891   8.010  12.111  0.00  0.00    +0.000 A 
ATOM      4  C   UNL     1      43.764   7.282  11.750  0.00  0.00    +0.000 A 
ATOM      5  C   UNL     1      43.906   6.090  11.035  0.00  0.00    +0.000 A 
ATOM      6  C   UNL     1      45.167   5.625  10.610  0.00  0.00    +0.000 A 
ATOM      7  C   UNL     1      46.286   6.383  10.994  0.00  0.00    +0.000 A 
BRANCH   6   8
ATOM      8  C   UNL     1      45.286   4.431   9.729  0.00  0.00    +0.000 A 
ATOM      9  C   UNL     1      45.874   4.616   8.452  0.00  0.00    +0.000 A 
ATOM     10  C   UNL     1      46.134   3.556   7.580  0.00  0.00    +0.000 A 
ATOM     11  C   UNL     1      45.829   2.261   7.963  0.00  0.00    +0.000 A 
ATOM     12  C   UNL     1      45.234   2.035   9.202  0.00  0.00    +0.000 A 
ATOM     13  C   UNL     1      44.938   3.102  10.077  0.00  0.00    +0.000 A 
BRANCH  13  14
ATOM     14  C   UNL     1      44.281   2.678  11.348  0.00  0.00    +0.000 C 
ATOM     15  O   UNL     1      43.079   2.483  11.421  0.00  0.00    +0.000 OA
BRANCH  14  16
ATOM     16  O   UNL     1      45.094   2.620  12.417  0.00  0.00    +0.000 OA
ATOM     17  H   UNL     1      45.102   3.415  12.978  0.00  0.00    +0.000 HD
ENDBRANCH  14  16
ENDBRANCH  13  14
ENDBRANCH   6   8
ENDBRANCH   1   2
BRANCH   1  19
ATOM     18  C   UNL     1      49.762   7.603  11.495  0.00  0.00    +0.000 C 
ATOM     19  C   UNL     1      48.621   7.303  12.478  0.00  0.00    +0.000 C 
BRANCH  19  20
ATOM     20  N   UNL     1      49.133   7.452  13.852  0.00  0.00    +0.000 N 
ATOM     21  C   UNL     1      48.700   6.489  14.774  0.00  0.00    +0.000 A 
ATOM     22  C   UNL     1      49.201   6.540  16.071  0.00  0.00    +0.000 A 
ATOM     23  C   UNL     1      48.783   5.593  17.011  0.00  0.00    +0.000 A 
ATOM     24  C   UNL     1      47.867   4.609  16.640  0.00  0.00    +0.000 A 
ATOM     25  C   UNL     1      47.435   4.621  15.326  0.00  0.00    +0.000 A 
ATOM     26  N   UNL     1      47.832   5.528  14.401  0.00  0.00    +0.000 NA
ATOM     27  H   UNL     1      48.972   8.376  14.244  0.00  0.00    +0.000 HD
BRANCH  24  28
ATOM     28  C   UNL     1      47.407   3.622  17.644  0.00  0.00    +0.000 C 
ATOM     29  N   UNL     1      48.048   3.552  18.850  0.00  0.00    +0.000 N 
ATOM     30  O   UNL     1      46.477   2.866  17.405  0.00  0.00    +0.000 OA
ATOM     31  H   UNL     1      48.840   4.104  19.140  0.00  0.00    +0.000 HD
ATOM     32  H   UNL     1      47.709   2.851  19.499  0.00  0.00    +0.000 HD
ENDBRANCH  24  28
ENDBRANCH  19  20
ENDBRANCH   1  19
TORSDOF 7
ENDMDL
MODEL 2
REMARK VINA RESULT:    -7.637      1.198      1.601
REMARK INTER + INTRA:         -11.857
REMARK INTER:                 -10.440
REMARK INTRA:                  -1.417
REMARK UNBOUND:                -1.317
REMARK  Name = 
REMARK  8 active torsions:
REMARK  status: ('A' for Active; 'I' for Inactive)
REMARK    1  A    between atoms: C_1  and  C_2
REMARK    2  A    between atoms: C_2  and  C_3
REMARK    3  A    between atoms: C_2  and  N_19
REMARK    4  A    between atoms: C_3  and  C_4
REMARK    5  A    between atoms: C_8  and  C_9
REMARK    6  A    between atoms: C_14  and  C_15
REMARK    7  A    between atoms: C_15  and  O_17
REMARK    8  A    between atoms: C_23  and  C_24
REMARK                            x       y       z     vdW  Elec       q    Type
REMARK                         _______ _______ _______ _____ _____    ______ ____
ROOT
ATOM      1  C   UNL     1      48.078   8.840  13.174  0.00  0.00    +0.000 C 
ENDROOT
BRANCH   1   2
ATOM      2  C   UNL     1      46.796   8.571  12.413  0.00  0.00    +0.000 A 
ATOM      3  C   UNL     1      45.857   9.585  12.194  0.00  0.00    +0.000 A 
ATOM      4  C   UNL     1      44.639   9.291  11.596  0.00  0.00    +0.000 A 
ATOM      5  C   UNL     1      44.358   7.984  11.193  0.00  0.00    +0.000 A 
ATOM      6  C   UNL     1      45.307   6.949  11.320  0.00  0.00    +0.000 A 
ATOM      7  C   UNL     1      46.529   7.279  11.931  0.00  0.00    +0.000 A 
BRANCH   6   8
ATOM      8  C   UNL     1      45.045   5.596  10.756  0.00  0.00    +0.000 A 
ATOM      9  C   UNL     1      45.553   5.316   9.462  0.00  0.00    +0.000 A 
ATOM     10  C   UNL     1      45.463   4.054   8.872  0.00  0.00    +0.000 A 
ATOM     11  C   UNL     1      44.871   3.012   9.567  0.00  0.00    +0.000 A 
ATOM     12  C   UNL     1      44.343   3.246  10.834  0.00  0.00    +0.000 A 
ATOM     13  C   UNL     1      44.401   4.526  11.426  0.00  0.00    +0.000 A 
BRANCH  13  14
ATOM     14  C   UNL     1      43.766   4.599  12.774  0.00  0.00    +0.000 C 
ATOM     15  O   UNL     1      44.122   3.884  13.696  0.00  0.00    +0.000 OA
BRANCH  14  16
ATOM     16  O   UNL     1      42.718   5.437  12.865  0.00  0.00    +0.000 OA
ATOM     17  H   UNL     1      41.856   5.010  13.018  0.00  0.00    +0.000 HD
ENDBRANCH  14  16
ENDBRANCH  13  14
ENDBRANCH   6   8
ENDBRANCH   1   2
BRANCH   1  19
ATOM     18  C   UNL     1      50.186   7.841  12.129  0.00  0.00    +0.000 C 
ATOM     19  C   UNL     1      49.067   7.648  13.163  0.00  0.00    +0.000 C 
BRANCH  19  20
ATOM     20  N   UNL     1      49.677   7.500  14.496  0.00  0.00    +0.000 N 
ATOM     21  C   UNL     1      49.150   6.480  15.301  0.00  0.00    +0.000 A 
ATOM     22  C   UNL     1      49.730   6.250  16.544  0.00  0.00    +0.000 A 
ATOM     23  C   UNL     1      49.222   5.241  17.367  0.00  0.00    +0.000 A 
ATOM     24  C   UNL     1      48.139   4.476  16.934  0.00  0.00    +0.000 A 
ATOM     25  C   UNL     1      47.637   4.759  15.677  0.00  0.00    +0.000 A 
ATOM     26  N   UNL     1      48.119   5.731  14.864  0.00  0.00    +0.000 NA
ATOM     27  H   UNL     1      49.690   8.364  15.031  0.00  0.00    +0.000 HD
BRANCH  24  28
ATOM     28  C   UNL     1      47.588   3.423  17.819  0.00  0.00    +0.000 C 
ATOM     29  N   UNL     1      48.232   3.133  18.990  0.00  0.00    +0.000 N 
ATOM     30  O   UNL     1      46.579   2.806  17.510  0.00  0.00    +0.000 OA
ATOM     31  H   UNL     1      49.082   3.557  19.326  0.00  0.00    +0.000 HD
ATOM     32  H   UNL     1      47.827   2.395  19.554  0.00  0.00    +0.000 HD
ENDBRANCH  24  28
ENDBRANCH  19  20
ENDBRANCH   1  19
TORSDOF 7
ENDMDL
MODEL 3
REMARK VINA RESULT:    -7.292      3.453      7.436
REMARK INTER + INTRA:         -11.380
REMARK INTER:                 -10.445
REMARK INTRA:                  -0.935
REMARK UNBOUND:                -1.317
REMARK  Name = 
REMARK  8 active torsions:
REMARK  status: ('A' for Active; 'I' for Inactive)
REMARK    1  A    between atoms: C_1  and  C_2
REMARK    2  A    between atoms: C_2  and  C_3
REMARK    3  A    between atoms: C_2  and  N_19
REMARK    4  A    between atoms: C_3  and  C_4
REMARK    5  A    between atoms: C_8  and  C_9
REMARK    6  A    between atoms: C_14  and  C_15
REMARK    7  A    between atoms: C_15  and  O_17
REMARK    8  A    between atoms: C_23  and  C_24
REMARK                            x       y       z     vdW  Elec       q    Type
REMARK                         _______ _______ _______ _____ _____    ______ ____
ROOT
ATOM      1  C   UNL     1      44.751   4.949  12.633  0.00  0.00    +0.000 C 
ENDROOT
BRANCH   1   2
ATOM      2  C   UNL     1      45.390   6.321  12.582  0.00  0.00    +0.000 A 
ATOM      3  C   UNL     1      44.612   7.481  12.503  0.00  0.00    +0.000 A 
ATOM      4  C   UNL     1      45.219   8.720  12.340  0.00  0.00    +0.000 A 
ATOM      5  C   UNL     1      46.611   8.809  12.277  0.00  0.00    +0.000 A 
ATOM      6  C   UNL     1      47.436   7.677  12.434  0.00  0.00    +0.000 A 
ATOM      7  C   UNL     1      46.790   6.439  12.595  0.00  0.00    +0.000 A 
BRANCH   6   8
ATOM      8  C   UNL     1      48.917   7.812  12.508  0.00  0.00    +0.000 A 
ATOM      9  C   UNL     1      49.603   8.158  11.316  0.00  0.00    +0.000 A 
ATOM     10  C   UNL     1      50.975   8.415  11.282  0.00  0.00    +0.000 A 
ATOM     11  C   UNL     1      51.715   8.350  12.451  0.00  0.00    +0.000 A 
ATOM     12  C   UNL     1      51.085   7.997  13.641  0.00  0.00    +0.000 A 
ATOM     13  C   UNL     1      49.704   7.704  13.680  0.00  0.00    +0.000 A 
BRANCH  13  14
ATOM     14  C   UNL     1      49.205   7.321  15.033  0.00  0.00    +0.000 C 
ATOM     15  O   UNL     1      49.101   6.156  15.379  0.00  0.00    +0.000 OA
BRANCH  14  16
ATOM     16  O   UNL     1      48.794   8.347  15.800  0.00  0.00    +0.000 OA
ATOM     17  H   UNL     1      48.787   9.217  15.362  0.00  0.00    +0.000 HD
ENDBRANCH  14  16
ENDBRANCH  13  14
ENDBRANCH   6   8
ENDBRANCH   1   2
BRANCH   1  19
ATOM     18  C   UNL     1      42.520   5.143  11.400  0.00  0.00    +0.000 C 
ATOM     19  C   UNL     1      43.952   4.590  11.356  0.00  0.00    +0.000 C 
BRANCH  19  20
ATOM     20  N   UNL     1      44.635   5.147  10.174  0.00  0.00    +0.000 N 
ATOM     21  C   UNL     1      45.268   4.217   9.338  0.00  0.00    +0.000 A 
ATOM     22  C   UNL     1      45.873   4.677   8.173  0.00  0.00    +0.000 A 
ATOM     23  C   UNL     1      46.514   3.770   7.323  0.00  0.00    +0.000 A 
ATOM     24  C   UNL     1      46.541   2.415   7.653  0.00  0.00    +0.000 A 
ATOM     25  C   UNL     1      45.899   2.043   8.819  0.00  0.00    +0.000 A 
ATOM     26  N   UNL     1      45.269   2.907   9.653  0.00  0.00    +0.000 NA
ATOM     27  H   UNL     1      45.296   5.885  10.401  0.00  0.00    +0.000 HD
BRANCH  24  28
ATOM     28  C   UNL     1      47.242   1.460   6.763  0.00  0.00    +0.000 C 
ATOM     29  N   UNL     1      48.183   1.932   5.890  0.00  0.00    +0.000 N 
ATOM     30  O   UNL     1      46.981   0.267   6.790  0.00  0.00    +0.000 OA
ATOM     31  H   UNL     1      48.453   2.895   5.764  0.00  0.00    +0.000 HD
ATOM     32  H   UNL     1      48.623   1.244   5.290  0.00  0.00    +0.000 HD
ENDBRANCH  24  28
ENDBRANCH  19  20
ENDBRANCH   1  19
TORSDOF 7
ENDMDL
MODEL 4
REMARK VINA RESULT:    -6.919      1.671      1.909
REMARK INTER + INTRA:         -10.865
REMARK INTER:                 -10.198
REMARK INTRA:                  -0.667
REMARK UNBOUND:                -1.317
REMARK  Name = 
REMARK  8 active torsions:
REMARK  status: ('A' for Active; 'I' for Inactive)
REMARK    1  A    between atoms: C_1  and  C_2
REMARK    2  A    between atoms: C_2  and  C_3
REMARK    3  A    between atoms: C_2  and  N_19
REMARK    4  A    between atoms: C_3  and  C_4
REMARK    5  A    between atoms: C_8  and  C_9
REMARK    6  A    between atoms: C_14  and  C_15
REMARK    7  A    between atoms: C_15  and  O_17
REMARK    8  A    between atoms: C_23  and  C_24
REMARK                            x       y       z     vdW  Elec       q    Type
REMARK                         _______ _______ _______ _____ _____    ______ ____
ROOT
ATOM      1  C   UNL     1      47.722   7.862  13.940  0.00  0.00    +0.000 C 
ENDROOT
BRANCH   1   2
ATOM      2  C   UNL     1      46.617   7.839  12.905  0.00  0.00    +0.000 A 
ATOM      3  C   UNL     1      45.906   8.998  12.578  0.00  0.00    +0.000 A 
ATOM      4  C   UNL     1      44.821   8.932  11.713  0.00  0.00    +0.000 A 
ATOM      5  C   UNL     1      44.452   7.707  11.152  0.00  0.00    +0.000 A 
ATOM      6  C   UNL     1      45.189   6.530  11.390  0.00  0.00    +0.000 A 
ATOM      7  C   UNL     1      46.280   6.631  12.271  0.00  0.00    +0.000 A 
BRANCH   6   8
ATOM      8  C   UNL     1      44.868   5.265  10.673  0.00  0.00    +0.000 A 
ATOM      9  C   UNL     1      45.451   5.070   9.396  0.00  0.00    +0.000 A 
ATOM     10  C   UNL     1      45.309   3.883   8.674  0.00  0.00    +0.000 A 
ATOM     11  C   UNL     1      44.585   2.833   9.215  0.00  0.00    +0.000 A 
ATOM     12  C   UNL     1      43.980   2.988  10.459  0.00  0.00    +0.000 A 
ATOM     13  C   UNL     1      44.092   4.195  11.182  0.00  0.00    +0.000 A 
BRANCH  13  14
ATOM     14  C   UNL     1      43.360   4.190  12.483  0.00  0.00    +0.000 C 
ATOM     15  O   UNL     1      42.548   5.054  12.772  0.00  0.00    +0.000 OA
BRANCH  14  16
ATOM     16  O   UNL     1      43.732   3.224  13.341  0.00  0.00    +0.000 OA
ATOM     17  H   UNL     1      43.077   2.517  13.481  0.00  0.00    +0.000 HD
ENDBRANCH  14  16
ENDBRANCH  13  14
ENDBRANCH   6   8
ENDBRANCH   1   2
BRANCH   1  19
ATOM     18  C   UNL     1      49.567   7.690  12.179  0.00  0.00    +0.000 C 
ATOM     19  C   UNL     1      49.007   7.123  13.492  0.00  0.00    +0.000 C 
BRANCH  19  20
ATOM     20  N   UNL     1      50.038   7.248  14.537  0.00  0.00    +0.000 N 
ATOM     21  C   UNL     1      49.805   6.528  15.717  0.00  0.00    +0.000 A 
ATOM     22  C   UNL     1      50.775   6.554  16.713  0.00  0.00    +0.000 A 
ATOM     23  C   UNL     1      50.566   5.847  17.901  0.00  0.00    +0.000 A 
ATOM     24  C   UNL     1      49.386   5.124  18.075  0.00  0.00    +0.000 A 
ATOM     25  C   UNL     1      48.484   5.137  17.027  0.00  0.00    +0.000 A 
ATOM     26  N   UNL     1      48.672   5.813  15.867  0.00  0.00    +0.000 NA
ATOM     27  H   UNL     1      50.252   8.211  14.779  0.00  0.00    +0.000 HD
BRANCH  24  28
ATOM     28  C   UNL     1      49.156   4.395  19.345  0.00  0.00    +0.000 C 
ATOM     29  N   UNL     1      48.385   3.265  19.332  0.00  0.00    +0.000 N 
ATOM     30  O   UNL     1      49.633   4.796  20.396  0.00  0.00    +0.000 OA
ATOM     31  H   UNL     1      47.922   2.865  18.532  0.00  0.00    +0.000 HD
ATOM     32  H   UNL     1      48.243   2.810  20.227  0.00  0.00    +0.000 HD
ENDBRANCH  24  28
ENDBRANCH  19  20
ENDBRANCH   1  19
TORSDOF 7
ENDMDL
MODEL 5
REMARK VINA RESULT:    -6.864      2.444      4.118
REMARK INTER + INTRA:         -10.790
REMARK INTER:                  -9.219
REMARK INTRA:                  -1.571
REMARK UNBOUND:                -1.317
REMARK  Name = 
REMARK  8 active torsions:
REMARK  status: ('A' for Active; 'I' for Inactive)
REMARK    1  A    between atoms: C_1  and  C_2
REMARK    2  A    between atoms: C_2  and  C_3
REMARK    3  A    between atoms: C_2  and  N_19
REMARK    4  A    between atoms: C_3  and  C_4
REMARK    5  A    between atoms: C_8  and  C_9
REMARK    6  A    between atoms: C_14  and  C_15
REMARK    7  A    between atoms: C_15  and  O_17
REMARK    8  A    between atoms: C_23  and  C_24
REMARK                            x       y       z     vdW  Elec       q    Type
REMARK                         _______ _______ _______ _____ _____    ______ ____
ROOT
ATOM      1  C   UNL     1      48.213   9.260  15.920  0.00  0.00    +0.000 C 
ENDROOT
BRANCH   1   2
ATOM      2  C   UNL     1      48.514   8.417  14.699  0.00  0.00    +0.000 A 
ATOM      3  C   UNL     1      49.764   8.468  14.072  0.00  0.00    +0.000 A 
ATOM      4  C   UNL     1      49.980   7.776  12.887  0.00  0.00    +0.000 A 
ATOM      5  C   UNL     1      48.953   7.011  12.331  0.00  0.00    +0.000 A 
ATOM      6  C   UNL     1      47.706   6.865  12.971  0.00  0.00    +0.000 A 
ATOM      7  C   UNL     1      47.519   7.580  14.166  0.00  0.00    +0.000 A 
BRANCH   6   8
ATOM      8  C   UNL     1      46.675   5.932  12.438  0.00  0.00    +0.000 A 
ATOM      9  C   UNL     1      46.019   6.298  11.235  0.00  0.00    +0.000 A 
ATOM     10  C   UNL     1      45.113   5.459  10.584  0.00  0.00    +0.000 A 
ATOM     11  C   UNL     1      44.839   4.206  11.107  0.00  0.00    +0.000 A 
ATOM     12  C   UNL     1      45.448   3.812  12.295  0.00  0.00    +0.000 A 
ATOM     13  C   UNL     1      46.342   4.666  12.978  0.00  0.00    +0.000 A 
BRANCH  13  14
ATOM     14  C   UNL     1      46.880   4.090  14.245  0.00  0.00    +0.000 C 
ATOM     15  O   UNL     1      47.753   3.238  14.249  0.00  0.00    +0.000 OA
BRANCH  14  16
ATOM     16  O   UNL     1      46.267   4.509  15.366  0.00  0.00    +0.000 OA
ATOM     17  H   UNL     1      46.733   5.208  15.859  0.00  0.00    +0.000 HD
ENDBRANCH  14  16
ENDBRANCH  13  14
ENDBRANCH   6   8
ENDBRANCH   1   2
BRANCH   1  19
ATOM     18  C   UNL     1      48.793   9.718  18.368  0.00  0.00    +0.000 C 
ATOM     19  C   UNL     1      48.808   8.686  17.230  0.00  0.00    +0.000 C 
BRANCH  19  20
ATOM     20  N   UNL     1      48.028   7.509  17.652  0.00  0.00    +0.000 N 
ATOM     21  C   UNL     1      48.688   6.275  17.565  0.00  0.00    +0.000 A 
ATOM     22  C   UNL     1      48.025   5.136  18.012  0.00  0.00    +0.000 A 
ATOM     23  C   UNL     1      48.659   3.892  17.934  0.00  0.00    +0.000 A 
ATOM     24  C   UNL     1      49.948   3.806  17.409  0.00  0.00    +0.000 A 
ATOM     25  C   UNL     1      50.540   4.989  17.007  0.00  0.00    +0.000 A 
ATOM     26  N   UNL     1      49.942   6.204  17.079  0.00  0.00    +0.000 NA
ATOM     27  H   UNL     1      47.129   7.432  17.184  0.00  0.00    +0.000 HD
BRANCH  24  28
ATOM     28  C   UNL     1      50.608   2.484  17.306  0.00  0.00    +0.000 C 
ATOM     29  N   UNL     1      51.691   2.217  18.099  0.00  0.00    +0.000 N 
ATOM     30  O   UNL     1      50.208   1.640  16.518  0.00  0.00    +0.000 OA
ATOM     31  H   UNL     1      52.119   2.847  18.757  0.00  0.00    +0.000 HD
ATOM     32  H   UNL     1      52.118   1.306  17.981  0.00  0.00    +0.000 HD
ENDBRANCH  24  28
ENDBRANCH  19  20
ENDBRANCH   1  19
TORSDOF 7
ENDMDL
MODEL 6
REMARK VINA RESULT:    -6.711      2.586      7.265
REMARK INTER + INTRA:         -10.578
REMARK INTER:                 -10.047
REMARK INTRA:                  -0.531
REMARK UNBOUND:                -1.317
REMARK  Name = 
REMARK  8 active torsions:
REMARK  status: ('A' for Active; 'I' for Inactive)
REMARK    1  A    between atoms: C_1  and  C_2
REMARK    2  A    between atoms: C_2  and  C_3
REMARK    3  A    between atoms: C_2  and  N_19
REMARK    4  A    between atoms: C_3  and  C_4
REMARK    5  A    between atoms: C_8  and  C_9
REMARK    6  A    between atoms: C_14  and  C_15
REMARK    7  A    between atoms: C_15  and  O_17
REMARK    8  A    between atoms: C_23  and  C_24
REMARK                            x       y       z     vdW  Elec       q    Type
REMARK                         _______ _______ _______ _____ _____    ______ ____
ROOT
ATOM      1  C   UNL     1      48.913   8.392  15.013  0.00  0.00    +0.000 C 
ENDROOT
BRANCH   1   2
ATOM      2  C   UNL     1      48.932   7.537  16.263  0.00  0.00    +0.000 A 
ATOM      3  C   UNL     1      48.269   7.940  17.427  0.00  0.00    +0.000 A 
ATOM      4  C   UNL     1      48.395   7.199  18.595  0.00  0.00    +0.000 A 
ATOM      5  C   UNL     1      49.169   6.036  18.601  0.00  0.00    +0.000 A 
ATOM      6  C   UNL     1      49.787   5.550  17.432  0.00  0.00    +0.000 A 
ATOM      7  C   UNL     1      49.642   6.324  16.268  0.00  0.00    +0.000 A 
BRANCH   6   8
ATOM      8  C   UNL     1      50.488   4.236  17.425  0.00  0.00    +0.000 A 
ATOM      9  C   UNL     1      51.852   4.219  17.811  0.00  0.00    +0.000 A 
ATOM     10  C   UNL     1      52.584   3.038  17.944  0.00  0.00    +0.000 A 
ATOM     11  C   UNL     1      51.969   1.818  17.711  0.00  0.00    +0.000 A 
ATOM     12  C   UNL     1      50.636   1.789  17.312  0.00  0.00    +0.000 A 
ATOM     13  C   UNL     1      49.896   2.980  17.144  0.00  0.00    +0.000 A 
BRANCH  13  14
ATOM     14  C   UNL     1      48.491   2.760  16.690  0.00  0.00    +0.000 C 
ATOM     15  O   UNL     1      48.195   2.699  15.508  0.00  0.00    +0.000 OA
BRANCH  14  16
ATOM     16  O   UNL     1      47.574   2.730  17.673  0.00  0.00    +0.000 OA
ATOM     17  H   UNL     1      47.931   2.786  18.577  0.00  0.00    +0.000 HD
ENDBRANCH  14  16
ENDBRANCH  13  14
ENDBRANCH   6   8
ENDBRANCH   1   2
BRANCH   1  19
ATOM     18  C   UNL     1      49.387   7.301  12.750  0.00  0.00    +0.000 C 
ATOM     19  C   UNL     1      48.311   7.675  13.780  0.00  0.00    +0.000 C 
BRANCH  19  20
ATOM     20  N   UNL     1      47.625   6.443  14.212  0.00  0.00    +0.000 N 
ATOM     21  C   UNL     1      46.738   5.879  13.285  0.00  0.00    +0.000 A 
ATOM     22  C   UNL     1      46.112   4.681  13.611  0.00  0.00    +0.000 A 
ATOM     23  C   UNL     1      45.220   4.097  12.706  0.00  0.00    +0.000 A 
ATOM     24  C   UNL     1      44.967   4.724  11.486  0.00  0.00    +0.000 A 
ATOM     25  C   UNL     1      45.647   5.902  11.235  0.00  0.00    +0.000 A 
ATOM     26  N   UNL     1      46.517   6.479  12.099  0.00  0.00    +0.000 NA
ATOM     27  H   UNL     1      47.148   6.540  15.104  0.00  0.00    +0.000 HD
BRANCH  24  28
ATOM     28  C   UNL     1      44.004   4.117  10.538  0.00  0.00    +0.000 C 
ATOM     29  N   UNL     1      43.982   4.552   9.242  0.00  0.00    +0.000 N 
ATOM     30  O   UNL     1      43.226   3.247  10.901  0.00  0.00    +0.000 OA
ATOM     31  H   UNL     1      44.554   5.280   8.845  0.00  0.00    +0.000 HD
ATOM     32  H   UNL     1      43.295   4.119   8.635  0.00  0.00    +0.000 HD
ENDBRANCH  24  28
ENDBRANCH  19  20
ENDBRANCH   1  19
TORSDOF 7
ENDMDL
MODEL 7
REMARK VINA RESULT:    -6.380      3.093      5.074
REMARK INTER + INTRA:         -10.121
REMARK INTER:                  -8.762
REMARK INTRA:                  -1.359
REMARK UNBOUND:                -1.317
REMARK  Name = 
REMARK  8 active torsions:
REMARK  status: ('A' for Active; 'I' for Inactive)
REMARK    1  A    between atoms: C_1  and  C_2
REMARK    2  A    between atoms: C_2  and  C_3
REMARK    3  A    between atoms: C_2  and  N_19
REMARK    4  A    between atoms: C_3  and  C_4
REMARK    5  A    between atoms: C_8  and  C_9
REMARK    6  A    between atoms: C_14  and  C_15
REMARK    7  A    between atoms: C_15  and  O_17
REMARK    8  A    between atoms: C_23  and  C_24
REMARK                            x       y       z     vdW  Elec       q    Type
REMARK                         _______ _______ _______ _____ _____    ______ ____
ROOT
ATOM      1  C   UNL     1      48.386   9.478  16.824  0.00  0.00    +0.000 C 
ENDROOT
BRANCH   1   2
ATOM      2  C   UNL     1      48.676   8.848  15.477  0.00  0.00    +0.000 A 
ATOM      3  C   UNL     1      49.983   8.752  14.988  0.00  0.00    +0.000 A 
ATOM      4  C   UNL     1      50.216   8.277  13.704  0.00  0.00    +0.000 A 
ATOM      5  C   UNL     1      49.142   7.876  12.905  0.00  0.00    +0.000 A 
ATOM      6  C   UNL     1      47.817   7.879  13.387  0.00  0.00    +0.000 A 
ATOM      7  C   UNL     1      47.617   8.367  14.689  0.00  0.00    +0.000 A 
BRANCH   6   8
ATOM      8  C   UNL     1      46.705   7.314  12.574  0.00  0.00    +0.000 A 
ATOM      9  C   UNL     1      46.681   5.909  12.384  0.00  0.00    +0.000 A 
ATOM     10  C   UNL     1      45.635   5.254  11.731  0.00  0.00    +0.000 A 
ATOM     11  C   UNL     1      44.558   5.983  11.255  0.00  0.00    +0.000 A 
ATOM     12  C   UNL     1      44.549   7.367  11.404  0.00  0.00    +0.000 A 
ATOM     13  C   UNL     1      45.617   8.043  12.035  0.00  0.00    +0.000 A 
BRANCH  13  14
ATOM     14  C   UNL     1      45.449   9.524  12.084  0.00  0.00    +0.000 C 
ATOM     15  O   UNL     1      46.293  10.286  11.641  0.00  0.00    +0.000 OA
BRANCH  14  16
ATOM     16  O   UNL     1      44.352   9.952  12.734  0.00  0.00    +0.000 OA
ATOM     17  H   UNL     1      44.096  10.874  12.556  0.00  0.00    +0.000 HD
ENDBRANCH  14  16
ENDBRANCH  13  14
ENDBRANCH   6   8
ENDBRANCH   1   2
BRANCH   1  19
ATOM     18  C   UNL     1      48.657   9.313  19.360  0.00  0.00    +0.000 C 
ATOM     19  C   UNL     1      48.730   8.561  18.023  0.00  0.00    +0.000 C 
BRANCH  19  20
ATOM     20  N   UNL     1      47.785   7.431  18.067  0.00  0.00    +0.000 N 
ATOM     21  C   UNL     1      48.335   6.164  17.824  0.00  0.00    +0.000 A 
ATOM     22  C   UNL     1      47.504   5.052  17.917  0.00  0.00    +0.000 A 
ATOM     23  C   UNL     1      48.026   3.777  17.678  0.00  0.00    +0.000 A 
ATOM     24  C   UNL     1      49.374   3.634  17.347  0.00  0.00    +0.000 A 
ATOM     25  C   UNL     1      50.131   4.790  17.295  0.00  0.00    +0.000 A 
ATOM     26  N   UNL     1      49.643   6.033  17.528  0.00  0.00    +0.000 NA
ATOM     27  H   UNL     1      46.977   7.557  17.463  0.00  0.00    +0.000 HD
BRANCH  24  28
ATOM     28  C   UNL     1      49.919   2.284  17.070  0.00  0.00    +0.000 C 
ATOM     29  N   UNL     1      50.803   1.730  17.954  0.00  0.00    +0.000 N 
ATOM     30  O   UNL     1      49.600   1.671  16.062  0.00  0.00    +0.000 OA
ATOM     31  H   UNL     1      51.154   2.157  18.796  0.00  0.00    +0.000 HD
ATOM     32  H   UNL     1      51.160   0.812  17.715  0.00  0.00    +0.000 HD
ENDBRANCH  24  28
ENDBRANCH  19  20
ENDBRANCH   1  19
TORSDOF 7
ENDMDL
MODEL 8
REMARK VINA RESULT:    -6.158      3.884      7.831
REMARK INTER + INTRA:          -9.815
REMARK INTER:                 -10.922
REMARK INTRA:                   1.107
REMARK UNBOUND:                -1.317
REMARK  Name = 
REMARK  8 active torsions:
REMARK  status: ('A' for Active; 'I' for Inactive)
REMARK    1  A    between atoms: C_1  and  C_2
REMARK    2  A    between atoms: C_2  and  C_3
REMARK    3  A    between atoms: C_2  and  N_19
REMARK    4  A    between atoms: C_3  and  C_4
REMARK    5  A    between atoms: C_8  and  C_9
REMARK    6  A    between atoms: C_14  and  C_15
REMARK    7  A    between atoms: C_15  and  O_17
REMARK    8  A    between atoms: C_23  and  C_24
REMARK                            x       y       z     vdW  Elec       q    Type
REMARK                         _______ _______ _______ _____ _____    ______ ____
ROOT
ATOM      1  C   UNL     1      45.030   5.570  10.888  0.00  0.00    +0.000 C 
ENDROOT
BRANCH   1   2
ATOM      2  C   UNL     1      46.177   5.897  11.821  0.00  0.00    +0.000 A 
ATOM      3  C   UNL     1      46.314   5.252  13.055  0.00  0.00    +0.000 A 
ATOM      4  C   UNL     1      47.305   5.649  13.944  0.00  0.00    +0.000 A 
ATOM      5  C   UNL     1      48.180   6.680  13.597  0.00  0.00    +0.000 A 
ATOM      6  C   UNL     1      48.129   7.302  12.332  0.00  0.00    +0.000 A 
ATOM      7  C   UNL     1      47.114   6.879  11.458  0.00  0.00    +0.000 A 
BRANCH   6   8
ATOM      8  C   UNL     1      49.158   8.298  11.927  0.00  0.00    +0.000 A 
ATOM      9  C   UNL     1      50.395   7.802  11.441  0.00  0.00    +0.000 A 
ATOM     10  C   UNL     1      51.395   8.634  10.934  0.00  0.00    +0.000 A 
ATOM     11  C   UNL     1      51.188  10.002  10.878  0.00  0.00    +0.000 A 
ATOM     12  C   UNL     1      49.995  10.534  11.359  0.00  0.00    +0.000 A 
ATOM     13  C   UNL     1      48.990   9.705  11.904  0.00  0.00    +0.000 A 
BRANCH  13  14
ATOM     14  C   UNL     1      47.792  10.447  12.393  0.00  0.00    +0.000 C 
ATOM     15  O   UNL     1      46.729  10.427  11.793  0.00  0.00    +0.000 OA
BRANCH  14  16
ATOM     16  O   UNL     1      47.999  11.207  13.482  0.00  0.00    +0.000 OA
ATOM     17  H   UNL     1      47.225  11.713  13.790  0.00  0.00    +0.000 HD
ENDBRANCH  14  16
ENDBRANCH  13  14
ENDBRANCH   6   8
ENDBRANCH   1   2
BRANCH   1  19
ATOM     18  C   UNL     1      42.532   5.189  11.278  0.00  0.00    +0.000 C 
ATOM     19  C   UNL     1      43.952   4.660  11.527  0.00  0.00    +0.000 C 
BRANCH  19  20
ATOM     20  N   UNL     1      44.054   3.303  10.962  0.00  0.00    +0.000 N 
ATOM     21  C   UNL     1      44.825   3.181   9.797  0.00  0.00    +0.000 A 
ATOM     22  C   UNL     1      45.011   1.913   9.256  0.00  0.00    +0.000 A 
ATOM     23  C   UNL     1      45.773   1.764   8.093  0.00  0.00    +0.000 A 
ATOM     24  C   UNL     1      46.336   2.887   7.487  0.00  0.00    +0.000 A 
ATOM     25  C   UNL     1      46.116   4.105   8.103  0.00  0.00    +0.000 A 
ATOM     26  N   UNL     1      45.384   4.268   9.233  0.00  0.00    +0.000 NA
ATOM     27  H   UNL     1      43.152   2.863  10.805  0.00  0.00    +0.000 HD
BRANCH  24  28
ATOM     28  C   UNL     1      47.123   2.729   6.242  0.00  0.00    +0.000 C 
ATOM     29  N   UNL     1      48.481   2.595   6.326  0.00  0.00    +0.000 N 
ATOM     30  O   UNL     1      46.578   2.730   5.148  0.00  0.00    +0.000 OA
ATOM     31  H   UNL     1      49.033   2.610   7.168  0.00  0.00    +0.000 HD
ATOM     32  H   UNL     1      48.978   2.506   5.447  0.00  0.00    +0.000 HD
ENDBRANCH  24  28
ENDBRANCH  19  20
ENDBRANCH   1  19
TORSDOF 7
ENDMDL
MODEL 9
REMARK VINA RESULT:    -5.985      2.715      7.410
REMARK INTER + INTRA:          -9.577
REMARK INTER:                  -8.474
REMARK INTRA:                  -1.102
REMARK UNBOUND:                -1.317
REMARK  Name = 
REMARK  8 active torsions:
REMARK  status: ('A' for Active; 'I' for Inactive)
REMARK    1  A    between atoms: C_1  and  C_2
REMARK    2  A    between atoms: C_2  and  C_3
REMARK    3  A    between atoms: C_2  and  N_19
REMARK    4  A    between atoms: C_3  and  C_4
REMARK    5  A    between atoms: C_8  and  C_9
REMARK    6  A    between atoms: C_14  and  C_15
REMARK    7  A    between atoms: C_15  and  O_17
REMARK    8  A    between atoms: C_23  and  C_24
REMARK                            x       y       z     vdW  Elec       q    Type
REMARK                         _______ _______ _______ _____ _____    ______ ____
ROOT
ATOM      1  C   UNL     1      49.365   9.011  13.492  0.00  0.00    +0.000 C 
ENDROOT
BRANCH   1   2
ATOM      2  C   UNL     1      50.004   8.287  14.659  0.00  0.00    +0.000 A 
ATOM      3  C   UNL     1      51.381   8.041  14.693  0.00  0.00    +0.000 A 
ATOM      4  C   UNL     1      51.929   7.275  15.714  0.00  0.00    +0.000 A 
ATOM      5  C   UNL     1      51.105   6.766  16.721  0.00  0.00    +0.000 A 
ATOM      6  C   UNL     1      49.727   7.057  16.770  0.00  0.00    +0.000 A 
ATOM      7  C   UNL     1      49.204   7.833  15.721  0.00  0.00    +0.000 A 
BRANCH   6   8
ATOM      8  C   UNL     1      48.893   6.626  17.926  0.00  0.00    +0.000 A 
ATOM      9  C   UNL     1      48.823   7.496  19.044  0.00  0.00    +0.000 A 
ATOM     10  C   UNL     1      47.995   7.251  20.140  0.00  0.00    +0.000 A 
ATOM     11  C   UNL     1      47.185   6.127  20.152  0.00  0.00    +0.000 A 
ATOM     12  C   UNL     1      47.235   5.237  19.083  0.00  0.00    +0.000 A 
ATOM     13  C   UNL     1      48.093   5.459  17.984  0.00  0.00    +0.000 A 
BRANCH  13  14
ATOM     14  C   UNL     1      48.032   4.391  16.944  0.00  0.00    +0.000 C 
ATOM     15  O   UNL     1      46.979   4.037  16.441  0.00  0.00    +0.000 OA
BRANCH  14  16
ATOM     16  O   UNL     1      49.205   3.790  16.676  0.00  0.00    +0.000 OA
ATOM     17  H   UNL     1      49.456   3.076  17.289  0.00  0.00    +0.000 HD
ENDBRANCH  14  16
ENDBRANCH  13  14
ENDBRANCH   6   8
ENDBRANCH   1   2
BRANCH   1  19
ATOM     18  C   UNL     1      49.969   7.737  11.360  0.00  0.00    +0.000 C 
ATOM     19  C   UNL     1      48.863   8.064  12.375  0.00  0.00    +0.000 C 
BRANCH  19  20
ATOM     20  N   UNL     1      48.386   6.804  12.974  0.00  0.00    +0.000 N 
ATOM     21  C   UNL     1      47.077   6.426  12.642  0.00  0.00    +0.000 A 
ATOM     22  C   UNL     1      46.595   5.214  13.125  0.00  0.00    +0.000 A 
ATOM     23  C   UNL     1      45.292   4.814  12.811  0.00  0.00    +0.000 A 
ATOM     24  C   UNL     1      44.489   5.636  12.020  0.00  0.00    +0.000 A 
ATOM     25  C   UNL     1      45.055   6.814  11.568  0.00  0.00    +0.000 A 
ATOM     26  N   UNL     1      46.317   7.215  11.858  0.00  0.00    +0.000 NA
ATOM     27  H   UNL     1      48.489   6.774  13.984  0.00  0.00    +0.000 HD
BRANCH  24  28
ATOM     28  C   UNL     1      43.101   5.222  11.709  0.00  0.00    +0.000 C 
ATOM     29  N   UNL     1      42.099   6.149  11.783  0.00  0.00    +0.000 N 
ATOM     30  O   UNL     1      42.842   4.068  11.403  0.00  0.00    +0.000 OA
ATOM     31  H   UNL     1      42.195   7.114  12.053  0.00  0.00    +0.000 HD
ATOM     32  H   UNL     1      41.164   5.815  11.578  0.00  0.00    +0.000 HD
ENDBRANCH  24  28
ENDBRANCH  19  20
ENDBRANCH   1  19
TORSDOF 7
ENDMDL
