MODEL 1
REMARK VINA RESULT:    -7.713      0.000      0.000
REMARK INTER + INTRA:         -12.169
REMARK INTER:                 -10.870
REMARK INTRA:                  -1.299
REMARK UNBOUND:                -1.299
REMARK  Name = 
REMARK  7 active torsions:
REMARK  status: ('A' for Active; 'I' for Inactive)
REMARK    1  A    between atoms: C_2  and  C_3
REMARK    2  A    between atoms: C_3  and  N_4
REMARK    3  A    between atoms: N_4  and  C_5
REMARK    4  A    between atoms: C_5  and  C_6
REMARK    5  A    between atoms: C_10  and  C_11
REMARK    6  A    between atoms: C_11  and  C_12
REMARK    7  A    between atoms: C_19  and  C_21
REMARK                            x       y       z     vdW  Elec       q    Type
REMARK                         _______ _______ _______ _____ _____    ______ ____
ROOT
ATOM      1  N   UNL     1      47.356   7.033  13.400  0.00  0.00    +0.000 N 
ATOM      2  C   UNL     1      47.205   8.420  13.627  0.00  0.00    +0.000 C 
ATOM      3  O   UNL     1      47.662   8.942  14.642  0.00  0.00    +0.000 OA
ENDROOT
BRANCH   2   4
ATOM      4  C   UNL     1      46.453   9.262  12.674  0.00  0.00    +0.000 A 
ATOM      5  C   UNL     1      45.072   9.388  12.642  0.00  0.00    +0.000 A 
ATOM      6  S   UNL     1      44.501  10.501  11.483  0.00  0.00    +0.000 S 
ATOM      7  C   UNL     1      46.084  10.979  11.091  0.00  0.00    +0.000 A 
ATOM      8  N   UNL     1      46.307  12.015  10.240  0.00  0.00    +0.000 NA
ATOM      9  C   UNL     1      47.554  12.316  10.088  0.00  0.00    +0.000 A 
ATOM     10  N   UNL     1      48.595  11.645  10.679  0.00  0.00    +0.000 N 
ATOM     11  C   UNL     1      48.421  10.508  11.442  0.00  0.00    +0.000 A 
ATOM     12  O   UNL     1      49.375   9.804  11.754  0.00  0.00    +0.000 OA
ATOM     13  C   UNL     1      47.032  10.214  11.747  0.00  0.00    +0.000 A 
ATOM     14  H   UNL     1      49.550  11.887  10.460  0.00  0.00    +0.000 HD
ENDBRANCH   2   4
BRANCH   1  15
ATOM     15  C   UNL     1      48.098   6.276  14.422  0.00  0.00    +0.000 C 
BRANCH  15  17
ATOM     16  N   UNL     1      47.137   3.876  14.954  0.00  0.00    +0.000 NA
ATOM     17  C   UNL     1      47.556   4.941  14.718  0.00  0.00    +0.000 C 
ENDBRANCH  15  17
ENDBRANCH   1  15
BRANCH   1  18
ATOM     18  C   UNL     1      46.951   6.416  12.130  0.00  0.00    +0.000 C 
BRANCH  18  19
ATOM     19  C   UNL     1      45.721   5.551  11.934  0.00  0.00    +0.000 A 
ATOM     20  C   UNL     1      44.596   5.719  12.742  0.00  0.00    +0.000 A 
ATOM     21  C   UNL     1      43.368   5.212  12.326  0.00  0.00    +0.000 A 
ATOM     22  C   UNL     1      43.268   4.614  11.078  0.00  0.00    +0.000 A 
ATOM     23  C   UNL     1      44.414   4.525  10.293  0.00  0.00    +0.000 A 
ATOM     24  N   UNL     1      45.639   4.923  10.734  0.00  0.00    +0.000 NA
BRANCH  23  25
ATOM     25  C   UNL     1      44.276   4.265   8.803  0.00  0.00    +0.000 C 
BRANCH  25  26
ATOM     26  C   UNL     1      45.345   3.330   8.246  0.00  0.00    +0.000 A 
ATOM     27  C   UNL     1      46.345   3.782   7.365  0.00  0.00    +0.000 A 
ATOM     28  C   UNL     1      47.285   2.901   6.827  0.00  0.00    +0.000 A 
ATOM     29  C   UNL     1      47.265   1.561   7.190  0.00  0.00    +0.000 A 
ATOM     30  C   UNL     1      46.314   1.103   8.102  0.00  0.00    +0.000 A 
ATOM     31  C   UNL     1      45.363   1.983   8.631  0.00  0.00    +0.000 A 
ENDBRANCH  25  26
ENDBRANCH  23  25
ENDBRANCH  18  19
ENDBRANCH   1  18
TORSDOF 7
ENDMDL
MODEL 2
REMARK VINA RESULT:    -7.106      1.555      2.076
REMARK INTER + INTRA:         -11.314
REMARK INTER:                 -11.061
REMARK INTRA:                  -0.252
REMARK UNBOUND:                -1.299
REMARK  Name = 
REMARK  7 active torsions:
REMARK  status: ('A' for Active; 'I' for Inactive)
REMARK    1  A    between atoms: C_2  and  C_3
REMARK    2  A    between atoms: C_3  and  N_4
REMARK    3  A    between atoms: N_4  and  C_5
REMARK    4  A    between atoms: C_5  and  C_6
REMARK    5  A    between atoms: C_10  and  C_11
REMARK    6  A    between atoms: C_11  and  C_12
REMARK    7  A    between atoms: C_19  and  C_21
REMARK                            x       y       z     vdW  Elec       q    Type
REMARK                         _______ _______ _______ _____ _____    ______ ____
ROOT
ATOM      1  N   UNL     1      46.958   5.484  13.887  0.00  0.00    +0.000 N 
ATOM      2  C   UNL     1      47.869   6.560  13.778  0.00  0.00    +0.000 C 
ATOM      3  O   UNL     1      48.983   6.492  14.292  0.00  0.00    +0.000 OA
ENDROOT
BRANCH   2   4
ATOM      4  C   UNL     1      47.482   7.806  13.085  0.00  0.00    +0.000 A 
ATOM      5  C   UNL     1      46.286   8.484  13.275  0.00  0.00    +0.000 A 
ATOM      6  S   UNL     1      46.165   9.941  12.397  0.00  0.00    +0.000 S 
ATOM      7  C   UNL     1      47.770   9.806  11.858  0.00  0.00    +0.000 A 
ATOM      8  N   UNL     1      48.353  10.811  11.153  0.00  0.00    +0.000 NA
ATOM      9  C   UNL     1      49.597  10.607  10.870  0.00  0.00    +0.000 A 
ATOM     10  N   UNL     1      50.293   9.469  11.192  0.00  0.00    +0.000 N 
ATOM     11  C   UNL     1      49.705   8.370  11.787  0.00  0.00    +0.000 A 
ATOM     12  O   UNL     1      50.289   7.294  11.845  0.00  0.00    +0.000 OA
ATOM     13  C   UNL     1      48.346   8.608  12.243  0.00  0.00    +0.000 A 
ATOM     14  H   UNL     1      51.242   9.342  10.876  0.00  0.00    +0.000 HD
ENDBRANCH   2   4
BRANCH   1  15
ATOM     15  C   UNL     1      47.428   4.297  14.620  0.00  0.00    +0.000 C 
BRANCH  15  17
ATOM     16  N   UNL     1      46.884   4.309  17.203  0.00  0.00    +0.000 NA
ATOM     17  C   UNL     1      47.122   4.297  16.060  0.00  0.00    +0.000 C 
ENDBRANCH  15  17
ENDBRANCH   1  15
BRANCH   1  18
ATOM     18  C   UNL     1      45.682   5.483  13.159  0.00  0.00    +0.000 C 
BRANCH  18  19
ATOM     19  C   UNL     1      45.126   4.309  12.376  0.00  0.00    +0.000 A 
ATOM     20  C   UNL     1      44.043   3.578  12.864  0.00  0.00    +0.000 A 
ATOM     21  C   UNL     1      43.308   2.776  11.996  0.00  0.00    +0.000 A 
ATOM     22  C   UNL     1      43.618   2.776  10.643  0.00  0.00    +0.000 A 
ATOM     23  C   UNL     1      44.675   3.570  10.207  0.00  0.00    +0.000 A 
ATOM     24  N   UNL     1      45.464   4.276  11.062  0.00  0.00    +0.000 NA
BRANCH  23  25
ATOM     25  C   UNL     1      44.785   3.916   8.733  0.00  0.00    +0.000 C 
BRANCH  25  26
ATOM     26  C   UNL     1      45.767   3.033   7.971  0.00  0.00    +0.000 A 
ATOM     27  C   UNL     1      45.975   1.684   8.309  0.00  0.00    +0.000 A 
ATOM     28  C   UNL     1      46.914   0.905   7.630  0.00  0.00    +0.000 A 
ATOM     29  C   UNL     1      47.634   1.451   6.576  0.00  0.00    +0.000 A 
ATOM     30  C   UNL     1      47.406   2.772   6.191  0.00  0.00    +0.000 A 
ATOM     31  C   UNL     1      46.474   3.557   6.879  0.00  0.00    +0.000 A 
ENDBRANCH  25  26
ENDBRANCH  23  25
ENDBRANCH  18  19
ENDBRANCH   1  18
TORSDOF 7
ENDMDL
MODEL 3
REMARK VINA RESULT:    -6.938      2.306      2.845
REMARK INTER + INTRA:         -11.077
REMARK INTER:                 -10.743
REMARK INTRA:                  -0.334
REMARK UNBOUND:                -1.299
REMARK  Name = 
REMARK  7 active torsions:
REMARK  status: ('A' for Active; 'I' for Inactive)
REMARK    1  A    between atoms: C_2  and  C_3
REMARK    2  A    between atoms: C_3  and  N_4
REMARK    3  A    between atoms: N_4  and  C_5
REMARK    4  A    between atoms: C_5  and  C_6
REMARK    5  A    between atoms: C_10  and  C_11
REMARK    6  A    between atoms: C_11  and  C_12
REMARK    7  A    between atoms: C_19  and  C_21
REMARK                            x       y       z     vdW  Elec       q    Type
REMARK                         _______ _______ _______ _____ _____    ______ ____
ROOT
ATOM      1  N   UNL     1      47.384   5.579  14.317  0.00  0.00    +0.000 N 
ATOM      2  C   UNL     1      48.565   6.295  14.619  0.00  0.00    +0.000 C 
ATOM      3  O   UNL     1      49.146   6.123  15.689  0.00  0.00    +0.000 OA
ENDROOT
BRANCH   2   4
ATOM      4  C   UNL     1      49.098   7.300  13.676  0.00  0.00    +0.000 A 
ATOM      5  C   UNL     1      49.611   7.019  12.419  0.00  0.00    +0.000 A 
ATOM      6  S   UNL     1      50.069   8.400  11.529  0.00  0.00    +0.000 S 
ATOM      7  C   UNL     1      49.448   9.435  12.723  0.00  0.00    +0.000 A 
ATOM      8  N   UNL     1      49.403  10.779  12.524  0.00  0.00    +0.000 NA
ATOM      9  C   UNL     1      48.841  11.438  13.483  0.00  0.00    +0.000 A 
ATOM     10  N   UNL     1      48.361  10.876  14.639  0.00  0.00    +0.000 N 
ATOM     11  C   UNL     1      48.506   9.536  14.940  0.00  0.00    +0.000 A 
ATOM     12  O   UNL     1      48.282   9.114  16.069  0.00  0.00    +0.000 OA
ATOM     13  C   UNL     1      49.010   8.738  13.835  0.00  0.00    +0.000 A 
ATOM     14  H   UNL     1      48.000  11.457  15.380  0.00  0.00    +0.000 HD
ENDBRANCH   2   4
BRANCH   1  15
ATOM     15  C   UNL     1      46.918   4.620  15.333  0.00  0.00    +0.000 C 
BRANCH  15  17
ATOM     16  N   UNL     1      48.433   2.474  15.597  0.00  0.00    +0.000 NA
ATOM     17  C   UNL     1      47.761   3.424  15.487  0.00  0.00    +0.000 C 
ENDBRANCH  15  17
ENDBRANCH   1  15
BRANCH   1  18
ATOM     18  C   UNL     1      46.758   5.658  12.991  0.00  0.00    +0.000 C 
BRANCH  18  19
ATOM     19  C   UNL     1      45.578   4.824  12.532  0.00  0.00    +0.000 A 
ATOM     20  C   UNL     1      44.402   4.782  13.282  0.00  0.00    +0.000 A 
ATOM     21  C   UNL     1      43.222   4.345  12.686  0.00  0.00    +0.000 A 
ATOM     22  C   UNL     1      43.219   4.032  11.334  0.00  0.00    +0.000 A 
ATOM     23  C   UNL     1      44.412   4.147  10.625  0.00  0.00    +0.000 A 
ATOM     24  N   UNL     1      45.592   4.472  11.221  0.00  0.00    +0.000 NA
BRANCH  23  25
ATOM     25  C   UNL     1      44.372   4.215   9.109  0.00  0.00    +0.000 C 
BRANCH  25  26
ATOM     26  C   UNL     1      45.364   3.277   8.429  0.00  0.00    +0.000 A 
ATOM     27  C   UNL     1      45.374   1.893   8.680  0.00  0.00    +0.000 A 
ATOM     28  C   UNL     1      46.320   1.058   8.086  0.00  0.00    +0.000 A 
ATOM     29  C   UNL     1      47.250   1.586   7.200  0.00  0.00    +0.000 A 
ATOM     30  C   UNL     1      47.224   2.947   6.897  0.00  0.00    +0.000 A 
ATOM     31  C   UNL     1      46.283   3.787   7.503  0.00  0.00    +0.000 A 
ENDBRANCH  25  26
ENDBRANCH  23  25
ENDBRANCH  18  19
ENDBRANCH   1  18
TORSDOF 7
ENDMDL
MODEL 4
REMARK VINA RESULT:    -6.766      3.584      8.203
REMARK INTER + INTRA:         -10.834
REMARK INTER:                  -9.392
REMARK INTRA:                  -1.442
REMARK UNBOUND:                -1.299
REMARK  Name = 
REMARK  7 active torsions:
REMARK  status: ('A' for Active; 'I' for Inactive)
REMARK    1  A    between atoms: C_2  and  C_3
REMARK    2  A    between atoms: C_3  and  N_4
REMARK    3  A    between atoms: N_4  and  C_5
REMARK    4  A    between atoms: C_5  and  C_6
REMARK    5  A    between atoms: C_10  and  C_11
REMARK    6  A    between atoms: C_11  and  C_12
REMARK    7  A    between atoms: C_19  and  C_21
REMARK                            x       y       z     vdW  Elec       q    Type
REMARK                         _______ _______ _______ _____ _____    ______ ____
ROOT
ATOM      1  N   UNL     1      46.301   6.986  12.612  0.00  0.00    +0.000 N 
ATOM      2  C   UNL     1      45.109   6.663  11.925  0.00  0.00    +0.000 C 
ATOM      3  O   UNL     1      44.371   7.550  11.499  0.00  0.00    +0.000 OA
ENDROOT
BRANCH   2   4
ATOM      4  C   UNL     1      44.700   5.254  11.748  0.00  0.00    +0.000 A 
ATOM      5  C   UNL     1      43.957   4.521  12.661  0.00  0.00    +0.000 A 
ATOM      6  S   UNL     1      43.568   2.945  12.136  0.00  0.00    +0.000 S 
ATOM      7  C   UNL     1      44.235   3.239  10.602  0.00  0.00    +0.000 A 
ATOM      8  N   UNL     1      44.117   2.323   9.605  0.00  0.00    +0.000 NA
ATOM      9  C   UNL     1      44.607   2.706   8.473  0.00  0.00    +0.000 A 
ATOM     10  N   UNL     1      45.242   3.905   8.264  0.00  0.00    +0.000 N 
ATOM     11  C   UNL     1      45.503   4.805   9.279  0.00  0.00    +0.000 A 
ATOM     12  O   UNL     1      46.272   5.744   9.108  0.00  0.00    +0.000 OA
ATOM     13  C   UNL     1      44.853   4.475  10.536  0.00  0.00    +0.000 A 
ATOM     14  H   UNL     1      45.668   4.110   7.373  0.00  0.00    +0.000 HD
ENDBRANCH   2   4
BRANCH   1  15
ATOM     15  C   UNL     1      46.607   8.419  12.761  0.00  0.00    +0.000 C 
BRANCH  15  17
ATOM     16  N   UNL     1      48.938   9.155  11.765  0.00  0.00    +0.000 NA
ATOM     17  C   UNL     1      47.907   8.834  12.211  0.00  0.00    +0.000 C 
ENDBRANCH  15  17
ENDBRANCH   1  15
BRANCH   1  18
ATOM     18  C   UNL     1      47.268   5.950  12.998  0.00  0.00    +0.000 C 
BRANCH  18  19
ATOM     19  C   UNL     1      47.271   5.209  14.322  0.00  0.00    +0.000 A 
ATOM     20  C   UNL     1      47.200   3.816  14.358  0.00  0.00    +0.000 A 
ATOM     21  C   UNL     1      47.584   3.139  15.512  0.00  0.00    +0.000 A 
ATOM     22  C   UNL     1      48.103   3.856  16.581  0.00  0.00    +0.000 A 
ATOM     23  C   UNL     1      48.200   5.239  16.464  0.00  0.00    +0.000 A 
ATOM     24  N   UNL     1      47.732   5.920  15.382  0.00  0.00    +0.000 NA
BRANCH  23  25
ATOM     25  C   UNL     1      49.114   6.002  17.407  0.00  0.00    +0.000 C 
BRANCH  25  26
ATOM     26  C   UNL     1      48.774   5.803  18.880  0.00  0.00    +0.000 A 
ATOM     27  C   UNL     1      49.566   5.006  19.727  0.00  0.00    +0.000 A 
ATOM     28  C   UNL     1      49.212   4.797  21.061  0.00  0.00    +0.000 A 
ATOM     29  C   UNL     1      48.081   5.411  21.581  0.00  0.00    +0.000 A 
ATOM     30  C   UNL     1      47.311   6.247  20.773  0.00  0.00    +0.000 A 
ATOM     31  C   UNL     1      47.658   6.447  19.432  0.00  0.00    +0.000 A 
ENDBRANCH  25  26
ENDBRANCH  23  25
ENDBRANCH  18  19
ENDBRANCH   1  18
TORSDOF 7
ENDMDL
MODEL 5
REMARK VINA RESULT:    -6.500      2.449      4.089
REMARK INTER + INTRA:         -10.459
REMARK INTER:                  -9.617
REMARK INTRA:                  -0.842
REMARK UNBOUND:                -1.299
REMARK  Name = 
REMARK  7 active torsions:
REMARK  status: ('A' for Active; 'I' for Inactive)
REMARK    1  A    between atoms: C_2  and  C_3
REMARK    2  A    between atoms: C_3  and  N_4
REMARK    3  A    between atoms: N_4  and  C_5
REMARK    4  A    between atoms: C_5  and  C_6
REMARK    5  A    between atoms: C_10  and  C_11
REMARK    6  A    between atoms: C_11  and  C_12
REMARK    7  A    between atoms: C_19  and  C_21
REMARK                            x       y       z     vdW  Elec       q    Type
REMARK                         _______ _______ _______ _____ _____    ______ ____
ROOT
ATOM      1  N   UNL     1      46.650   8.358  12.342  0.00  0.00    +0.000 N 
ATOM      2  C   UNL     1      47.650   9.302  12.667  0.00  0.00    +0.000 C 
ATOM      3  O   UNL     1      47.347  10.420  13.079  0.00  0.00    +0.000 OA
ENDROOT
BRANCH   2   4
ATOM      4  C   UNL     1      49.079   8.983  12.468  0.00  0.00    +0.000 A 
ATOM      5  C   UNL     1      49.793   9.221  11.303  0.00  0.00    +0.000 A 
ATOM      6  S   UNL     1      51.449   8.823  11.408  0.00  0.00    +0.000 S 
ATOM      7  C   UNL     1      51.309   8.473  13.064  0.00  0.00    +0.000 A 
ATOM      8  N   UNL     1      52.410   8.188  13.810  0.00  0.00    +0.000 NA
ATOM      9  C   UNL     1      52.167   8.013  15.067  0.00  0.00    +0.000 A 
ATOM     10  N   UNL     1      50.917   8.054  15.632  0.00  0.00    +0.000 N 
ATOM     11  C   UNL     1      49.761   8.207  14.893  0.00  0.00    +0.000 A 
ATOM     12  O   UNL     1      48.660   8.004  15.391  0.00  0.00    +0.000 OA
ATOM     13  C   UNL     1      49.997   8.541  13.498  0.00  0.00    +0.000 A 
ATOM     14  H   UNL     1      50.789   7.835  16.609  0.00  0.00    +0.000 HD
ENDBRANCH   2   4
BRANCH   1  15
ATOM     15  C   UNL     1      45.254   8.781  12.549  0.00  0.00    +0.000 C 
BRANCH  15  17
ATOM     16  N   UNL     1      44.109   9.920  10.461  0.00  0.00    +0.000 NA
ATOM     17  C   UNL     1      44.622   9.419  11.383  0.00  0.00    +0.000 C 
ENDBRANCH  15  17
ENDBRANCH   1  15
BRANCH   1  18
ATOM     18  C   UNL     1      46.989   6.973  11.990  0.00  0.00    +0.000 C 
BRANCH  18  19
ATOM     19  C   UNL     1      46.014   5.811  11.984  0.00  0.00    +0.000 A 
ATOM     20  C   UNL     1      45.073   5.665  13.003  0.00  0.00    +0.000 A 
ATOM     21  C   UNL     1      43.962   4.851  12.803  0.00  0.00    +0.000 A 
ATOM     22  C   UNL     1      43.770   4.257  11.563  0.00  0.00    +0.000 A 
ATOM     23  C   UNL     1      44.715   4.484  10.567  0.00  0.00    +0.000 A 
ATOM     24  N   UNL     1      45.857   5.193  10.786  0.00  0.00    +0.000 NA
BRANCH  23  25
ATOM     25  C   UNL     1      44.350   4.207   9.120  0.00  0.00    +0.000 C 
BRANCH  25  26
ATOM     26  C   UNL     1      45.342   3.297   8.403  0.00  0.00    +0.000 A 
ATOM     27  C   UNL     1      45.438   1.924   8.693  0.00  0.00    +0.000 A 
ATOM     28  C   UNL     1      46.385   1.117   8.061  0.00  0.00    +0.000 A 
ATOM     29  C   UNL     1      47.228   1.660   7.101  0.00  0.00    +0.000 A 
ATOM     30  C   UNL     1      47.114   3.008   6.761  0.00  0.00    +0.000 A 
ATOM     31  C   UNL     1      46.173   3.821   7.403  0.00  0.00    +0.000 A 
ENDBRANCH  25  26
ENDBRANCH  23  25
ENDBRANCH  18  19
ENDBRANCH   1  18
TORSDOF 7
ENDMDL
MODEL 6
REMARK VINA RESULT:    -6.306      3.810      7.342
REMARK INTER + INTRA:         -10.186
REMARK INTER:                  -8.550
REMARK INTRA:                  -1.635
REMARK UNBOUND:                -1.299
REMARK  Name = 
REMARK  7 active torsions:
REMARK  status: ('A' for Active; 'I' for Inactive)
REMARK    1  A    between atoms: C_2  and  C_3
REMARK    2  A    between atoms: C_3  and  N_4
REMARK    3  A    between atoms: N_4  and  C_5
REMARK    4  A    between atoms: C_5  and  C_6
REMARK    5  A    between atoms: C_10  and  C_11
REMARK    6  A    between atoms: C_11  and  C_12
REMARK    7  A    between atoms: C_19  and  C_21
REMARK                            x       y       z     vdW  Elec       q    Type
REMARK                         _______ _______ _______ _____ _____    ______ ____
ROOT
ATOM      1  N   UNL     1      49.370   8.110  14.253  0.00  0.00    +0.000 N 
ATOM      2  C   UNL     1      48.834   7.466  13.115  0.00  0.00    +0.000 C 
ATOM      3  O   UNL     1      49.572   6.923  12.296  0.00  0.00    +0.000 OA
ENDROOT
BRANCH   2   4
ATOM      4  C   UNL     1      47.378   7.476  12.860  0.00  0.00    +0.000 A 
ATOM      5  C   UNL     1      46.698   8.469  12.172  0.00  0.00    +0.000 A 
ATOM      6  S   UNL     1      45.033   8.158  11.964  0.00  0.00    +0.000 S 
ATOM      7  C   UNL     1      45.190   6.608  12.642  0.00  0.00    +0.000 A 
ATOM      8  N   UNL     1      44.141   5.743  12.648  0.00  0.00    +0.000 NA
ATOM      9  C   UNL     1      44.421   4.576  13.128  0.00  0.00    +0.000 A 
ATOM     10  N   UNL     1      45.642   4.216  13.641  0.00  0.00    +0.000 N 
ATOM     11  C   UNL     1      46.692   5.102  13.777  0.00  0.00    +0.000 A 
ATOM     12  O   UNL     1      47.677   4.817  14.448  0.00  0.00    +0.000 OA
ATOM     13  C   UNL     1      46.465   6.383  13.129  0.00  0.00    +0.000 A 
ATOM     14  H   UNL     1      45.771   3.312  14.068  0.00  0.00    +0.000 HD
ENDBRANCH   2   4
BRANCH   1  15
ATOM     15  C   UNL     1      50.834   8.068  14.403  0.00  0.00    +0.000 C 
BRANCH  15  17
ATOM     16  N   UNL     1      51.964  10.412  14.850  0.00  0.00    +0.000 NA
ATOM     17  C   UNL     1      51.468   9.372  14.658  0.00  0.00    +0.000 C 
ENDBRANCH  15  17
ENDBRANCH   1  15
BRANCH   1  18
ATOM     18  C   UNL     1      48.503   8.635  15.316  0.00  0.00    +0.000 C 
BRANCH  18  19
ATOM     19  C   UNL     1      48.569   8.228  16.776  0.00  0.00    +0.000 A 
ATOM     20  C   UNL     1      48.296   9.152  17.785  0.00  0.00    +0.000 A 
ATOM     21  C   UNL     1      47.985   8.701  19.064  0.00  0.00    +0.000 A 
ATOM     22  C   UNL     1      47.875   7.337  19.296  0.00  0.00    +0.000 A 
ATOM     23  C   UNL     1      48.104   6.465  18.235  0.00  0.00    +0.000 A 
ATOM     24  N   UNL     1      48.511   6.892  17.009  0.00  0.00    +0.000 NA
BRANCH  23  25
ATOM     25  C   UNL     1      47.606   5.034  18.329  0.00  0.00    +0.000 C 
BRANCH  25  26
ATOM     26  C   UNL     1      48.634   4.000  17.880  0.00  0.00    +0.000 A 
ATOM     27  C   UNL     1      49.986   4.077  18.261  0.00  0.00    +0.000 A 
ATOM     28  C   UNL     1      50.921   3.149  17.801  0.00  0.00    +0.000 A 
ATOM     29  C   UNL     1      50.513   2.104  16.982  0.00  0.00    +0.000 A 
ATOM     30  C   UNL     1      49.168   1.979  16.635  0.00  0.00    +0.000 A 
ATOM     31  C   UNL     1      48.233   2.917  17.085  0.00  0.00    +0.000 A 
ENDBRANCH  25  26
ENDBRANCH  23  25
ENDBRANCH  18  19
ENDBRANCH   1  18
TORSDOF 7
ENDMDL
MODEL 7
REMARK VINA RESULT:    -6.220      4.219      7.381
REMARK INTER + INTRA:         -10.064
REMARK INTER:                  -8.619
REMARK INTRA:                  -1.445
REMARK UNBOUND:                -1.299
REMARK  Name = 
REMARK  7 active torsions:
REMARK  status: ('A' for Active; 'I' for Inactive)
REMARK    1  A    between atoms: C_2  and  C_3
REMARK    2  A    between atoms: C_3  and  N_4
REMARK    3  A    between atoms: N_4  and  C_5
REMARK    4  A    between atoms: C_5  and  C_6
REMARK    5  A    between atoms: C_10  and  C_11
REMARK    6  A    between atoms: C_11  and  C_12
REMARK    7  A    between atoms: C_19  and  C_21
REMARK                            x       y       z     vdW  Elec       q    Type
REMARK                         _______ _______ _______ _____ _____    ______ ____
ROOT
ATOM      1  N   UNL     1      49.687   7.321  17.130  0.00  0.00    +0.000 N 
ATOM      2  C   UNL     1      49.104   6.505  18.126  0.00  0.00    +0.000 C 
ATOM      3  O   UNL     1      48.813   6.969  19.227  0.00  0.00    +0.000 OA
ENDROOT
BRANCH   2   4
ATOM      4  C   UNL     1      48.879   5.065  17.882  0.00  0.00    +0.000 A 
ATOM      5  C   UNL     1      47.673   4.503  17.491  0.00  0.00    +0.000 A 
ATOM      6  S   UNL     1      47.748   2.823  17.204  0.00  0.00    +0.000 S 
ATOM      7  C   UNL     1      49.432   2.811  17.430  0.00  0.00    +0.000 A 
ATOM      8  N   UNL     1      50.156   1.685  17.196  0.00  0.00    +0.000 NA
ATOM      9  C   UNL     1      51.431   1.837  17.338  0.00  0.00    +0.000 A 
ATOM     10  N   UNL     1      52.038   3.003  17.734  0.00  0.00    +0.000 N 
ATOM     11  C   UNL     1      51.332   4.129  18.110  0.00  0.00    +0.000 A 
ATOM     12  O   UNL     1      51.887   5.062  18.679  0.00  0.00    +0.000 OA
ATOM     13  C   UNL     1      49.907   4.044  17.838  0.00  0.00    +0.000 A 
ATOM     14  H   UNL     1      53.033   3.033  17.897  0.00  0.00    +0.000 HD
ENDBRANCH   2   4
BRANCH   1  15
ATOM     15  C   UNL     1      49.896   8.736  17.480  0.00  0.00    +0.000 C 
BRANCH  15  17
ATOM     16  N   UNL     1      51.504  10.065  15.862  0.00  0.00    +0.000 NA
ATOM     17  C   UNL     1      50.793   9.471  16.574  0.00  0.00    +0.000 C 
ENDBRANCH  15  17
ENDBRANCH   1  15
BRANCH   1  18
ATOM     18  C   UNL     1      49.905   6.826  15.765  0.00  0.00    +0.000 C 
BRANCH  18  19
ATOM     19  C   UNL     1      48.922   6.966  14.618  0.00  0.00    +0.000 A 
ATOM     20  C   UNL     1      49.233   7.747  13.505  0.00  0.00    +0.000 A 
ATOM     21  C   UNL     1      48.525   7.570  12.321  0.00  0.00    +0.000 A 
ATOM     22  C   UNL     1      47.571   6.564  12.244  0.00  0.00    +0.000 A 
ATOM     23  C   UNL     1      47.344   5.780  13.371  0.00  0.00    +0.000 A 
ATOM     24  N   UNL     1      47.957   6.014  14.564  0.00  0.00    +0.000 NA
BRANCH  23  25
ATOM     25  C   UNL     1      46.636   4.446  13.218  0.00  0.00    +0.000 C 
BRANCH  25  26
ATOM     26  C   UNL     1      45.263   4.555  12.561  0.00  0.00    +0.000 A 
ATOM     27  C   UNL     1      44.992   3.990  11.302  0.00  0.00    +0.000 A 
ATOM     28  C   UNL     1      43.744   4.143  10.695  0.00  0.00    +0.000 A 
ATOM     29  C   UNL     1      42.734   4.830  11.355  0.00  0.00    +0.000 A 
ATOM     30  C   UNL     1      42.966   5.353  12.627  0.00  0.00    +0.000 A 
ATOM     31  C   UNL     1      44.221   5.212  13.229  0.00  0.00    +0.000 A 
ENDBRANCH  25  26
ENDBRANCH  23  25
ENDBRANCH  18  19
ENDBRANCH   1  18
TORSDOF 7
ENDMDL
MODEL 8
REMARK VINA RESULT:    -6.217      3.043      5.622
REMARK INTER + INTRA:         -10.060
REMARK INTER:                  -8.666
REMARK INTRA:                  -1.394
REMARK UNBOUND:                -1.299
REMARK  Name = 
REMARK  7 active torsions:
REMARK  status: ('A' for Active; 'I' for Inactive)
REMARK    1  A    between atoms: C_2  and  C_3
REMARK    2  A    between atoms: C_3  and  N_4
REMARK    3  A    between atoms: N_4  and  C_5
REMARK    4  A    between atoms: C_5  and  C_6
REMARK    5  A    between atoms: C_10  and  C_11
REMARK    6  A    between atoms: C_11  and  C_12
REMARK    7  A    between atoms: C_19  and  C_21
REMARK                            x       y       z     vdW  Elec       q    Type
REMARK                         _______ _______ _______ _____ _____    ______ ____
ROOT
ATOM      1  N   UNL     1      49.519   7.964  14.194  0.00  0.00    +0.000 N 
ATOM      2  C   UNL     1      50.080   8.353  15.432  0.00  0.00    +0.000 C 
ATOM      3  O   UNL     1      51.241   8.751  15.497  0.00  0.00    +0.000 OA
ENDROOT
BRANCH   2   4
ATOM      4  C   UNL     1      49.297   8.240  16.680  0.00  0.00    +0.000 A 
ATOM      5  C   UNL     1      48.492   9.239  17.208  0.00  0.00    +0.000 A 
ATOM      6  S   UNL     1      47.646   8.780  18.616  0.00  0.00    +0.000 S 
ATOM      7  C   UNL     1      48.194   7.178  18.482  0.00  0.00    +0.000 A 
ATOM      8  N   UNL     1      47.729   6.211  19.317  0.00  0.00    +0.000 NA
ATOM      9  C   UNL     1      48.175   5.027  19.056  0.00  0.00    +0.000 A 
ATOM     10  N   UNL     1      49.077   4.734  18.064  0.00  0.00    +0.000 N 
ATOM     11  C   UNL     1      49.676   5.702  17.282  0.00  0.00    +0.000 A 
ATOM     12  O   UNL     1      50.641   5.436  16.575  0.00  0.00    +0.000 OA
ATOM     13  C   UNL     1      49.105   7.028  17.450  0.00  0.00    +0.000 A 
ATOM     14  H   UNL     1      49.440   3.799  17.962  0.00  0.00    +0.000 HD
ENDBRANCH   2   4
BRANCH   1  15
ATOM     15  C   UNL     1      50.389   8.087  13.011  0.00  0.00    +0.000 C 
BRANCH  15  17
ATOM     16  N   UNL     1      49.685   9.968  11.298  0.00  0.00    +0.000 NA
ATOM     17  C   UNL     1      49.990   9.133  12.056  0.00  0.00    +0.000 C 
ENDBRANCH  15  17
ENDBRANCH   1  15
BRANCH   1  18
ATOM     18  C   UNL     1      48.095   7.627  14.069  0.00  0.00    +0.000 C 
BRANCH  18  19
ATOM     19  C   UNL     1      47.553   6.273  13.654  0.00  0.00    +0.000 A 
ATOM     20  C   UNL     1      47.370   5.260  14.596  0.00  0.00    +0.000 A 
ATOM     21  C   UNL     1      46.536   4.186  14.298  0.00  0.00    +0.000 A 
ATOM     22  C   UNL     1      45.839   4.180  13.098  0.00  0.00    +0.000 A 
ATOM     23  C   UNL     1      46.020   5.246  12.222  0.00  0.00    +0.000 A 
ATOM     24  N   UNL     1      46.912   6.247  12.458  0.00  0.00    +0.000 NA
BRANCH  23  25
ATOM     25  C   UNL     1      45.002   5.485  11.121  0.00  0.00    +0.000 C 
BRANCH  25  26
ATOM     26  C   UNL     1      45.140   4.527   9.943  0.00  0.00    +0.000 A 
ATOM     27  C   UNL     1      44.538   3.255   9.942  0.00  0.00    +0.000 A 
ATOM     28  C   UNL     1      44.716   2.373   8.875  0.00  0.00    +0.000 A 
ATOM     29  C   UNL     1      45.467   2.761   7.773  0.00  0.00    +0.000 A 
ATOM     30  C   UNL     1      46.028   4.037   7.732  0.00  0.00    +0.000 A 
ATOM     31  C   UNL     1      45.861   4.918   8.807  0.00  0.00    +0.000 A 
ENDBRANCH  25  26
ENDBRANCH  23  25
ENDBRANCH  18  19
ENDBRANCH   1  18
TORSDOF 7
ENDMDL
MODEL 9
REMARK VINA RESULT:    -6.170      3.872      7.244
REMARK INTER + INTRA:          -9.994
REMARK INTER:                  -8.332
REMARK INTRA:                  -1.663
REMARK UNBOUND:                -1.299
REMARK  Name = 
REMARK  7 active torsions:
REMARK  status: ('A' for Active; 'I' for Inactive)
REMARK    1  A    between atoms: C_2  and  C_3
REMARK    2  A    between atoms: C_3  and  N_4
REMARK    3  A    between atoms: N_4  and  C_5
REMARK    4  A    between atoms: C_5  and  C_6
REMARK    5  A    between atoms: C_10  and  C_11
REMARK    6  A    between atoms: C_11  and  C_12
REMARK    7  A    between atoms: C_19  and  C_21
REMARK                            x       y       z     vdW  Elec       q    Type
REMARK                         _______ _______ _______ _____ _____    ______ ____
ROOT
ATOM      1  N   UNL     1      49.395   7.464  16.824  0.00  0.00    +0.000 N 
ATOM      2  C   UNL     1      48.694   6.529  17.620  0.00  0.00    +0.000 C 
ATOM      3  O   UNL     1      48.198   6.867  18.693  0.00  0.00    +0.000 OA
ENDROOT
BRANCH   2   4
ATOM      4  C   UNL     1      48.588   5.116  17.202  0.00  0.00    +0.000 A 
ATOM      5  C   UNL     1      47.611   4.606  16.360  0.00  0.00    +0.000 A 
ATOM      6  S   UNL     1      47.803   2.951  15.992  0.00  0.00    +0.000 S 
ATOM      7  C   UNL     1      49.291   2.893  16.810  0.00  0.00    +0.000 A 
ATOM      8  N   UNL     1      50.062   1.774  16.769  0.00  0.00    +0.000 NA
ATOM      9  C   UNL     1      51.198   1.893  17.373  0.00  0.00    +0.000 A 
ATOM     10  N   UNL     1      51.608   3.015  18.050  0.00  0.00    +0.000 N 
ATOM     11  C   UNL     1      50.802   4.122  18.230  0.00  0.00    +0.000 A 
ATOM     12  O   UNL     1      51.104   5.000  19.029  0.00  0.00    +0.000 OA
ATOM     13  C   UNL     1      49.573   4.084  17.455  0.00  0.00    +0.000 A 
ATOM     14  H   UNL     1      52.477   3.015  18.562  0.00  0.00    +0.000 HD
ENDBRANCH   2   4
BRANCH   1  15
ATOM     15  C   UNL     1      49.469   8.842  17.340  0.00  0.00    +0.000 C 
BRANCH  15  17
ATOM     16  N   UNL     1      51.808  10.017  17.001  0.00  0.00    +0.000 NA
ATOM     17  C   UNL     1      50.770   9.503  17.152  0.00  0.00    +0.000 C 
ENDBRANCH  15  17
ENDBRANCH   1  15
BRANCH   1  18
ATOM     18  C   UNL     1      49.866   7.122  15.476  0.00  0.00    +0.000 C 
BRANCH  18  19
ATOM     19  C   UNL     1      49.272   7.649  14.184  0.00  0.00    +0.000 A 
ATOM     20  C   UNL     1      50.017   7.647  13.004  0.00  0.00    +0.000 A 
ATOM     21  C   UNL     1      49.367   7.762  11.779  0.00  0.00    +0.000 A 
ATOM     22  C   UNL     1      47.980   7.799  11.748  0.00  0.00    +0.000 A 
ATOM     23  C   UNL     1      47.288   7.742  12.955  0.00  0.00    +0.000 A 
ATOM     24  N   UNL     1      47.918   7.735  14.161  0.00  0.00    +0.000 NA
BRANCH  23  25
ATOM     25  C   UNL     1      45.816   7.372  12.951  0.00  0.00    +0.000 C 
BRANCH  25  26
ATOM     26  C   UNL     1      45.537   5.984  12.385  0.00  0.00    +0.000 A 
ATOM     27  C   UNL     1      45.743   4.815  13.140  0.00  0.00    +0.000 A 
ATOM     28  C   UNL     1      45.528   3.551  12.589  0.00  0.00    +0.000 A 
ATOM     29  C   UNL     1      45.066   3.434  11.285  0.00  0.00    +0.000 A 
ATOM     30  C   UNL     1      44.805   4.581  10.536  0.00  0.00    +0.000 A 
ATOM     31  C   UNL     1      45.033   5.849  11.084  0.00  0.00    +0.000 A 
ENDBRANCH  25  26
ENDBRANCH  23  25
ENDBRANCH  18  19
ENDBRANCH   1  18
TORSDOF 7
ENDMDL
