MODEL 1
REMARK VINA RESULT:    -7.638      0.000      0.000
REMARK INTER + INTRA:         -12.767
REMARK INTER:                 -11.211
REMARK INTRA:                  -1.557
REMARK UNBOUND:                -1.557
REMARK  Name = 
REMARK  10 active torsions:
REMARK  status: ('A' for Active; 'I' for Inactive)
REMARK    1  A    between atoms: C_1  and  C_2
REMARK    2  A    between atoms: C_2  and  C_3
REMARK    3  A    between atoms: C_2  and  C_13
REMARK    4  A    between atoms: C_3  and  N_4
REMARK    5  A    between atoms: N_4  and  C_5
REMARK    6  A    between atoms: N_4  and  C_6
REMARK    7  A    between atoms: C_6  and  C_7
REMARK    8  A    between atoms: C_16  and  C_17
REMARK    9  A    between atoms: C_17  and  N_18
REMARK   10  A    between atoms: C_19  and  C_21
REMARK                            x       y       z     vdW  Elec       q    Type
REMARK                         _______ _______ _______ _____ _____    ______ ____
ROOT
ATOM      1  C   UNL     1      46.997   4.958  13.576  0.00  0.00    +0.000 A 
ATOM      2  C   UNL     1      46.964   4.366  14.838  0.00  0.00    +0.000 A 
ATOM      3  C   UNL     1      47.709   4.913  15.881  0.00  0.00    +0.000 A 
ATOM      4  C   UNL     1      48.458   6.065  15.659  0.00  0.00    +0.000 A 
ATOM      5  C   UNL     1      48.451   6.587  14.375  0.00  0.00    +0.000 A 
ATOM      6  N   UNL     1      47.744   6.069  13.348  0.00  0.00    +0.000 NA
ENDROOT
BRANCH   1   8
ATOM      7  C   UNL     1      45.518   3.069  12.766  0.00  0.00    +0.000 C 
ATOM      8  C   UNL     1      46.127   4.450  12.431  0.00  0.00    +0.000 C 
BRANCH   8   9
ATOM      9  C   UNL     1      44.957   5.398  12.036  0.00  0.00    +0.000 C 
BRANCH   9  10
ATOM     10  N   UNL     1      43.732   4.780  11.475  0.00  0.00    +0.000 NA
ATOM     11  C   UNL     1      42.514   5.364  12.041  0.00  0.00    +0.000 C 
BRANCH  10  12
ATOM     12  C   UNL     1      43.686   4.891  10.001  0.00  0.00    +0.000 C 
BRANCH  12  13
ATOM     13  C   UNL     1      44.627   3.943   9.285  0.00  0.00    +0.000 A 
ATOM     14  C   UNL     1      45.585   4.429   8.383  0.00  0.00    +0.000 A 
ATOM     15  C   UNL     1      46.387   3.547   7.658  0.00  0.00    +0.000 A 
ATOM     16  C   UNL     1      46.250   2.172   7.838  0.00  0.00    +0.000 A 
ATOM     17  C   UNL     1      45.326   1.677   8.757  0.00  0.00    +0.000 A 
ATOM     18  C   UNL     1      44.521   2.558   9.480  0.00  0.00    +0.000 A 
ENDBRANCH  12  13
ENDBRANCH  10  12
ENDBRANCH   9  10
ENDBRANCH   8   9
ENDBRANCH   1   8
BRANCH   4  19
ATOM     19  C   UNL     1      49.304   6.681  16.726  0.00  0.00    +0.000 C 
BRANCH  19  20
ATOM     20  N   UNL     1      50.362   5.783  17.107  0.00  0.00    +0.000 N 
ATOM     21  C   UNL     1      50.498   5.346  18.396  0.00  0.00    +0.000 C 
ATOM     22  O   UNL     1      49.698   5.656  19.273  0.00  0.00    +0.000 OA
ATOM     23  H   UNL     1      51.139   5.682  16.459  0.00  0.00    +0.000 HD
BRANCH  21  24
ATOM     24  C   UNL     1      51.620   4.442  18.659  0.00  0.00    +0.000 A 
ATOM     25  C   UNL     1      52.670   4.874  19.458  0.00  0.00    +0.000 A 
ATOM     26  S   UNL     1      53.871   3.690  19.709  0.00  0.00    +0.000 S 
ATOM     27  C   UNL     1      53.052   2.571  18.722  0.00  0.00    +0.000 A 
ATOM     28  N   UNL     1      53.565   1.332  18.495  0.00  0.00    +0.000 NA
ATOM     29  C   UNL     1      52.853   0.595  17.709  0.00  0.00    +0.000 A 
ATOM     30  N   UNL     1      51.672   0.984  17.133  0.00  0.00    +0.000 N 
ATOM     31  C   UNL     1      51.105   2.217  17.349  0.00  0.00    +0.000 A 
ATOM     32  O   UNL     1      50.029   2.525  16.846  0.00  0.00    +0.000 OA
ATOM     33  C   UNL     1      51.871   3.087  18.221  0.00  0.00    +0.000 A 
ATOM     34  H   UNL     1      51.158   0.358  16.529  0.00  0.00    +0.000 HD
ENDBRANCH  21  24
ENDBRANCH  19  20
ENDBRANCH   4  19
TORSDOF 8
ENDMDL
MODEL 2
REMARK VINA RESULT:    -7.552      3.014      3.951
REMARK INTER + INTRA:         -12.640
REMARK INTER:                 -12.130
REMARK INTRA:                  -0.510
REMARK UNBOUND:                -1.557
REMARK  Name = 
REMARK  10 active torsions:
REMARK  status: ('A' for Active; 'I' for Inactive)
REMARK    1  A    between atoms: C_1  and  C_2
REMARK    2  A    between atoms: C_2  and  C_3
REMARK    3  A    between atoms: C_2  and  C_13
REMARK    4  A    between atoms: C_3  and  N_4
REMARK    5  A    between atoms: N_4  and  C_5
REMARK    6  A    between atoms: N_4  and  C_6
REMARK    7  A    between atoms: C_6  and  C_7
REMARK    8  A    between atoms: C_16  and  C_17
REMARK    9  A    between atoms: C_17  and  N_18
REMARK   10  A    between atoms: C_19  and  C_21
REMARK                            x       y       z     vdW  Elec       q    Type
REMARK                         _______ _______ _______ _____ _____    ______ ____
ROOT
ATOM      1  C   UNL     1      45.005   5.817  12.377  0.00  0.00    +0.000 A 
ATOM      2  C   UNL     1      45.571   7.049  12.053  0.00  0.00    +0.000 A 
ATOM      3  C   UNL     1      46.782   7.428  12.626  0.00  0.00    +0.000 A 
ATOM      4  C   UNL     1      47.432   6.558  13.498  0.00  0.00    +0.000 A 
ATOM      5  C   UNL     1      46.800   5.358  13.780  0.00  0.00    +0.000 A 
ATOM      6  N   UNL     1      45.623   4.974  13.243  0.00  0.00    +0.000 NA
ENDROOT
BRANCH   1   8
ATOM      7  C   UNL     1      42.769   6.493  11.398  0.00  0.00    +0.000 C 
ATOM      8  C   UNL     1      43.729   5.320  11.704  0.00  0.00    +0.000 C 
BRANCH   8   9
ATOM      9  C   UNL     1      43.958   4.541  10.376  0.00  0.00    +0.000 C 
BRANCH   9  10
ATOM     10  N   UNL     1      44.404   3.130  10.476  0.00  0.00    +0.000 NA
ATOM     11  C   UNL     1      43.688   2.401  11.525  0.00  0.00    +0.000 C 
BRANCH  10  12
ATOM     12  C   UNL     1      44.250   2.413   9.192  0.00  0.00    +0.000 C 
BRANCH  12  13
ATOM     13  C   UNL     1      45.489   2.446   8.319  0.00  0.00    +0.000 A 
ATOM     14  C   UNL     1      45.847   3.612   7.627  0.00  0.00    +0.000 A 
ATOM     15  C   UNL     1      46.935   3.612   6.755  0.00  0.00    +0.000 A 
ATOM     16  C   UNL     1      47.686   2.451   6.576  0.00  0.00    +0.000 A 
ATOM     17  C   UNL     1      47.362   1.296   7.285  0.00  0.00    +0.000 A 
ATOM     18  C   UNL     1      46.272   1.293   8.155  0.00  0.00    +0.000 A 
ENDBRANCH  12  13
ENDBRANCH  10  12
ENDBRANCH   9  10
ENDBRANCH   8   9
ENDBRANCH   1   8
BRANCH   4  19
ATOM     19  C   UNL     1      48.716   6.919  14.171  0.00  0.00    +0.000 C 
BRANCH  19  20
ATOM     20  N   UNL     1      48.491   7.187  15.567  0.00  0.00    +0.000 N 
ATOM     21  C   UNL     1      48.895   6.311  16.536  0.00  0.00    +0.000 C 
ATOM     22  O   UNL     1      49.513   5.285  16.266  0.00  0.00    +0.000 OA
ATOM     23  H   UNL     1      47.815   7.911  15.796  0.00  0.00    +0.000 HD
BRANCH  21  24
ATOM     24  C   UNL     1      48.601   6.693  17.919  0.00  0.00    +0.000 A 
ATOM     25  C   UNL     1      48.347   8.025  18.219  0.00  0.00    +0.000 A 
ATOM     26  S   UNL     1      47.974   8.298  19.860  0.00  0.00    +0.000 S 
ATOM     27  C   UNL     1      48.180   6.652  20.238  0.00  0.00    +0.000 A 
ATOM     28  N   UNL     1      48.023   6.201  21.511  0.00  0.00    +0.000 NA
ATOM     29  C   UNL     1      48.234   4.936  21.661  0.00  0.00    +0.000 A 
ATOM     30  N   UNL     1      48.582   4.079  20.650  0.00  0.00    +0.000 N 
ATOM     31  C   UNL     1      48.732   4.484  19.345  0.00  0.00    +0.000 A 
ATOM     32  O   UNL     1      49.012   3.687  18.455  0.00  0.00    +0.000 OA
ATOM     33  C   UNL     1      48.514   5.901  19.125  0.00  0.00    +0.000 A 
ATOM     34  H   UNL     1      48.728   3.096  20.830  0.00  0.00    +0.000 HD
ENDBRANCH  21  24
ENDBRANCH  19  20
ENDBRANCH   4  19
TORSDOF 8
ENDMDL
MODEL 3
REMARK VINA RESULT:    -7.262      1.950      2.789
REMARK INTER + INTRA:         -12.215
REMARK INTER:                 -10.976
REMARK INTRA:                  -1.239
REMARK UNBOUND:                -1.557
REMARK  Name = 
REMARK  10 active torsions:
REMARK  status: ('A' for Active; 'I' for Inactive)
REMARK    1  A    between atoms: C_1  and  C_2
REMARK    2  A    between atoms: C_2  and  C_3
REMARK    3  A    between atoms: C_2  and  C_13
REMARK    4  A    between atoms: C_3  and  N_4
REMARK    5  A    between atoms: N_4  and  C_5
REMARK    6  A    between atoms: N_4  and  C_6
REMARK    7  A    between atoms: C_6  and  C_7
REMARK    8  A    between atoms: C_16  and  C_17
REMARK    9  A    between atoms: C_17  and  N_18
REMARK   10  A    between atoms: C_19  and  C_21
REMARK                            x       y       z     vdW  Elec       q    Type
REMARK                         _______ _______ _______ _____ _____    ______ ____
ROOT
ATOM      1  C   UNL     1      45.424   6.377  12.367  0.00  0.00    +0.000 A 
ATOM      2  C   UNL     1      45.321   7.736  12.662  0.00  0.00    +0.000 A 
ATOM      3  C   UNL     1      46.389   8.397  13.265  0.00  0.00    +0.000 A 
ATOM      4  C   UNL     1      47.562   7.699  13.542  0.00  0.00    +0.000 A 
ATOM      5  C   UNL     1      47.581   6.348  13.232  0.00  0.00    +0.000 A 
ATOM      6  N   UNL     1      46.556   5.685  12.656  0.00  0.00    +0.000 NA
ENDROOT
BRANCH   1   8
ATOM      7  C   UNL     1      43.230   6.611  11.124  0.00  0.00    +0.000 C 
ATOM      8  C   UNL     1      44.318   5.633  11.624  0.00  0.00    +0.000 C 
BRANCH   8   9
ATOM      9  C   UNL     1      44.805   4.804  10.400  0.00  0.00    +0.000 C 
BRANCH   9  10
ATOM     10  N   UNL     1      44.701   3.328  10.485  0.00  0.00    +0.000 NA
ATOM     11  C   UNL     1      43.746   2.903  11.511  0.00  0.00    +0.000 C 
BRANCH  10  12
ATOM     12  C   UNL     1      44.322   2.727   9.187  0.00  0.00    +0.000 C 
BRANCH  12  13
ATOM     13  C   UNL     1      45.490   2.520   8.244  0.00  0.00    +0.000 A 
ATOM     14  C   UNL     1      45.849   3.512   7.320  0.00  0.00    +0.000 A 
ATOM     15  C   UNL     1      46.866   3.281   6.393  0.00  0.00    +0.000 A 
ATOM     16  C   UNL     1      47.542   2.063   6.388  0.00  0.00    +0.000 A 
ATOM     17  C   UNL     1      47.218   1.082   7.324  0.00  0.00    +0.000 A 
ATOM     18  C   UNL     1      46.200   1.310   8.250  0.00  0.00    +0.000 A 
ENDBRANCH  12  13
ENDBRANCH  10  12
ENDBRANCH   9  10
ENDBRANCH   8   9
ENDBRANCH   1   8
BRANCH   4  19
ATOM     19  C   UNL     1      48.729   8.342  14.218  0.00  0.00    +0.000 C 
BRANCH  19  20
ATOM     20  N   UNL     1      49.533   7.349  14.880  0.00  0.00    +0.000 N 
ATOM     21  C   UNL     1      49.864   7.463  16.202  0.00  0.00    +0.000 C 
ATOM     22  O   UNL     1      49.449   8.386  16.897  0.00  0.00    +0.000 OA
ATOM     23  H   UNL     1      50.049   6.703  14.288  0.00  0.00    +0.000 HD
BRANCH  21  24
ATOM     24  C   UNL     1      50.695   6.392  16.757  0.00  0.00    +0.000 A 
ATOM     25  C   UNL     1      52.005   6.669  17.127  0.00  0.00    +0.000 A 
ATOM     26  S   UNL     1      52.822   5.333  17.800  0.00  0.00    +0.000 S 
ATOM     27  C   UNL     1      51.468   4.325  17.582  0.00  0.00    +0.000 A 
ATOM     28  N   UNL     1      51.508   3.014  17.941  0.00  0.00    +0.000 NA
ATOM     29  C   UNL     1      50.421   2.360  17.697  0.00  0.00    +0.000 A 
ATOM     30  N   UNL     1      49.296   2.901  17.132  0.00  0.00    +0.000 N 
ATOM     31  C   UNL     1      49.203   4.224  16.772  0.00  0.00    +0.000 A 
ATOM     32  O   UNL     1      48.170   4.688  16.297  0.00  0.00    +0.000 OA
ATOM     33  C   UNL     1      50.403   5.001  17.018  0.00  0.00    +0.000 A 
ATOM     34  H   UNL     1      48.474   2.337  16.971  0.00  0.00    +0.000 HD
ENDBRANCH  21  24
ENDBRANCH  19  20
ENDBRANCH   4  19
TORSDOF 8
ENDMDL
MODEL 4
REMARK VINA RESULT:    -7.246      3.615      9.866
REMARK INTER + INTRA:         -12.191
REMARK INTER:                  -9.861
REMARK INTRA:                  -2.330
REMARK UNBOUND:                -1.557
REMARK  Name = 
REMARK  10 active torsions:
REMARK  status: ('A' for Active; 'I' for Inactive)
REMARK    1  A    between atoms: C_1  and  C_2
REMARK    2  A    between atoms: C_2  and  C_3
REMARK    3  A    between atoms: C_2  and  C_13
REMARK    4  A    between atoms: C_3  and  N_4
REMARK    5  A    between atoms: N_4  and  C_5
REMARK    6  A    between atoms: N_4  and  C_6
REMARK    7  A    between atoms: C_6  and  C_7
REMARK    8  A    between atoms: C_16  and  C_17
REMARK    9  A    between atoms: C_17  and  N_18
REMARK   10  A    between atoms: C_19  and  C_21
REMARK                            x       y       z     vdW  Elec       q    Type
REMARK                         _______ _______ _______ _____ _____    ______ ____
ROOT
ATOM      1  C   UNL     1      51.421   4.387  17.628  0.00  0.00    +0.000 A 
ATOM      2  C   UNL     1      50.949   3.079  17.728  0.00  0.00    +0.000 A 
ATOM      3  C   UNL     1      49.610   2.803  17.460  0.00  0.00    +0.000 A 
ATOM      4  C   UNL     1      48.761   3.834  17.066  0.00  0.00    +0.000 A 
ATOM      5  C   UNL     1      49.302   5.108  17.003  0.00  0.00    +0.000 A 
ATOM      6  N   UNL     1      50.593   5.401  17.267  0.00  0.00    +0.000 NA
ENDROOT
BRANCH   1   8
ATOM      7  C   UNL     1      53.366   5.778  16.795  0.00  0.00    +0.000 C 
ATOM      8  C   UNL     1      52.897   4.722  17.821  0.00  0.00    +0.000 C 
BRANCH   8   9
ATOM      9  C   UNL     1      53.262   5.250  19.240  0.00  0.00    +0.000 C 
BRANCH   9  10
ATOM     10  N   UNL     1      52.546   4.660  20.396  0.00  0.00    +0.000 NA
ATOM     11  C   UNL     1      53.444   3.900  21.269  0.00  0.00    +0.000 C 
BRANCH  10  12
ATOM     12  C   UNL     1      51.849   5.692  21.195  0.00  0.00    +0.000 C 
BRANCH  12  13
ATOM     13  C   UNL     1      50.377   5.833  20.863  0.00  0.00    +0.000 A 
ATOM     14  C   UNL     1      49.506   4.741  20.991  0.00  0.00    +0.000 A 
ATOM     15  C   UNL     1      48.172   4.850  20.598  0.00  0.00    +0.000 A 
ATOM     16  C   UNL     1      47.691   6.055  20.088  0.00  0.00    +0.000 A 
ATOM     17  C   UNL     1      48.538   7.157  19.989  0.00  0.00    +0.000 A 
ATOM     18  C   UNL     1      49.873   7.049  20.379  0.00  0.00    +0.000 A 
ENDBRANCH  12  13
ENDBRANCH  10  12
ENDBRANCH   9  10
ENDBRANCH   8   9
ENDBRANCH   1   8
BRANCH   4  19
ATOM     19  C   UNL     1      47.308   3.609  16.797  0.00  0.00    +0.000 C 
BRANCH  19  20
ATOM     20  N   UNL     1      46.832   4.542  15.811  0.00  0.00    +0.000 N 
ATOM     21  C   UNL     1      46.855   4.244  14.477  0.00  0.00    +0.000 C 
ATOM     22  O   UNL     1      47.232   3.152  14.062  0.00  0.00    +0.000 OA
ATOM     23  H   UNL     1      46.712   5.507  16.107  0.00  0.00    +0.000 HD
BRANCH  21  24
ATOM     24  C   UNL     1      46.350   5.279  13.572  0.00  0.00    +0.000 A 
ATOM     25  C   UNL     1      47.161   6.362  13.256  0.00  0.00    +0.000 A 
ATOM     26  S   UNL     1      46.449   7.452  12.155  0.00  0.00    +0.000 S 
ATOM     27  C   UNL     1      45.014   6.538  12.094  0.00  0.00    +0.000 A 
ATOM     28  N   UNL     1      43.961   6.939  11.332  0.00  0.00    +0.000 NA
ATOM     29  C   UNL     1      42.929   6.167  11.398  0.00  0.00    +0.000 A 
ATOM     30  N   UNL     1      42.855   5.027  12.155  0.00  0.00    +0.000 N 
ATOM     31  C   UNL     1      43.899   4.572  12.924  0.00  0.00    +0.000 A 
ATOM     32  O   UNL     1      43.815   3.529  13.566  0.00  0.00    +0.000 OA
ATOM     33  C   UNL     1      45.082   5.410  12.890  0.00  0.00    +0.000 A 
ATOM     34  H   UNL     1      42.018   4.461  12.160  0.00  0.00    +0.000 HD
ENDBRANCH  21  24
ENDBRANCH  19  20
ENDBRANCH   4  19
TORSDOF 8
ENDMDL
MODEL 5
REMARK VINA RESULT:    -7.223      2.927      4.333
REMARK INTER + INTRA:         -12.158
REMARK INTER:                 -11.179
REMARK INTRA:                  -0.979
REMARK UNBOUND:                -1.557
REMARK  Name = 
REMARK  10 active torsions:
REMARK  status: ('A' for Active; 'I' for Inactive)
REMARK    1  A    between atoms: C_1  and  C_2
REMARK    2  A    between atoms: C_2  and  C_3
REMARK    3  A    between atoms: C_2  and  C_13
REMARK    4  A    between atoms: C_3  and  N_4
REMARK    5  A    between atoms: N_4  and  C_5
REMARK    6  A    between atoms: N_4  and  C_6
REMARK    7  A    between atoms: C_6  and  C_7
REMARK    8  A    between atoms: C_16  and  C_17
REMARK    9  A    between atoms: C_17  and  N_18
REMARK   10  A    between atoms: C_19  and  C_21
REMARK                            x       y       z     vdW  Elec       q    Type
REMARK                         _______ _______ _______ _____ _____    ______ ____
ROOT
ATOM      1  C   UNL     1      45.583   5.631  12.469  0.00  0.00    +0.000 A 
ATOM      2  C   UNL     1      45.905   4.774  13.521  0.00  0.00    +0.000 A 
ATOM      3  C   UNL     1      46.976   5.076  14.359  0.00  0.00    +0.000 A 
ATOM      4  C   UNL     1      47.699   6.248  14.154  0.00  0.00    +0.000 A 
ATOM      5  C   UNL     1      47.327   7.041  13.080  0.00  0.00    +0.000 A 
ATOM      6  N   UNL     1      46.299   6.764  12.251  0.00  0.00    +0.000 NA
ENDROOT
BRANCH   1   8
ATOM      7  C   UNL     1      43.741   6.726  11.120  0.00  0.00    +0.000 C 
ATOM      8  C   UNL     1      44.363   5.390  11.585  0.00  0.00    +0.000 C 
BRANCH   8   9
ATOM      9  C   UNL     1      44.642   4.533  10.316  0.00  0.00    +0.000 C 
BRANCH   9  10
ATOM     10  N   UNL     1      44.609   3.058  10.462  0.00  0.00    +0.000 NA
ATOM     11  C   UNL     1      43.598   2.624  11.429  0.00  0.00    +0.000 C 
BRANCH  10  12
ATOM     12  C   UNL     1      44.367   2.383   9.169  0.00  0.00    +0.000 C 
BRANCH  12  13
ATOM     13  C   UNL     1      45.565   2.389   8.240  0.00  0.00    +0.000 A 
ATOM     14  C   UNL     1      45.872   3.523   7.475  0.00  0.00    +0.000 A 
ATOM     15  C   UNL     1      46.920   3.494   6.555  0.00  0.00    +0.000 A 
ATOM     16  C   UNL     1      47.680   2.336   6.400  0.00  0.00    +0.000 A 
ATOM     17  C   UNL     1      47.407   1.214   7.180  0.00  0.00    +0.000 A 
ATOM     18  C   UNL     1      46.358   1.240   8.099  0.00  0.00    +0.000 A 
ENDBRANCH  12  13
ENDBRANCH  10  12
ENDBRANCH   9  10
ENDBRANCH   8   9
ENDBRANCH   1   8
BRANCH   4  19
ATOM     19  C   UNL     1      48.879   6.612  14.996  0.00  0.00    +0.000 C 
BRANCH  19  20
ATOM     20  N   UNL     1      48.568   6.450  16.391  0.00  0.00    +0.000 N 
ATOM     21  C   UNL     1      49.524   6.086  17.299  0.00  0.00    +0.000 C 
ATOM     22  O   UNL     1      50.699   5.932  16.976  0.00  0.00    +0.000 OA
ATOM     23  H   UNL     1      47.585   6.371  16.639  0.00  0.00    +0.000 HD
BRANCH  21  24
ATOM     24  C   UNL     1      49.080   5.946  18.687  0.00  0.00    +0.000 A 
ATOM     25  C   UNL     1      49.276   4.739  19.346  0.00  0.00    +0.000 A 
ATOM     26  S   UNL     1      48.750   4.752  20.968  0.00  0.00    +0.000 S 
ATOM     27  C   UNL     1      48.203   6.358  20.836  0.00  0.00    +0.000 A 
ATOM     28  N   UNL     1      47.614   6.985  21.888  0.00  0.00    +0.000 NA
ATOM     29  C   UNL     1      47.224   8.191  21.642  0.00  0.00    +0.000 A 
ATOM     30  N   UNL     1      47.375   8.829  20.439  0.00  0.00    +0.000 N 
ATOM     31  C   UNL     1      47.982   8.243  19.354  0.00  0.00    +0.000 A 
ATOM     32  O   UNL     1      48.133   8.852  18.298  0.00  0.00    +0.000 OA
ATOM     33  C   UNL     1      48.432   6.882  19.577  0.00  0.00    +0.000 A 
ATOM     34  H   UNL     1      47.053   9.778  20.310  0.00  0.00    +0.000 HD
ENDBRANCH  21  24
ENDBRANCH  19  20
ENDBRANCH   4  19
TORSDOF 8
ENDMDL
MODEL 6
REMARK VINA RESULT:    -7.176      4.045      8.990
REMARK INTER + INTRA:         -12.089
REMARK INTER:                 -10.088
REMARK INTRA:                  -2.001
REMARK UNBOUND:                -1.557
REMARK  Name = 
REMARK  10 active torsions:
REMARK  status: ('A' for Active; 'I' for Inactive)
REMARK    1  A    between atoms: C_1  and  C_2
REMARK    2  A    between atoms: C_2  and  C_3
REMARK    3  A    between atoms: C_2  and  C_13
REMARK    4  A    between atoms: C_3  and  N_4
REMARK    5  A    between atoms: N_4  and  C_5
REMARK    6  A    between atoms: N_4  and  C_6
REMARK    7  A    between atoms: C_6  and  C_7
REMARK    8  A    between atoms: C_16  and  C_17
REMARK    9  A    between atoms: C_17  and  N_18
REMARK   10  A    between atoms: C_19  and  C_21
REMARK                            x       y       z     vdW  Elec       q    Type
REMARK                         _______ _______ _______ _____ _____    ______ ____
ROOT
ATOM      1  C   UNL     1      48.827   8.041  16.229  0.00  0.00    +0.000 A 
ATOM      2  C   UNL     1      49.236   6.931  15.490  0.00  0.00    +0.000 A 
ATOM      3  C   UNL     1      48.893   6.830  14.143  0.00  0.00    +0.000 A 
ATOM      4  C   UNL     1      48.168   7.854  13.540  0.00  0.00    +0.000 A 
ATOM      5  C   UNL     1      47.787   8.917  14.343  0.00  0.00    +0.000 A 
ATOM      6  N   UNL     1      48.101   9.032  15.651  0.00  0.00    +0.000 NA
ENDROOT
BRANCH   1   8
ATOM      7  C   UNL     1      49.715   9.694  17.928  0.00  0.00    +0.000 C 
ATOM      8  C   UNL     1      49.257   8.240  17.679  0.00  0.00    +0.000 C 
BRANCH   8   9
ATOM      9  C   UNL     1      48.161   7.904  18.731  0.00  0.00    +0.000 C 
BRANCH   9  10
ATOM     10  N   UNL     1      48.199   6.561  19.358  0.00  0.00    +0.000 NA
ATOM     11  C   UNL     1      47.707   6.585  20.738  0.00  0.00    +0.000 C 
BRANCH  10  12
ATOM     12  C   UNL     1      47.424   5.569  18.582  0.00  0.00    +0.000 C 
BRANCH  12  13
ATOM     13  C   UNL     1      48.272   4.474  17.967  0.00  0.00    +0.000 A 
ATOM     14  C   UNL     1      47.689   3.481  17.166  0.00  0.00    +0.000 A 
ATOM     15  C   UNL     1      48.457   2.424  16.677  0.00  0.00    +0.000 A 
ATOM     16  C   UNL     1      49.818   2.356  16.972  0.00  0.00    +0.000 A 
ATOM     17  C   UNL     1      50.416   3.355  17.737  0.00  0.00    +0.000 A 
ATOM     18  C   UNL     1      49.649   4.411  18.229  0.00  0.00    +0.000 A 
ENDBRANCH  12  13
ENDBRANCH  10  12
ENDBRANCH   9  10
ENDBRANCH   8   9
ENDBRANCH   1   8
BRANCH   4  19
ATOM     19  C   UNL     1      47.741   7.789  12.109  0.00  0.00    +0.000 C 
BRANCH  19  20
ATOM     20  N   UNL     1      47.016   6.573  11.858  0.00  0.00    +0.000 N 
ATOM     21  C   UNL     1      45.652   6.523  11.945  0.00  0.00    +0.000 C 
ATOM     22  O   UNL     1      44.981   7.522  12.188  0.00  0.00    +0.000 OA
ATOM     23  H   UNL     1      47.550   5.707  11.859  0.00  0.00    +0.000 HD
BRANCH  21  24
ATOM     24  C   UNL     1      45.031   5.224  11.675  0.00  0.00    +0.000 A 
ATOM     25  C   UNL     1      44.336   4.577  12.688  0.00  0.00    +0.000 A 
ATOM     26  S   UNL     1      43.632   3.102  12.202  0.00  0.00    +0.000 S 
ATOM     27  C   UNL     1      44.267   3.254  10.630  0.00  0.00    +0.000 A 
ATOM     28  N   UNL     1      44.049   2.295   9.692  0.00  0.00    +0.000 NA
ATOM     29  C   UNL     1      44.609   2.525   8.551  0.00  0.00    +0.000 A 
ATOM     30  N   UNL     1      45.364   3.631   8.263  0.00  0.00    +0.000 N 
ATOM     31  C   UNL     1      45.596   4.636   9.172  0.00  0.00    +0.000 A 
ATOM     32  O   UNL     1      46.249   5.631   8.874  0.00  0.00    +0.000 OA
ATOM     33  C   UNL     1      44.993   4.420  10.474  0.00  0.00    +0.000 A 
ATOM     34  H   UNL     1      45.772   3.756   7.348  0.00  0.00    +0.000 HD
ENDBRANCH  21  24
ENDBRANCH  19  20
ENDBRANCH   4  19
TORSDOF 8
ENDMDL
MODEL 7
REMARK VINA RESULT:    -6.914      4.107      9.435
REMARK INTER + INTRA:         -11.705
REMARK INTER:                  -9.368
REMARK INTRA:                  -2.336
REMARK UNBOUND:                -1.557
REMARK  Name = 
REMARK  10 active torsions:
REMARK  status: ('A' for Active; 'I' for Inactive)
REMARK    1  A    between atoms: C_1  and  C_2
REMARK    2  A    between atoms: C_2  and  C_3
REMARK    3  A    between atoms: C_2  and  C_13
REMARK    4  A    between atoms: C_3  and  N_4
REMARK    5  A    between atoms: N_4  and  C_5
REMARK    6  A    between atoms: N_4  and  C_6
REMARK    7  A    between atoms: C_6  and  C_7
REMARK    8  A    between atoms: C_16  and  C_17
REMARK    9  A    between atoms: C_17  and  N_18
REMARK   10  A    between atoms: C_19  and  C_21
REMARK                            x       y       z     vdW  Elec       q    Type
REMARK                         _______ _______ _______ _____ _____    ______ ____
ROOT
ATOM      1  C   UNL     1      48.346   5.213  20.213  0.00  0.00    +0.000 A 
ATOM      2  C   UNL     1      49.189   4.193  19.773  0.00  0.00    +0.000 A 
ATOM      3  C   UNL     1      48.975   3.604  18.529  0.00  0.00    +0.000 A 
ATOM      4  C   UNL     1      47.938   4.062  17.721  0.00  0.00    +0.000 A 
ATOM      5  C   UNL     1      47.136   5.070  18.233  0.00  0.00    +0.000 A 
ATOM      6  N   UNL     1      47.318   5.648  19.439  0.00  0.00    +0.000 NA
ENDROOT
BRANCH   1   8
ATOM      7  C   UNL     1      49.956   5.542  22.139  0.00  0.00    +0.000 C 
ATOM      8  C   UNL     1      48.597   5.949  21.525  0.00  0.00    +0.000 C 
BRANCH   8   9
ATOM      9  C   UNL     1      48.577   7.501  21.412  0.00  0.00    +0.000 C 
BRANCH   9  10
ATOM     10  N   UNL     1      48.806   8.095  20.073  0.00  0.00    +0.000 NA
ATOM     11  C   UNL     1      48.062   9.343  19.891  0.00  0.00    +0.000 C 
BRANCH  10  12
ATOM     12  C   UNL     1      50.242   8.343  19.820  0.00  0.00    +0.000 C 
BRANCH  12  13
ATOM     13  C   UNL     1      50.870   7.369  18.842  0.00  0.00    +0.000 A 
ATOM     14  C   UNL     1      50.310   7.169  17.571  0.00  0.00    +0.000 A 
ATOM     15  C   UNL     1      50.836   6.207  16.710  0.00  0.00    +0.000 A 
ATOM     16  C   UNL     1      51.934   5.444  17.103  0.00  0.00    +0.000 A 
ATOM     17  C   UNL     1      52.521   5.657  18.348  0.00  0.00    +0.000 A 
ATOM     18  C   UNL     1      51.994   6.618  19.213  0.00  0.00    +0.000 A 
ENDBRANCH  12  13
ENDBRANCH  10  12
ENDBRANCH   9  10
ENDBRANCH   8   9
ENDBRANCH   1   8
BRANCH   4  19
ATOM     19  C   UNL     1      47.636   3.451  16.391  0.00  0.00    +0.000 C 
BRANCH  19  20
ATOM     20  N   UNL     1      46.994   4.411  15.533  0.00  0.00    +0.000 N 
ATOM     21  C   UNL     1      46.747   4.139  14.216  0.00  0.00    +0.000 C 
ATOM     22  O   UNL     1      47.011   3.048  13.719  0.00  0.00    +0.000 OA
ATOM     23  H   UNL     1      46.957   5.373  15.861  0.00  0.00    +0.000 HD
BRANCH  21  24
ATOM     24  C   UNL     1      46.096   5.200  13.445  0.00  0.00    +0.000 A 
ATOM     25  C   UNL     1      46.759   6.406  13.252  0.00  0.00    +0.000 A 
ATOM     26  S   UNL     1      45.891   7.518  12.294  0.00  0.00    +0.000 S 
ATOM     27  C   UNL     1      44.580   6.444  12.138  0.00  0.00    +0.000 A 
ATOM     28  N   UNL     1      43.469   6.795  11.437  0.00  0.00    +0.000 NA
ATOM     29  C   UNL     1      42.542   5.896  11.420  0.00  0.00    +0.000 A 
ATOM     30  N   UNL     1      42.628   4.675  12.036  0.00  0.00    +0.000 N 
ATOM     31  C   UNL     1      43.738   4.269  12.738  0.00  0.00    +0.000 A 
ATOM     32  O   UNL     1      43.799   3.156  13.252  0.00  0.00    +0.000 OA
ATOM     33  C   UNL     1      44.807   5.248  12.794  0.00  0.00    +0.000 A 
ATOM     34  H   UNL     1      41.869   4.012  11.982  0.00  0.00    +0.000 HD
ENDBRANCH  21  24
ENDBRANCH  19  20
ENDBRANCH   4  19
TORSDOF 8
ENDMDL
MODEL 8
REMARK VINA RESULT:    -6.855      3.599      9.511
REMARK INTER + INTRA:         -11.618
REMARK INTER:                 -10.003
REMARK INTRA:                  -1.615
REMARK UNBOUND:                -1.557
REMARK  Name = 
REMARK  10 active torsions:
REMARK  status: ('A' for Active; 'I' for Inactive)
REMARK    1  A    between atoms: C_1  and  C_2
REMARK    2  A    between atoms: C_2  and  C_3
REMARK    3  A    between atoms: C_2  and  C_13
REMARK    4  A    between atoms: C_3  and  N_4
REMARK    5  A    between atoms: N_4  and  C_5
REMARK    6  A    between atoms: N_4  and  C_6
REMARK    7  A    between atoms: C_6  and  C_7
REMARK    8  A    between atoms: C_16  and  C_17
REMARK    9  A    between atoms: C_17  and  N_18
REMARK   10  A    between atoms: C_19  and  C_21
REMARK                            x       y       z     vdW  Elec       q    Type
REMARK                         _______ _______ _______ _____ _____    ______ ____
ROOT
ATOM      1  C   UNL     1      49.789   5.756  19.480  0.00  0.00    +0.000 A 
ATOM      2  C   UNL     1      49.238   4.541  19.887  0.00  0.00    +0.000 A 
ATOM      3  C   UNL     1      48.423   3.822  19.014  0.00  0.00    +0.000 A 
ATOM      4  C   UNL     1      48.191   4.311  17.731  0.00  0.00    +0.000 A 
ATOM      5  C   UNL     1      48.763   5.531  17.407  0.00  0.00    +0.000 A 
ATOM      6  N   UNL     1      49.547   6.249  18.239  0.00  0.00    +0.000 NA
ENDROOT
BRANCH   1   8
ATOM      7  C   UNL     1      50.840   5.908  21.779  0.00  0.00    +0.000 C 
ATOM      8  C   UNL     1      50.760   6.530  20.366  0.00  0.00    +0.000 C 
BRANCH   8   9
ATOM      9  C   UNL     1      52.210   6.624  19.810  0.00  0.00    +0.000 C 
BRANCH   9  10
ATOM     10  N   UNL     1      52.524   5.863  18.577  0.00  0.00    +0.000 NA
ATOM     11  C   UNL     1      53.077   6.722  17.527  0.00  0.00    +0.000 C 
BRANCH  10  12
ATOM     12  C   UNL     1      53.462   4.750  18.841  0.00  0.00    +0.000 C 
BRANCH  12  13
ATOM     13  C   UNL     1      52.986   3.410  18.318  0.00  0.00    +0.000 A 
ATOM     14  C   UNL     1      51.732   3.286  17.701  0.00  0.00    +0.000 A 
ATOM     15  C   UNL     1      51.259   2.036  17.304  0.00  0.00    +0.000 A 
ATOM     16  C   UNL     1      52.040   0.899  17.505  0.00  0.00    +0.000 A 
ATOM     17  C   UNL     1      53.302   1.013  18.084  0.00  0.00    +0.000 A 
ATOM     18  C   UNL     1      53.775   2.263  18.485  0.00  0.00    +0.000 A 
ENDBRANCH  12  13
ENDBRANCH  10  12
ENDBRANCH   9  10
ENDBRANCH   8   9
ENDBRANCH   1   8
BRANCH   4  19
ATOM     19  C   UNL     1      47.300   3.606  16.761  0.00  0.00    +0.000 C 
BRANCH  19  20
ATOM     20  N   UNL     1      46.812   4.526  15.769  0.00  0.00    +0.000 N 
ATOM     21  C   UNL     1      46.833   4.218  14.437  0.00  0.00    +0.000 C 
ATOM     22  O   UNL     1      47.218   3.126  14.030  0.00  0.00    +0.000 OA
ATOM     23  H   UNL     1      46.685   5.493  16.058  0.00  0.00    +0.000 HD
BRANCH  21  24
ATOM     24  C   UNL     1      46.316   5.242  13.526  0.00  0.00    +0.000 A 
ATOM     25  C   UNL     1      47.112   6.334  13.206  0.00  0.00    +0.000 A 
ATOM     26  S   UNL     1      46.387   7.408  12.098  0.00  0.00    +0.000 S 
ATOM     27  C   UNL     1      44.965   6.475  12.039  0.00  0.00    +0.000 A 
ATOM     28  N   UNL     1      43.909   6.857  11.273  0.00  0.00    +0.000 NA
ATOM     29  C   UNL     1      42.887   6.072  11.341  0.00  0.00    +0.000 A 
ATOM     30  N   UNL     1      42.827   4.934  12.103  0.00  0.00    +0.000 N 
ATOM     31  C   UNL     1      43.876   4.498  12.877  0.00  0.00    +0.000 A 
ATOM     32  O   UNL     1      43.804   3.457  13.524  0.00  0.00    +0.000 OA
ATOM     33  C   UNL     1      45.048   5.352  12.841  0.00  0.00    +0.000 A 
ATOM     34  H   UNL     1      41.998   4.357  12.110  0.00  0.00    +0.000 HD
ENDBRANCH  21  24
ENDBRANCH  19  20
ENDBRANCH   4  19
TORSDOF 8
ENDMDL
MODEL 9
REMARK VINA RESULT:    -6.853      3.863      9.374
REMARK INTER + INTRA:         -11.615
REMARK INTER:                  -8.971
REMARK INTRA:                  -2.644
REMARK UNBOUND:                -1.557
REMARK  Name = 
REMARK  10 active torsions:
REMARK  status: ('A' for Active; 'I' for Inactive)
REMARK    1  A    between atoms: C_1  and  C_2
REMARK    2  A    between atoms: C_2  and  C_3
REMARK    3  A    between atoms: C_2  and  C_13
REMARK    4  A    between atoms: C_3  and  N_4
REMARK    5  A    between atoms: N_4  and  C_5
REMARK    6  A    between atoms: N_4  and  C_6
REMARK    7  A    between atoms: C_6  and  C_7
REMARK    8  A    between atoms: C_16  and  C_17
REMARK    9  A    between atoms: C_17  and  N_18
REMARK   10  A    between atoms: C_19  and  C_21
REMARK                            x       y       z     vdW  Elec       q    Type
REMARK                         _______ _______ _______ _____ _____    ______ ____
ROOT
ATOM      1  C   UNL     1      50.286   5.140  19.248  0.00  0.00    +0.000 A 
ATOM      2  C   UNL     1      50.650   4.228  18.258  0.00  0.00    +0.000 A 
ATOM      3  C   UNL     1      49.673   3.673  17.434  0.00  0.00    +0.000 A 
ATOM      4  C   UNL     1      48.344   4.057  17.589  0.00  0.00    +0.000 A 
ATOM      5  C   UNL     1      48.060   4.957  18.604  0.00  0.00    +0.000 A 
ATOM      6  N   UNL     1      48.989   5.501  19.419  0.00  0.00    +0.000 NA
ENDROOT
BRANCH   1   8
ATOM      7  C   UNL     1      51.721   4.975  21.328  0.00  0.00    +0.000 C 
ATOM      8  C   UNL     1      51.330   5.844  20.111  0.00  0.00    +0.000 C 
BRANCH   8   9
ATOM      9  C   UNL     1      52.641   6.223  19.361  0.00  0.00    +0.000 C 
BRANCH   9  10
ATOM     10  N   UNL     1      52.952   7.664  19.209  0.00  0.00    +0.000 NA
ATOM     11  C   UNL     1      54.283   7.996  19.723  0.00  0.00    +0.000 C 
BRANCH  10  12
ATOM     12  C   UNL     1      52.850   8.103  17.801  0.00  0.00    +0.000 C 
BRANCH  12  13
ATOM     13  C   UNL     1      51.460   7.962  17.213  0.00  0.00    +0.000 A 
ATOM     14  C   UNL     1      50.368   8.628  17.790  0.00  0.00    +0.000 A 
ATOM     15  C   UNL     1      49.077   8.424  17.303  0.00  0.00    +0.000 A 
ATOM     16  C   UNL     1      48.866   7.565  16.226  0.00  0.00    +0.000 A 
ATOM     17  C   UNL     1      49.946   6.925  15.622  0.00  0.00    +0.000 A 
ATOM     18  C   UNL     1      51.238   7.125  16.110  0.00  0.00    +0.000 A 
ENDBRANCH  12  13
ENDBRANCH  10  12
ENDBRANCH   9  10
ENDBRANCH   8   9
ENDBRANCH   1   8
BRANCH   4  19
ATOM     19  C   UNL     1      47.246   3.473  16.761  0.00  0.00    +0.000 C 
BRANCH  19  20
ATOM     20  N   UNL     1      46.778   4.436  15.799  0.00  0.00    +0.000 N 
ATOM     21  C   UNL     1      46.832   4.187  14.456  0.00  0.00    +0.000 C 
ATOM     22  O   UNL     1      47.231   3.115  14.010  0.00  0.00    +0.000 OA
ATOM     23  H   UNL     1      46.641   5.388  16.128  0.00  0.00    +0.000 HD
BRANCH  21  24
ATOM     24  C   UNL     1      46.334   5.249  13.579  0.00  0.00    +0.000 A 
ATOM     25  C   UNL     1      47.150   6.336  13.293  0.00  0.00    +0.000 A 
ATOM     26  S   UNL     1      46.445   7.459  12.221  0.00  0.00    +0.000 S 
ATOM     27  C   UNL     1      45.006   6.555  12.134  0.00  0.00    +0.000 A 
ATOM     28  N   UNL     1      43.956   6.981  11.382  0.00  0.00    +0.000 NA
ATOM     29  C   UNL     1      42.920   6.213  11.426  0.00  0.00    +0.000 A 
ATOM     30  N   UNL     1      42.839   5.053  12.151  0.00  0.00    +0.000 N 
ATOM     31  C   UNL     1      43.880   4.572  12.909  0.00  0.00    +0.000 A 
ATOM     32  O   UNL     1      43.790   3.512  13.522  0.00  0.00    +0.000 OA
ATOM     33  C   UNL     1      45.068   5.405  12.899  0.00  0.00    +0.000 A 
ATOM     34  H   UNL     1      42.000   4.491  12.141  0.00  0.00    +0.000 HD
ENDBRANCH  21  24
ENDBRANCH  19  20
ENDBRANCH   4  19
TORSDOF 8
ENDMDL
