MODEL 1
REMARK VINA RESULT:    -7.893      0.000      0.000
REMARK INTER + INTRA:         -10.486
REMARK INTER:                  -9.738
REMARK INTRA:                  -0.748
REMARK UNBOUND:                -0.748
REMARK  Name = 
REMARK  4 active torsions:
REMARK  status: ('A' for Active; 'I' for Inactive)
REMARK    1  A    between atoms: C_4  and  C_5
REMARK    2  A    between atoms: C_7  and  O_8
REMARK    3  A    between atoms: O_8  and  C_9
REMARK    4  A    between atoms: C_9  and  C_10
REMARK                            x       y       z     vdW  Elec       q    Type
REMARK                         _______ _______ _______ _____ _____    ______ ____
ROOT
ATOM      1  C   UNL     1      44.912   3.364   9.518  0.00  0.00    +0.000 A 
ATOM      2  C   UNL     1      44.991   4.683   9.961  0.00  0.00    +0.000 A 
ATOM      3  C   UNL     1      44.221   5.081  11.054  0.00  0.00    +0.000 A 
ATOM      4  C   UNL     1      43.438   4.141  11.712  0.00  0.00    +0.000 A 
ATOM      5  C   UNL     1      43.397   2.860  11.202  0.00  0.00    +0.000 A 
ATOM      6  N   UNL     1      44.098   2.461  10.125  0.00  0.00    +0.000 NA
ENDROOT
BRANCH   1  10
ATOM      7  C   UNL     1      47.220   1.805   6.232  0.00  0.00    +0.000 A 
ATOM      8  C   UNL     1      46.773   3.124   6.201  0.00  0.00    +0.000 A 
ATOM      9  C   UNL     1      46.011   3.635   7.259  0.00  0.00    +0.000 A 
ATOM     10  C   UNL     1      45.682   2.840   8.370  0.00  0.00    +0.000 A 
ATOM     11  C   UNL     1      46.147   1.509   8.372  0.00  0.00    +0.000 A 
ATOM     12  C   UNL     1      46.904   0.996   7.316  0.00  0.00    +0.000 A 
ENDBRANCH   1  10
BRANCH   3  13
ATOM     13  O   UNL     1      44.303   6.408  11.394  0.00  0.00    +0.000 OA
BRANCH  13  14
ATOM     14  C   UNL     1      44.848   6.659  12.692  0.00  0.00    +0.000 C 
BRANCH  14  15
ATOM     15  C   UNL     1      46.344   6.769  12.619  0.00  0.00    +0.000 A 
ATOM     16  C   UNL     1      46.959   7.859  11.995  0.00  0.00    +0.000 A 
ATOM     17  C   UNL     1      48.345   7.962  11.993  0.00  0.00    +0.000 A 
ATOM     18  C   UNL     1      49.075   6.964  12.615  0.00  0.00    +0.000 A 
ATOM     19  N   UNL     1      48.519   5.891  13.219  0.00  0.00    +0.000 NA
ATOM     20  C   UNL     1      47.167   5.814  13.202  0.00  0.00    +0.000 A 
ENDBRANCH  14  15
ENDBRANCH  13  14
ENDBRANCH   3  13
TORSDOF 4
ENDMDL
MODEL 2
REMARK VINA RESULT:    -7.854      1.922      6.214
REMARK INTER + INTRA:         -10.439
REMARK INTER:                  -9.765
REMARK INTRA:                  -0.673
REMARK UNBOUND:                -0.748
REMARK  Name = 
REMARK  4 active torsions:
REMARK  status: ('A' for Active; 'I' for Inactive)
REMARK    1  A    between atoms: C_4  and  C_5
REMARK    2  A    between atoms: C_7  and  O_8
REMARK    3  A    between atoms: O_8  and  C_9
REMARK    4  A    between atoms: C_9  and  C_10
REMARK                            x       y       z     vdW  Elec       q    Type
REMARK                         _______ _______ _______ _____ _____    ______ ____
ROOT
ATOM      1  C   UNL     1      44.984   5.284  11.873  0.00  0.00    +0.000 A 
ATOM      2  C   UNL     1      44.900   4.661  10.629  0.00  0.00    +0.000 A 
ATOM      3  C   UNL     1      44.132   3.504  10.498  0.00  0.00    +0.000 A 
ATOM      4  C   UNL     1      43.421   3.032  11.595  0.00  0.00    +0.000 A 
ATOM      5  C   UNL     1      43.570   3.692  12.797  0.00  0.00    +0.000 A 
ATOM      6  N   UNL     1      44.337   4.786  12.959  0.00  0.00    +0.000 NA
ENDROOT
BRANCH   1  10
ATOM      7  C   UNL     1      47.214   8.908  12.548  0.00  0.00    +0.000 A 
ATOM      8  C   UNL     1      47.864   7.771  12.074  0.00  0.00    +0.000 A 
ATOM      9  C   UNL     1      47.150   6.586  11.863  0.00  0.00    +0.000 A 
ATOM     10  C   UNL     1      45.770   6.512  12.121  0.00  0.00    +0.000 A 
ATOM     11  C   UNL     1      45.140   7.676  12.604  0.00  0.00    +0.000 A 
ATOM     12  C   UNL     1      45.851   8.859  12.817  0.00  0.00    +0.000 A 
ENDBRANCH   1  10
BRANCH   3  13
ATOM     13  O   UNL     1      44.147   2.911   9.261  0.00  0.00    +0.000 OA
BRANCH  13  14
ATOM     14  C   UNL     1      45.051   1.811   9.136  0.00  0.00    +0.000 C 
BRANCH  14  15
ATOM     15  C   UNL     1      45.981   2.026   7.977  0.00  0.00    +0.000 A 
ATOM     16  C   UNL     1      45.962   3.218   7.247  0.00  0.00    +0.000 A 
ATOM     17  C   UNL     1      46.874   3.410   6.215  0.00  0.00    +0.000 A 
ATOM     18  C   UNL     1      47.777   2.397   5.944  0.00  0.00    +0.000 A 
ATOM     19  N   UNL     1      47.819   1.227   6.619  0.00  0.00    +0.000 NA
ATOM     20  C   UNL     1      46.917   1.066   7.615  0.00  0.00    +0.000 A 
ENDBRANCH  14  15
ENDBRANCH  13  14
ENDBRANCH   3  13
TORSDOF 4
ENDMDL
MODEL 3
REMARK VINA RESULT:    -7.531      1.641      6.157
REMARK INTER + INTRA:         -10.041
REMARK INTER:                  -9.441
REMARK INTRA:                  -0.599
REMARK UNBOUND:                -0.748
REMARK  Name = 
REMARK  4 active torsions:
REMARK  status: ('A' for Active; 'I' for Inactive)
REMARK    1  A    between atoms: C_4  and  C_5
REMARK    2  A    between atoms: C_7  and  O_8
REMARK    3  A    between atoms: O_8  and  C_9
REMARK    4  A    between atoms: C_9  and  C_10
REMARK                            x       y       z     vdW  Elec       q    Type
REMARK                         _______ _______ _______ _____ _____    ______ ____
ROOT
ATOM      1  C   UNL     1      45.308   5.785  12.276  0.00  0.00    +0.000 A 
ATOM      2  C   UNL     1      45.168   5.174  11.031  0.00  0.00    +0.000 A 
ATOM      3  C   UNL     1      43.997   4.472  10.746  0.00  0.00    +0.000 A 
ATOM      4  C   UNL     1      42.973   4.446  11.685  0.00  0.00    +0.000 A 
ATOM      5  C   UNL     1      43.194   5.058  12.902  0.00  0.00    +0.000 A 
ATOM      6  N   UNL     1      44.331   5.707  13.217  0.00  0.00    +0.000 NA
ENDROOT
BRANCH   1  10
ATOM      7  C   UNL     1      48.775   8.005  13.544  0.00  0.00    +0.000 A 
ATOM      8  C   UNL     1      47.931   8.533  12.571  0.00  0.00    +0.000 A 
ATOM      9  C   UNL     1      46.809   7.813  12.143  0.00  0.00    +0.000 A 
ATOM     10  C   UNL     1      46.506   6.550  12.681  0.00  0.00    +0.000 A 
ATOM     11  C   UNL     1      47.380   6.040  13.662  0.00  0.00    +0.000 A 
ATOM     12  C   UNL     1      48.502   6.755  14.088  0.00  0.00    +0.000 A 
ENDBRANCH   1  10
BRANCH   3  13
ATOM     13  O   UNL     1      43.955   3.845   9.526  0.00  0.00    +0.000 OA
BRANCH  13  14
ATOM     14  C   UNL     1      44.916   4.317   8.579  0.00  0.00    +0.000 C 
BRANCH  14  15
ATOM     15  C   UNL     1      45.695   3.168   8.006  0.00  0.00    +0.000 A 
ATOM     16  C   UNL     1      46.506   3.335   6.878  0.00  0.00    +0.000 A 
ATOM     17  C   UNL     1      47.258   2.267   6.405  0.00  0.00    +0.000 A 
ATOM     18  C   UNL     1      47.172   1.059   7.075  0.00  0.00    +0.000 A 
ATOM     19  N   UNL     1      46.392   0.855   8.159  0.00  0.00    +0.000 NA
ATOM     20  C   UNL     1      45.668   1.911   8.596  0.00  0.00    +0.000 A 
ENDBRANCH  14  15
ENDBRANCH  13  14
ENDBRANCH   3  13
TORSDOF 4
ENDMDL
MODEL 4
REMARK VINA RESULT:    -6.967      1.853      2.250
REMARK INTER + INTRA:          -9.344
REMARK INTER:                  -8.752
REMARK INTRA:                  -0.592
REMARK UNBOUND:                -0.748
REMARK  Name = 
REMARK  4 active torsions:
REMARK  status: ('A' for Active; 'I' for Inactive)
REMARK    1  A    between atoms: C_4  and  C_5
REMARK    2  A    between atoms: C_7  and  O_8
REMARK    3  A    between atoms: O_8  and  C_9
REMARK    4  A    between atoms: C_9  and  C_10
REMARK                            x       y       z     vdW  Elec       q    Type
REMARK                         _______ _______ _______ _____ _____    ______ ____
ROOT
ATOM      1  C   UNL     1      44.789   3.430   9.939  0.00  0.00    +0.000 A 
ATOM      2  C   UNL     1      44.944   4.674  10.548  0.00  0.00    +0.000 A 
ATOM      3  C   UNL     1      44.194   4.973  11.685  0.00  0.00    +0.000 A 
ATOM      4  C   UNL     1      43.354   4.004  12.220  0.00  0.00    +0.000 A 
ATOM      5  C   UNL     1      43.239   2.804  11.550  0.00  0.00    +0.000 A 
ATOM      6  N   UNL     1      43.920   2.506  10.427  0.00  0.00    +0.000 NA
ENDROOT
BRANCH   1  10
ATOM      7  C   UNL     1      47.014   2.175   6.470  0.00  0.00    +0.000 A 
ATOM      8  C   UNL     1      46.626   3.505   6.601  0.00  0.00    +0.000 A 
ATOM      9  C   UNL     1      45.892   3.920   7.719  0.00  0.00    +0.000 A 
ATOM     10  C   UNL     1      45.531   3.013   8.730  0.00  0.00    +0.000 A 
ATOM     11  C   UNL     1      45.936   1.673   8.569  0.00  0.00    +0.000 A 
ATOM     12  C   UNL     1      46.666   1.256   7.454  0.00  0.00    +0.000 A 
ENDBRANCH   1  10
BRANCH   3  13
ATOM     13  O   UNL     1      44.354   6.238  12.193  0.00  0.00    +0.000 OA
BRANCH  13  14
ATOM     14  C   UNL     1      45.699   6.720  12.183  0.00  0.00    +0.000 C 
BRANCH  14  15
ATOM     15  C   UNL     1      45.720   8.210  11.996  0.00  0.00    +0.000 A 
ATOM     16  C   UNL     1      46.861   8.961  12.296  0.00  0.00    +0.000 A 
ATOM     17  C   UNL     1      46.869  10.331  12.058  0.00  0.00    +0.000 A 
ATOM     18  C   UNL     1      45.728  10.909  11.530  0.00  0.00    +0.000 A 
ATOM     19  N   UNL     1      44.603  10.220  11.238  0.00  0.00    +0.000 NA
ATOM     20  C   UNL     1      44.622   8.889  11.483  0.00  0.00    +0.000 A 
ENDBRANCH  14  15
ENDBRANCH  13  14
ENDBRANCH   3  13
TORSDOF 4
ENDMDL
MODEL 5
REMARK VINA RESULT:    -6.900      1.722      6.404
REMARK INTER + INTRA:          -9.262
REMARK INTER:                  -8.552
REMARK INTRA:                  -0.710
REMARK UNBOUND:                -0.748
REMARK  Name = 
REMARK  4 active torsions:
REMARK  status: ('A' for Active; 'I' for Inactive)
REMARK    1  A    between atoms: C_4  and  C_5
REMARK    2  A    between atoms: C_7  and  O_8
REMARK    3  A    between atoms: O_8  and  C_9
REMARK    4  A    between atoms: C_9  and  C_10
REMARK                            x       y       z     vdW  Elec       q    Type
REMARK                         _______ _______ _______ _____ _____    ______ ____
ROOT
ATOM      1  C   UNL     1      46.163   6.641  12.371  0.00  0.00    +0.000 A 
ATOM      2  C   UNL     1      45.228   5.886  11.665  0.00  0.00    +0.000 A 
ATOM      3  C   UNL     1      45.105   4.525  11.941  0.00  0.00    +0.000 A 
ATOM      4  C   UNL     1      45.874   3.964  12.953  0.00  0.00    +0.000 A 
ATOM      5  C   UNL     1      46.791   4.771  13.594  0.00  0.00    +0.000 A 
ATOM      6  N   UNL     1      46.959   6.078  13.318  0.00  0.00    +0.000 NA
ENDROOT
BRANCH   1  10
ATOM      7  C   UNL     1      46.837  10.860  11.818  0.00  0.00    +0.000 A 
ATOM      8  C   UNL     1      45.537  10.360  11.819  0.00  0.00    +0.000 A 
ATOM      9  C   UNL     1      45.310   8.988  11.985  0.00  0.00    +0.000 A 
ATOM     10  C   UNL     1      46.376   8.088  12.156  0.00  0.00    +0.000 A 
ATOM     11  C   UNL     1      47.680   8.623  12.148  0.00  0.00    +0.000 A 
ATOM     12  C   UNL     1      47.910   9.991  11.980  0.00  0.00    +0.000 A 
ENDBRANCH   1  10
BRANCH   3  13
ATOM     13  O   UNL     1      44.209   3.834  11.165  0.00  0.00    +0.000 OA
BRANCH  13  14
ATOM     14  C   UNL     1      44.139   4.268   9.804  0.00  0.00    +0.000 C 
BRANCH  14  15
ATOM     15  C   UNL     1      45.050   3.441   8.943  0.00  0.00    +0.000 A 
ATOM     16  C   UNL     1      45.848   4.032   7.959  0.00  0.00    +0.000 A 
ATOM     17  C   UNL     1      46.723   3.247   7.216  0.00  0.00    +0.000 A 
ATOM     18  C   UNL     1      46.769   1.890   7.481  0.00  0.00    +0.000 A 
ATOM     19  N   UNL     1      46.007   1.280   8.415  0.00  0.00    +0.000 NA
ATOM     20  C   UNL     1      45.161   2.068   9.120  0.00  0.00    +0.000 A 
ENDBRANCH  14  15
ENDBRANCH  13  14
ENDBRANCH   3  13
TORSDOF 4
ENDMDL
MODEL 6
REMARK VINA RESULT:    -6.849      2.344      6.809
REMARK INTER + INTRA:          -9.199
REMARK INTER:                  -8.563
REMARK INTRA:                  -0.636
REMARK UNBOUND:                -0.748
REMARK  Name = 
REMARK  4 active torsions:
REMARK  status: ('A' for Active; 'I' for Inactive)
REMARK    1  A    between atoms: C_4  and  C_5
REMARK    2  A    between atoms: C_7  and  O_8
REMARK    3  A    between atoms: O_8  and  C_9
REMARK    4  A    between atoms: C_9  and  C_10
REMARK                            x       y       z     vdW  Elec       q    Type
REMARK                         _______ _______ _______ _____ _____    ______ ____
ROOT
ATOM      1  C   UNL     1      46.803   5.187  13.639  0.00  0.00    +0.000 A 
ATOM      2  C   UNL     1      45.869   4.398  12.969  0.00  0.00    +0.000 A 
ATOM      3  C   UNL     1      45.353   4.841  11.752  0.00  0.00    +0.000 A 
ATOM      4  C   UNL     1      45.823   6.029  11.206  0.00  0.00    +0.000 A 
ATOM      5  C   UNL     1      46.732   6.764  11.937  0.00  0.00    +0.000 A 
ATOM      6  N   UNL     1      47.216   6.379  13.133  0.00  0.00    +0.000 NA
ENDROOT
BRANCH   1  10
ATOM      7  C   UNL     1      48.654   4.132  17.383  0.00  0.00    +0.000 A 
ATOM      8  C   UNL     1      47.939   3.174  16.669  0.00  0.00    +0.000 A 
ATOM      9  C   UNL     1      47.323   3.511  15.457  0.00  0.00    +0.000 A 
ATOM     10  C   UNL     1      47.411   4.813  14.933  0.00  0.00    +0.000 A 
ATOM     11  C   UNL     1      48.139   5.761  15.679  0.00  0.00    +0.000 A 
ATOM     12  C   UNL     1      48.752   5.428  16.890  0.00  0.00    +0.000 A 
ENDBRANCH   1  10
BRANCH   3  13
ATOM     13  O   UNL     1      44.393   4.043  11.181  0.00  0.00    +0.000 OA
BRANCH  13  14
ATOM     14  C   UNL     1      44.149   4.300   9.796  0.00  0.00    +0.000 C 
BRANCH  14  15
ATOM     15  C   UNL     1      45.050   3.456   8.941  0.00  0.00    +0.000 A 
ATOM     16  C   UNL     1      45.858   4.031   7.955  0.00  0.00    +0.000 A 
ATOM     17  C   UNL     1      46.723   3.230   7.218  0.00  0.00    +0.000 A 
ATOM     18  C   UNL     1      46.750   1.874   7.489  0.00  0.00    +0.000 A 
ATOM     19  N   UNL     1      45.977   1.280   8.425  0.00  0.00    +0.000 NA
ATOM     20  C   UNL     1      45.142   2.082   9.125  0.00  0.00    +0.000 A 
ENDBRANCH  14  15
ENDBRANCH  13  14
ENDBRANCH   3  13
TORSDOF 4
ENDMDL
MODEL 7
REMARK VINA RESULT:    -6.254      2.719      6.834
REMARK INTER + INTRA:          -8.464
REMARK INTER:                  -7.774
REMARK INTRA:                  -0.690
REMARK UNBOUND:                -0.748
REMARK  Name = 
REMARK  4 active torsions:
REMARK  status: ('A' for Active; 'I' for Inactive)
REMARK    1  A    between atoms: C_4  and  C_5
REMARK    2  A    between atoms: C_7  and  O_8
REMARK    3  A    between atoms: O_8  and  C_9
REMARK    4  A    between atoms: C_9  and  C_10
REMARK                            x       y       z     vdW  Elec       q    Type
REMARK                         _______ _______ _______ _____ _____    ______ ____
ROOT
ATOM      1  C   UNL     1      45.207   8.008  11.730  0.00  0.00    +0.000 A 
ATOM      2  C   UNL     1      44.526   6.798  11.605  0.00  0.00    +0.000 A 
ATOM      3  C   UNL     1      45.173   5.615  11.961  0.00  0.00    +0.000 A 
ATOM      4  C   UNL     1      46.457   5.673  12.488  0.00  0.00    +0.000 A 
ATOM      5  C   UNL     1      47.072   6.905  12.563  0.00  0.00    +0.000 A 
ATOM      6  N   UNL     1      46.486   8.057  12.187  0.00  0.00    +0.000 NA
ENDROOT
BRANCH   1  10
ATOM      7  C   UNL     1      43.499  11.851  10.794  0.00  0.00    +0.000 A 
ATOM      8  C   UNL     1      42.841  10.687  10.407  0.00  0.00    +0.000 A 
ATOM      9  C   UNL     1      43.394   9.433  10.696  0.00  0.00    +0.000 A 
ATOM     10  C   UNL     1      44.618   9.318  11.379  0.00  0.00    +0.000 A 
ATOM     11  C   UNL     1      45.262  10.513  11.755  0.00  0.00    +0.000 A 
ATOM     12  C   UNL     1      44.713  11.765  11.466  0.00  0.00    +0.000 A 
ENDBRANCH   1  10
BRANCH   3  13
ATOM     13  O   UNL     1      44.464   4.458  11.753  0.00  0.00    +0.000 OA
BRANCH  13  14
ATOM     14  C   UNL     1      43.837   4.365  10.471  0.00  0.00    +0.000 C 
BRANCH  14  15
ATOM     15  C   UNL     1      44.776   3.753   9.472  0.00  0.00    +0.000 A 
ATOM     16  C   UNL     1      44.975   2.370   9.419  0.00  0.00    +0.000 A 
ATOM     17  C   UNL     1      45.807   1.829   8.445  0.00  0.00    +0.000 A 
ATOM     18  C   UNL     1      46.420   2.694   7.556  0.00  0.00    +0.000 A 
ATOM     19  N   UNL     1      46.263   4.035   7.583  0.00  0.00    +0.000 NA
ATOM     20  C   UNL     1      45.450   4.535   8.543  0.00  0.00    +0.000 A 
ENDBRANCH  14  15
ENDBRANCH  13  14
ENDBRANCH   3  13
TORSDOF 4
ENDMDL
MODEL 8
REMARK VINA RESULT:    -5.879      1.745      6.600
REMARK INTER + INTRA:          -8.002
REMARK INTER:                  -7.347
REMARK INTRA:                  -0.655
REMARK UNBOUND:                -0.748
REMARK  Name = 
REMARK  4 active torsions:
REMARK  status: ('A' for Active; 'I' for Inactive)
REMARK    1  A    between atoms: C_4  and  C_5
REMARK    2  A    between atoms: C_7  and  O_8
REMARK    3  A    between atoms: O_8  and  C_9
REMARK    4  A    between atoms: C_9  and  C_10
REMARK                            x       y       z     vdW  Elec       q    Type
REMARK                         _______ _______ _______ _____ _____    ______ ____
ROOT
ATOM      1  C   UNL     1      47.276   7.421  12.431  0.00  0.00    +0.000 A 
ATOM      2  C   UNL     1      46.829   6.141  12.106  0.00  0.00    +0.000 A 
ATOM      3  C   UNL     1      45.486   5.952  11.781  0.00  0.00    +0.000 A 
ATOM      4  C   UNL     1      44.637   7.050  11.731  0.00  0.00    +0.000 A 
ATOM      5  C   UNL     1      45.148   8.282  12.084  0.00  0.00    +0.000 A 
ATOM      6  N   UNL     1      46.430   8.485  12.441  0.00  0.00    +0.000 NA
ENDROOT
BRANCH   1  10
ATOM      7  C   UNL     1      51.324   8.399  13.530  0.00  0.00    +0.000 A 
ATOM      8  C   UNL     1      51.001   8.186  12.193  0.00  0.00    +0.000 A 
ATOM      9  C   UNL     1      49.691   7.856  11.827  0.00  0.00    +0.000 A 
ATOM     10  C   UNL     1      48.675   7.732  12.792  0.00  0.00    +0.000 A 
ATOM     11  C   UNL     1      49.033   7.951  14.137  0.00  0.00    +0.000 A 
ATOM     12  C   UNL     1      50.340   8.278  14.504  0.00  0.00    +0.000 A 
ENDBRANCH   1  10
BRANCH   3  13
ATOM     13  O   UNL     1      45.106   4.657  11.533  0.00  0.00    +0.000 OA
BRANCH  13  14
ATOM     14  C   UNL     1      44.313   4.482  10.357  0.00  0.00    +0.000 C 
BRANCH  14  15
ATOM     15  C   UNL     1      45.079   3.715   9.318  0.00  0.00    +0.000 A 
ATOM     16  C   UNL     1      45.805   4.374   8.321  0.00  0.00    +0.000 A 
ATOM     17  C   UNL     1      46.550   3.637   7.408  0.00  0.00    +0.000 A 
ATOM     18  C   UNL     1      46.542   2.258   7.519  0.00  0.00    +0.000 A 
ATOM     19  N   UNL     1      45.845   1.584   8.460  0.00  0.00    +0.000 NA
ATOM     20  C   UNL     1      45.125   2.326   9.333  0.00  0.00    +0.000 A 
ENDBRANCH  14  15
ENDBRANCH  13  14
ENDBRANCH   3  13
TORSDOF 4
ENDMDL
MODEL 9
REMARK VINA RESULT:    -5.845      3.586      6.286
REMARK INTER + INTRA:          -7.960
REMARK INTER:                  -7.350
REMARK INTRA:                  -0.610
REMARK UNBOUND:                -0.748
REMARK  Name = 
REMARK  4 active torsions:
REMARK  status: ('A' for Active; 'I' for Inactive)
REMARK    1  A    between atoms: C_4  and  C_5
REMARK    2  A    between atoms: C_7  and  O_8
REMARK    3  A    between atoms: O_8  and  C_9
REMARK    4  A    between atoms: C_9  and  C_10
REMARK                            x       y       z     vdW  Elec       q    Type
REMARK                         _______ _______ _______ _____ _____    ______ ____
ROOT
ATOM      1  C   UNL     1      46.720   6.057  12.487  0.00  0.00    +0.000 A 
ATOM      2  C   UNL     1      47.277   5.224  13.455  0.00  0.00    +0.000 A 
ATOM      3  C   UNL     1      46.755   3.942  13.630  0.00  0.00    +0.000 A 
ATOM      4  C   UNL     1      45.734   3.504  12.797  0.00  0.00    +0.000 A 
ATOM      5  C   UNL     1      45.222   4.393  11.875  0.00  0.00    +0.000 A 
ATOM      6  N   UNL     1      45.679   5.649  11.714  0.00  0.00    +0.000 NA
ENDROOT
BRANCH   1  10
ATOM      7  C   UNL     1      48.171  10.049  11.767  0.00  0.00    +0.000 A 
ATOM      8  C   UNL     1      46.847   9.851  12.149  0.00  0.00    +0.000 A 
ATOM      9  C   UNL     1      46.363   8.556  12.374  0.00  0.00    +0.000 A 
ATOM     10  C   UNL     1      47.194   7.432  12.221  0.00  0.00    +0.000 A 
ATOM     11  C   UNL     1      48.528   7.664  11.830  0.00  0.00    +0.000 A 
ATOM     12  C   UNL     1      49.012   8.954  11.603  0.00  0.00    +0.000 A 
ENDBRANCH   1  10
BRANCH   3  13
ATOM     13  O   UNL     1      47.312   3.201  14.643  0.00  0.00    +0.000 OA
BRANCH  13  14
ATOM     14  C   UNL     1      47.262   3.819  15.931  0.00  0.00    +0.000 C 
BRANCH  14  15
ATOM     15  C   UNL     1      48.571   3.644  16.646  0.00  0.00    +0.000 A 
ATOM     16  C   UNL     1      49.163   2.384  16.773  0.00  0.00    +0.000 A 
ATOM     17  C   UNL     1      50.402   2.262  17.391  0.00  0.00    +0.000 A 
ATOM     18  C   UNL     1      51.010   3.410  17.868  0.00  0.00    +0.000 A 
ATOM     19  N   UNL     1      50.466   4.643  17.775  0.00  0.00    +0.000 NA
ATOM     20  C   UNL     1      49.257   4.731  17.172  0.00  0.00    +0.000 A 
ENDBRANCH  14  15
ENDBRANCH  13  14
ENDBRANCH   3  13
TORSDOF 4
ENDMDL
