MODEL 1
REMARK VINA RESULT:    -8.764      0.000      0.000
REMARK INTER + INTRA:         -12.911
REMARK INTER:                 -11.838
REMARK INTRA:                  -1.073
REMARK UNBOUND:                -1.073
REMARK  Name = 
REMARK  8 active torsions:
REMARK  status: ('A' for Active; 'I' for Inactive)
REMARK    1  A    between atoms: C_1  and  C_2
REMARK    2  A    between atoms: C_4  and  C_5
REMARK    3  A    between atoms: C_5  and  C_6
REMARK    4  A    between atoms: C_5  and  C_7
REMARK    5  A    between atoms: C_7  and  O_8
REMARK    6  A    between atoms: O_8  and  C_9
REMARK    7  A    between atoms: C_12  and  C_13
REMARK    8  A    between atoms: C_19  and  C_20
REMARK                            x       y       z     vdW  Elec       q    Type
REMARK                         _______ _______ _______ _____ _____    ______ ____
ROOT
ATOM      1  C   UNL     1      43.951   4.732  12.375  0.00  0.00    +0.000 C 
ATOM      2  C   UNL     1      43.298   5.834  11.535  0.00  0.00    +0.000 C 
ENDROOT
BRANCH   1   6
ATOM      3  C   UNL     1      48.289   7.289  11.763  0.00  0.00    +0.000 C 
ATOM      4  C   UNL     1      47.411   6.350  12.536  0.00  0.00    +0.000 A 
ATOM      5  C   UNL     1      46.149   5.999  12.065  0.00  0.00    +0.000 A 
ATOM      6  C   UNL     1      45.349   5.137  12.820  0.00  0.00    +0.000 A 
ATOM      7  C   UNL     1      45.870   4.648  14.023  0.00  0.00    +0.000 A 
ATOM      8  C   UNL     1      47.148   5.030  14.439  0.00  0.00    +0.000 A 
ATOM      9  N   UNL     1      47.908   5.880  13.705  0.00  0.00    +0.000 NA
BRANCH   8  10
ATOM     10  C   UNL     1      47.748   4.558  15.706  0.00  0.00    +0.000 A 
ATOM     11  C   UNL     1      47.718   3.200  16.080  0.00  0.00    +0.000 A 
ATOM     12  C   UNL     1      48.262   2.762  17.292  0.00  0.00    +0.000 A 
ATOM     13  C   UNL     1      48.858   3.677  18.155  0.00  0.00    +0.000 A 
ATOM     14  C   UNL     1      48.915   5.021  17.798  0.00  0.00    +0.000 A 
ATOM     15 CL   UNL     1      49.654   6.151  18.865  0.00  0.00    +0.000 Cl
ATOM     16  C   UNL     1      48.372   5.459  16.588  0.00  0.00    +0.000 A 
ENDBRANCH   8  10
ENDBRANCH   1   6
BRANCH   1  17
ATOM     17  C   UNL     1      43.982   3.382  11.637  0.00  0.00    +0.000 C 
BRANCH  17  18
ATOM     18  O   UNL     1      43.582   3.542  10.269  0.00  0.00    +0.000 OA
BRANCH  18  19
ATOM     19  C   UNL     1      44.564   3.341   9.337  0.00  0.00    +0.000 A 
ATOM     20  C   UNL     1      45.188   4.335   8.585  0.00  0.00    +0.000 A 
ATOM     21  C   UNL     1      46.191   3.993   7.682  0.00  0.00    +0.000 A 
ATOM     22  C   UNL     1      46.541   2.658   7.553  0.00  0.00    +0.000 A 
ATOM     23  N   UNL     1      45.951   1.650   8.257  0.00  0.00    +0.000 NA
ATOM     24  C   UNL     1      44.977   2.026   9.126  0.00  0.00    +0.000 A 
BRANCH  22  25
ATOM     25  C   UNL     1      47.637   2.282   6.603  0.00  0.00    +0.000 C 
ATOM     26  N   UNL     1      47.685   3.002   5.441  0.00  0.00    +0.000 N 
ATOM     27  O   UNL     1      48.434   1.387   6.840  0.00  0.00    +0.000 OA
ATOM     28  H   UNL     1      46.995   3.725   5.272  0.00  0.00    +0.000 HD
ATOM     29  H   UNL     1      48.384   2.783   4.751  0.00  0.00    +0.000 HD
ENDBRANCH  22  25
ENDBRANCH  18  19
ENDBRANCH  17  18
ENDBRANCH   1  17
TORSDOF 6
ENDMDL
MODEL 2
REMARK VINA RESULT:    -8.510      2.166      4.113
REMARK INTER + INTRA:         -12.568
REMARK INTER:                 -11.536
REMARK INTRA:                  -1.031
REMARK UNBOUND:                -1.073
REMARK  Name = 
REMARK  8 active torsions:
REMARK  status: ('A' for Active; 'I' for Inactive)
REMARK    1  A    between atoms: C_1  and  C_2
REMARK    2  A    between atoms: C_4  and  C_5
REMARK    3  A    between atoms: C_5  and  C_6
REMARK    4  A    between atoms: C_5  and  C_7
REMARK    5  A    between atoms: C_7  and  O_8
REMARK    6  A    between atoms: O_8  and  C_9
REMARK    7  A    between atoms: C_12  and  C_13
REMARK    8  A    between atoms: C_19  and  C_20
REMARK                            x       y       z     vdW  Elec       q    Type
REMARK                         _______ _______ _______ _____ _____    ______ ____
ROOT
ATOM      1  C   UNL     1      43.823   5.156  12.287  0.00  0.00    +0.000 C 
ATOM      2  C   UNL     1      43.466   6.298  11.331  0.00  0.00    +0.000 C 
ENDROOT
BRANCH   1   6
ATOM      3  C   UNL     1      47.526   3.944  15.536  0.00  0.00    +0.000 C 
ATOM      4  C   UNL     1      46.977   4.774  14.413  0.00  0.00    +0.000 A 
ATOM      5  C   UNL     1      45.687   4.567  13.935  0.00  0.00    +0.000 A 
ATOM      6  C   UNL     1      45.214   5.346  12.874  0.00  0.00    +0.000 A 
ATOM      7  C   UNL     1      46.069   6.321  12.348  0.00  0.00    +0.000 A 
ATOM      8  C   UNL     1      47.351   6.487  12.877  0.00  0.00    +0.000 A 
ATOM      9  N   UNL     1      47.803   5.715  13.895  0.00  0.00    +0.000 NA
BRANCH   8  10
ATOM     10  C   UNL     1      48.304   7.490  12.356  0.00  0.00    +0.000 A 
ATOM     11  C   UNL     1      49.679   7.208  12.221  0.00  0.00    +0.000 A 
ATOM     12  C   UNL     1      50.581   8.169  11.754  0.00  0.00    +0.000 A 
ATOM     13  C   UNL     1      50.124   9.436  11.403  0.00  0.00    +0.000 A 
ATOM     14  C   UNL     1      48.769   9.731  11.511  0.00  0.00    +0.000 A 
ATOM     15 CL   UNL     1      48.205  11.298  11.074  0.00  0.00    +0.000 Cl
ATOM     16  C   UNL     1      47.867   8.773  11.977  0.00  0.00    +0.000 A 
ENDBRANCH   8  10
ENDBRANCH   1   6
BRANCH   1  17
ATOM     17  C   UNL     1      43.696   3.777  11.616  0.00  0.00    +0.000 C 
BRANCH  17  18
ATOM     18  O   UNL     1      43.441   3.917  10.211  0.00  0.00    +0.000 OA
BRANCH  18  19
ATOM     19  C   UNL     1      44.411   3.425   9.381  0.00  0.00    +0.000 A 
ATOM     20  C   UNL     1      44.836   2.099   9.322  0.00  0.00    +0.000 A 
ATOM     21  C   UNL     1      45.822   1.727   8.412  0.00  0.00    +0.000 A 
ATOM     22  C   UNL     1      46.361   2.699   7.583  0.00  0.00    +0.000 A 
ATOM     23  N   UNL     1      45.986   4.010   7.612  0.00  0.00    +0.000 NA
ATOM     24  C   UNL     1      45.023   4.330   8.514  0.00  0.00    +0.000 A 
BRANCH  22  25
ATOM     25  C   UNL     1      47.403   2.305   6.583  0.00  0.00    +0.000 C 
ATOM     26  N   UNL     1      47.439   3.056   5.439  0.00  0.00    +0.000 N 
ATOM     27  O   UNL     1      48.171   1.372   6.764  0.00  0.00    +0.000 OA
ATOM     28  H   UNL     1      46.774   3.810   5.315  0.00  0.00    +0.000 HD
ATOM     29  H   UNL     1      48.102   2.827   4.717  0.00  0.00    +0.000 HD
ENDBRANCH  22  25
ENDBRANCH  18  19
ENDBRANCH  17  18
ENDBRANCH   1  17
TORSDOF 6
ENDMDL
MODEL 3
REMARK VINA RESULT:    -8.337      3.584      5.488
REMARK INTER + INTRA:         -12.335
REMARK INTER:                 -11.263
REMARK INTRA:                  -1.071
REMARK UNBOUND:                -1.073
REMARK  Name = 
REMARK  8 active torsions:
REMARK  status: ('A' for Active; 'I' for Inactive)
REMARK    1  A    between atoms: C_1  and  C_2
REMARK    2  A    between atoms: C_4  and  C_5
REMARK    3  A    between atoms: C_5  and  C_6
REMARK    4  A    between atoms: C_5  and  C_7
REMARK    5  A    between atoms: C_7  and  O_8
REMARK    6  A    between atoms: O_8  and  C_9
REMARK    7  A    between atoms: C_12  and  C_13
REMARK    8  A    between atoms: C_19  and  C_20
REMARK                            x       y       z     vdW  Elec       q    Type
REMARK                         _______ _______ _______ _____ _____    ______ ____
ROOT
ATOM      1  C   UNL     1      44.330   4.456  12.042  0.00  0.00    +0.000 C 
ATOM      2  C   UNL     1      43.464   4.323  13.300  0.00  0.00    +0.000 C 
ENDROOT
BRANCH   1   6
ATOM      3  C   UNL     1      48.745   6.829  12.814  0.00  0.00    +0.000 C 
ATOM      4  C   UNL     1      47.287   6.841  12.464  0.00  0.00    +0.000 A 
ATOM      5  C   UNL     1      46.545   5.664  12.450  0.00  0.00    +0.000 A 
ATOM      6  C   UNL     1      45.192   5.709  12.100  0.00  0.00    +0.000 A 
ATOM      7  C   UNL     1      44.638   6.955  11.791  0.00  0.00    +0.000 A 
ATOM      8  C   UNL     1      45.432   8.104  11.830  0.00  0.00    +0.000 A 
ATOM      9  N   UNL     1      46.747   8.045  12.157  0.00  0.00    +0.000 NA
BRANCH   8  10
ATOM     10  C   UNL     1      44.909   9.447  11.502  0.00  0.00    +0.000 A 
ATOM     11  C   UNL     1      45.631  10.619  11.803  0.00  0.00    +0.000 A 
ATOM     12  C   UNL     1      45.120  11.888  11.516  0.00  0.00    +0.000 A 
ATOM     13  C   UNL     1      43.872  12.013  10.912  0.00  0.00    +0.000 A 
ATOM     14  C   UNL     1      43.148  10.869  10.591  0.00  0.00    +0.000 A 
ATOM     15 CL   UNL     1      41.605  11.023   9.843  0.00  0.00    +0.000 Cl
ATOM     16  C   UNL     1      43.658   9.601  10.877  0.00  0.00    +0.000 A 
ENDBRANCH   8  10
ENDBRANCH   1   6
BRANCH   1  17
ATOM     17  C   UNL     1      43.488   4.430  10.755  0.00  0.00    +0.000 C 
BRANCH  17  18
ATOM     18  O   UNL     1      43.595   3.157  10.103  0.00  0.00    +0.000 OA
BRANCH  18  19
ATOM     19  C   UNL     1      44.590   3.050   9.169  0.00  0.00    +0.000 A 
ATOM     20  C   UNL     1      45.097   4.095   8.398  0.00  0.00    +0.000 A 
ATOM     21  C   UNL     1      46.129   3.852   7.495  0.00  0.00    +0.000 A 
ATOM     22  C   UNL     1      46.625   2.562   7.386  0.00  0.00    +0.000 A 
ATOM     23  N   UNL     1      46.153   1.507   8.110  0.00  0.00    +0.000 NA
ATOM     24  C   UNL     1      45.147   1.786   8.978  0.00  0.00    +0.000 A 
BRANCH  22  25
ATOM     25  C   UNL     1      47.752   2.295   6.436  0.00  0.00    +0.000 C 
ATOM     26  N   UNL     1      47.711   2.990   5.259  0.00  0.00    +0.000 N 
ATOM     27  O   UNL     1      48.649   1.504   6.686  0.00  0.00    +0.000 OA
ATOM     28  H   UNL     1      46.940   3.624   5.079  0.00  0.00    +0.000 HD
ATOM     29  H   UNL     1      48.427   2.838   4.568  0.00  0.00    +0.000 HD
ENDBRANCH  22  25
ENDBRANCH  18  19
ENDBRANCH  17  18
ENDBRANCH   1  17
TORSDOF 6
ENDMDL
MODEL 4
REMARK VINA RESULT:    -7.783      3.134      4.401
REMARK INTER + INTRA:         -11.585
REMARK INTER:                 -10.759
REMARK INTRA:                  -0.827
REMARK UNBOUND:                -1.073
REMARK  Name = 
REMARK  8 active torsions:
REMARK  status: ('A' for Active; 'I' for Inactive)
REMARK    1  A    between atoms: C_1  and  C_2
REMARK    2  A    between atoms: C_4  and  C_5
REMARK    3  A    between atoms: C_5  and  C_6
REMARK    4  A    between atoms: C_5  and  C_7
REMARK    5  A    between atoms: C_7  and  O_8
REMARK    6  A    between atoms: O_8  and  C_9
REMARK    7  A    between atoms: C_12  and  C_13
REMARK    8  A    between atoms: C_19  and  C_20
REMARK                            x       y       z     vdW  Elec       q    Type
REMARK                         _______ _______ _______ _____ _____    ______ ____
ROOT
ATOM      1  C   UNL     1      45.453   4.856  11.700  0.00  0.00    +0.000 C 
ATOM      2  C   UNL     1      45.911   4.051  12.921  0.00  0.00    +0.000 C 
ENDROOT
BRANCH   1   6
ATOM      3  C   UNL     1      44.460   9.808  12.166  0.00  0.00    +0.000 C 
ATOM      4  C   UNL     1      45.421   8.665  12.032  0.00  0.00    +0.000 A 
ATOM      5  C   UNL     1      44.962   7.356  11.912  0.00  0.00    +0.000 A 
ATOM      6  C   UNL     1      45.886   6.311  11.810  0.00  0.00    +0.000 A 
ATOM      7  C   UNL     1      47.246   6.639  11.815  0.00  0.00    +0.000 A 
ATOM      8  C   UNL     1      47.645   7.973  11.930  0.00  0.00    +0.000 A 
ATOM      9  N   UNL     1      46.739   8.975  12.045  0.00  0.00    +0.000 NA
BRANCH   8  10
ATOM     10  C   UNL     1      49.065   8.381  11.955  0.00  0.00    +0.000 A 
ATOM     11  C   UNL     1      49.503   9.499  12.692  0.00  0.00    +0.000 A 
ATOM     12  C   UNL     1      50.843   9.898  12.691  0.00  0.00    +0.000 A 
ATOM     13  C   UNL     1      51.780   9.179  11.955  0.00  0.00    +0.000 A 
ATOM     14  C   UNL     1      51.374   8.060  11.233  0.00  0.00    +0.000 A 
ATOM     15 CL   UNL     1      52.533   7.170  10.325  0.00  0.00    +0.000 Cl
ATOM     16  C   UNL     1      50.036   7.661  11.234  0.00  0.00    +0.000 A 
ENDBRANCH   8  10
ENDBRANCH   1   6
BRANCH   1  17
ATOM     17  C   UNL     1      43.935   4.752  11.474  0.00  0.00    +0.000 C 
BRANCH  17  18
ATOM     18  O   UNL     1      43.635   4.654  10.075  0.00  0.00    +0.000 OA
BRANCH  18  19
ATOM     19  C   UNL     1      44.525   3.933   9.327  0.00  0.00    +0.000 A 
ATOM     20  C   UNL     1      45.437   4.462   8.414  0.00  0.00    +0.000 A 
ATOM     21  C   UNL     1      46.305   3.613   7.731  0.00  0.00    +0.000 A 
ATOM     22  C   UNL     1      46.233   2.251   7.980  0.00  0.00    +0.000 A 
ATOM     23  N   UNL     1      45.351   1.687   8.853  0.00  0.00    +0.000 NA
ATOM     24  C   UNL     1      44.522   2.549   9.498  0.00  0.00    +0.000 A 
BRANCH  22  25
ATOM     25  C   UNL     1      47.179   1.332   7.270  0.00  0.00    +0.000 C 
ATOM     26  N   UNL     1      48.306   1.919   6.763  0.00  0.00    +0.000 N 
ATOM     27  O   UNL     1      46.962   0.136   7.141  0.00  0.00    +0.000 OA
ATOM     28  H   UNL     1      48.442   2.918   6.873  0.00  0.00    +0.000 HD
ATOM     29  H   UNL     1      48.971   1.360   6.254  0.00  0.00    +0.000 HD
ENDBRANCH  22  25
ENDBRANCH  18  19
ENDBRANCH  17  18
ENDBRANCH   1  17
TORSDOF 6
ENDMDL
MODEL 5
REMARK VINA RESULT:    -7.681      3.653      8.109
REMARK INTER + INTRA:         -11.448
REMARK INTER:                 -10.625
REMARK INTRA:                  -0.823
REMARK UNBOUND:                -1.073
REMARK  Name = 
REMARK  8 active torsions:
REMARK  status: ('A' for Active; 'I' for Inactive)
REMARK    1  A    between atoms: C_1  and  C_2
REMARK    2  A    between atoms: C_4  and  C_5
REMARK    3  A    between atoms: C_5  and  C_6
REMARK    4  A    between atoms: C_5  and  C_7
REMARK    5  A    between atoms: C_7  and  O_8
REMARK    6  A    between atoms: O_8  and  C_9
REMARK    7  A    between atoms: C_12  and  C_13
REMARK    8  A    between atoms: C_19  and  C_20
REMARK                            x       y       z     vdW  Elec       q    Type
REMARK                         _______ _______ _______ _____ _____    ______ ____
ROOT
ATOM      1  C   UNL     1      45.620   7.429  11.346  0.00  0.00    +0.000 C 
ATOM      2  C   UNL     1      44.389   8.336  11.249  0.00  0.00    +0.000 C 
ENDROOT
BRANCH   1   6
ATOM      3  C   UNL     1      43.142   3.121  12.357  0.00  0.00    +0.000 C 
ATOM      4  C   UNL     1      44.084   3.933  11.520  0.00  0.00    +0.000 A 
ATOM      5  C   UNL     1      44.393   5.247  11.860  0.00  0.00    +0.000 A 
ATOM      6  C   UNL     1      45.260   5.981  11.046  0.00  0.00    +0.000 A 
ATOM      7  C   UNL     1      45.798   5.345   9.921  0.00  0.00    +0.000 A 
ATOM      8  C   UNL     1      45.457   4.020   9.637  0.00  0.00    +0.000 A 
ATOM      9  N   UNL     1      44.602   3.324  10.426  0.00  0.00    +0.000 NA
BRANCH   8  10
ATOM     10  C   UNL     1      45.981   3.298   8.458  0.00  0.00    +0.000 A 
ATOM     11  C   UNL     1      46.358   3.975   7.281  0.00  0.00    +0.000 A 
ATOM     12  C   UNL     1      46.827   3.286   6.158  0.00  0.00    +0.000 A 
ATOM     13  C   UNL     1      46.937   1.899   6.192  0.00  0.00    +0.000 A 
ATOM     14  C   UNL     1      46.586   1.211   7.350  0.00  0.00    +0.000 A 
ATOM     15 CL   UNL     1      46.724  -0.505   7.392  0.00  0.00    +0.000 Cl
ATOM     16  C   UNL     1      46.118   1.898   8.472  0.00  0.00    +0.000 A 
ENDBRANCH   8  10
ENDBRANCH   1   6
BRANCH   1  17
ATOM     17  C   UNL     1      46.320   7.547  12.712  0.00  0.00    +0.000 C 
BRANCH  17  18
ATOM     18  O   UNL     1      47.429   6.641  12.795  0.00  0.00    +0.000 OA
BRANCH  18  19
ATOM     19  C   UNL     1      47.536   5.941  13.966  0.00  0.00    +0.000 A 
ATOM     20  C   UNL     1      48.323   6.300  15.059  0.00  0.00    +0.000 A 
ATOM     21  C   UNL     1      48.325   5.505  16.202  0.00  0.00    +0.000 A 
ATOM     22  C   UNL     1      47.537   4.365  16.219  0.00  0.00    +0.000 A 
ATOM     23  N   UNL     1      46.761   3.967  15.170  0.00  0.00    +0.000 NA
ATOM     24  C   UNL     1      46.788   4.769  14.075  0.00  0.00    +0.000 A 
BRANCH  22  25
ATOM     25  C   UNL     1      47.511   3.517  17.452  0.00  0.00    +0.000 C 
ATOM     26  N   UNL     1      48.483   3.787  18.376  0.00  0.00    +0.000 N 
ATOM     27  O   UNL     1      46.684   2.634  17.627  0.00  0.00    +0.000 OA
ATOM     28  H   UNL     1      49.164   4.514  18.188  0.00  0.00    +0.000 HD
ATOM     29  H   UNL     1      48.535   3.236  19.218  0.00  0.00    +0.000 HD
ENDBRANCH  22  25
ENDBRANCH  18  19
ENDBRANCH  17  18
ENDBRANCH   1  17
TORSDOF 6
ENDMDL
MODEL 6
REMARK VINA RESULT:    -7.160      4.341      7.752
REMARK INTER + INTRA:         -10.744
REMARK INTER:                  -9.582
REMARK INTRA:                  -1.163
REMARK UNBOUND:                -1.073
REMARK  Name = 
REMARK  8 active torsions:
REMARK  status: ('A' for Active; 'I' for Inactive)
REMARK    1  A    between atoms: C_1  and  C_2
REMARK    2  A    between atoms: C_4  and  C_5
REMARK    3  A    between atoms: C_5  and  C_6
REMARK    4  A    between atoms: C_5  and  C_7
REMARK    5  A    between atoms: C_7  and  O_8
REMARK    6  A    between atoms: O_8  and  C_9
REMARK    7  A    between atoms: C_12  and  C_13
REMARK    8  A    between atoms: C_19  and  C_20
REMARK                            x       y       z     vdW  Elec       q    Type
REMARK                         _______ _______ _______ _____ _____    ______ ____
ROOT
ATOM      1  C   UNL     1      49.004   8.221  11.855  0.00  0.00    +0.000 C 
ATOM      2  C   UNL     1      49.427   9.684  12.030  0.00  0.00    +0.000 C 
ENDROOT
BRANCH   1   6
ATOM      3  C   UNL     1      44.328  10.187  11.843  0.00  0.00    +0.000 C 
ATOM      4  C   UNL     1      45.265   9.016  11.811  0.00  0.00    +0.000 A 
ATOM      5  C   UNL     1      46.644   9.201  11.871  0.00  0.00    +0.000 A 
ATOM      6  C   UNL     1      47.489   8.089  11.819  0.00  0.00    +0.000 A 
ATOM      7  C   UNL     1      46.899   6.823  11.725  0.00  0.00    +0.000 A 
ATOM      8  C   UNL     1      45.508   6.701  11.677  0.00  0.00    +0.000 A 
ATOM      9  N   UNL     1      44.700   7.789  11.713  0.00  0.00    +0.000 NA
BRANCH   8  10
ATOM     10  C   UNL     1      44.826   5.394  11.565  0.00  0.00    +0.000 A 
ATOM     11  C   UNL     1      43.997   4.899  12.592  0.00  0.00    +0.000 A 
ATOM     12  C   UNL     1      43.376   3.650  12.494  0.00  0.00    +0.000 A 
ATOM     13  C   UNL     1      43.566   2.869  11.358  0.00  0.00    +0.000 A 
ATOM     14  C   UNL     1      44.366   3.345  10.323  0.00  0.00    +0.000 A 
ATOM     15 CL   UNL     1      44.598   2.380   8.918  0.00  0.00    +0.000 Cl
ATOM     16  C   UNL     1      44.987   4.592  10.420  0.00  0.00    +0.000 A 
ENDBRANCH   8  10
ENDBRANCH   1   6
BRANCH   1  17
ATOM     17  C   UNL     1      49.608   7.310  12.938  0.00  0.00    +0.000 C 
BRANCH  17  18
ATOM     18  O   UNL     1      49.120   7.672  14.237  0.00  0.00    +0.000 OA
BRANCH  18  19
ATOM     19  C   UNL     1      48.645   6.640  15.000  0.00  0.00    +0.000 A 
ATOM     20  C   UNL     1      47.733   5.672  14.584  0.00  0.00    +0.000 A 
ATOM     21  C   UNL     1      47.348   4.661  15.459  0.00  0.00    +0.000 A 
ATOM     22  C   UNL     1      47.887   4.648  16.736  0.00  0.00    +0.000 A 
ATOM     23  N   UNL     1      48.772   5.579  17.193  0.00  0.00    +0.000 NA
ATOM     24  C   UNL     1      49.121   6.549  16.308  0.00  0.00    +0.000 A 
BRANCH  22  25
ATOM     25  C   UNL     1      47.499   3.550  17.678  0.00  0.00    +0.000 C 
ATOM     26  N   UNL     1      48.243   3.463  18.823  0.00  0.00    +0.000 N 
ATOM     27  O   UNL     1      46.584   2.774  17.444  0.00  0.00    +0.000 OA
ATOM     28  H   UNL     1      49.007   4.112  18.974  0.00  0.00    +0.000 HD
ATOM     29  H   UNL     1      48.048   2.731  19.487  0.00  0.00    +0.000 HD
ENDBRANCH  22  25
ENDBRANCH  18  19
ENDBRANCH  17  18
ENDBRANCH   1  17
TORSDOF 6
ENDMDL
MODEL 7
REMARK VINA RESULT:    -6.476      4.212      8.164
REMARK INTER + INTRA:          -9.821
REMARK INTER:                  -8.900
REMARK INTRA:                  -0.921
REMARK UNBOUND:                -1.073
REMARK  Name = 
REMARK  8 active torsions:
REMARK  status: ('A' for Active; 'I' for Inactive)
REMARK    1  A    between atoms: C_1  and  C_2
REMARK    2  A    between atoms: C_4  and  C_5
REMARK    3  A    between atoms: C_5  and  C_6
REMARK    4  A    between atoms: C_5  and  C_7
REMARK    5  A    between atoms: C_7  and  O_8
REMARK    6  A    between atoms: O_8  and  C_9
REMARK    7  A    between atoms: C_12  and  C_13
REMARK    8  A    between atoms: C_19  and  C_20
REMARK                            x       y       z     vdW  Elec       q    Type
REMARK                         _______ _______ _______ _____ _____    ______ ____
ROOT
ATOM      1  C   UNL     1      49.084   7.195  14.273  0.00  0.00    +0.000 C 
ATOM      2  C   UNL     1      50.274   8.024  13.779  0.00  0.00    +0.000 C 
ENDROOT
BRANCH   1   6
ATOM      3  C   UNL     1      45.475  10.140  12.265  0.00  0.00    +0.000 C 
ATOM      4  C   UNL     1      46.145   8.809  12.436  0.00  0.00    +0.000 A 
ATOM      5  C   UNL     1      47.248   8.666  13.273  0.00  0.00    +0.000 A 
ATOM      6  C   UNL     1      47.861   7.415  13.394  0.00  0.00    +0.000 A 
ATOM      7  C   UNL     1      47.317   6.348  12.670  0.00  0.00    +0.000 A 
ATOM      8  C   UNL     1      46.203   6.553  11.853  0.00  0.00    +0.000 A 
ATOM      9  N   UNL     1      45.627   7.774  11.732  0.00  0.00    +0.000 NA
BRANCH   8  10
ATOM     10  C   UNL     1      45.592   5.469  11.054  0.00  0.00    +0.000 A 
ATOM     11  C   UNL     1      45.768   5.387   9.658  0.00  0.00    +0.000 A 
ATOM     12  C   UNL     1      45.165   4.376   8.902  0.00  0.00    +0.000 A 
ATOM     13  C   UNL     1      44.376   3.418   9.531  0.00  0.00    +0.000 A 
ATOM     14  C   UNL     1      44.202   3.470  10.911  0.00  0.00    +0.000 A 
ATOM     15 CL   UNL     1      43.227   2.282  11.687  0.00  0.00    +0.000 Cl
ATOM     16  C   UNL     1      44.803   4.478  11.666  0.00  0.00    +0.000 A 
ENDBRANCH   8  10
ENDBRANCH   1   6
BRANCH   1  17
ATOM     17  C   UNL     1      48.755   7.476  15.749  0.00  0.00    +0.000 C 
BRANCH  17  18
ATOM     18  O   UNL     1      48.196   6.313  16.376  0.00  0.00    +0.000 OA
BRANCH  18  19
ATOM     19  C   UNL     1      49.091   5.337  16.720  0.00  0.00    +0.000 A 
ATOM     20  C   UNL     1      50.391   5.549  17.177  0.00  0.00    +0.000 A 
ATOM     21  C   UNL     1      51.193   4.462  17.514  0.00  0.00    +0.000 A 
ATOM     22  C   UNL     1      50.670   3.185  17.381  0.00  0.00    +0.000 A 
ATOM     23  N   UNL     1      49.409   2.928  16.928  0.00  0.00    +0.000 NA
ATOM     24  C   UNL     1      48.661   4.015  16.610  0.00  0.00    +0.000 A 
BRANCH  22  25
ATOM     25  C   UNL     1      51.515   2.010  17.765  0.00  0.00    +0.000 C 
ATOM     26  N   UNL     1      52.560   2.282  18.604  0.00  0.00    +0.000 N 
ATOM     27  O   UNL     1      51.296   0.880  17.355  0.00  0.00    +0.000 OA
ATOM     28  H   UNL     1      52.722   3.236  18.909  0.00  0.00    +0.000 HD
ATOM     29  H   UNL     1      53.180   1.539  18.882  0.00  0.00    +0.000 HD
ENDBRANCH  22  25
ENDBRANCH  18  19
ENDBRANCH  17  18
ENDBRANCH   1  17
TORSDOF 6
ENDMDL
MODEL 8
REMARK VINA RESULT:    -6.431      4.404      8.846
REMARK INTER + INTRA:          -9.759
REMARK INTER:                  -8.955
REMARK INTRA:                  -0.804
REMARK UNBOUND:                -1.073
REMARK  Name = 
REMARK  8 active torsions:
REMARK  status: ('A' for Active; 'I' for Inactive)
REMARK    1  A    between atoms: C_1  and  C_2
REMARK    2  A    between atoms: C_4  and  C_5
REMARK    3  A    between atoms: C_5  and  C_6
REMARK    4  A    between atoms: C_5  and  C_7
REMARK    5  A    between atoms: C_7  and  O_8
REMARK    6  A    between atoms: O_8  and  C_9
REMARK    7  A    between atoms: C_12  and  C_13
REMARK    8  A    between atoms: C_19  and  C_20
REMARK                            x       y       z     vdW  Elec       q    Type
REMARK                         _______ _______ _______ _____ _____    ______ ____
ROOT
ATOM      1  C   UNL     1      49.155   7.842  12.932  0.00  0.00    +0.000 C 
ATOM      2  C   UNL     1      49.863   9.097  12.411  0.00  0.00    +0.000 C 
ENDROOT
BRANCH   1   6
ATOM      3  C   UNL     1      44.601   9.923  12.119  0.00  0.00    +0.000 C 
ATOM      4  C   UNL     1      45.551   8.764  12.052  0.00  0.00    +0.000 A 
ATOM      5  C   UNL     1      46.851   8.875  12.538  0.00  0.00    +0.000 A 
ATOM      6  C   UNL     1      47.715   7.781  12.442  0.00  0.00    +0.000 A 
ATOM      7  C   UNL     1      47.221   6.605  11.868  0.00  0.00    +0.000 A 
ATOM      8  C   UNL     1      45.903   6.552  11.405  0.00  0.00    +0.000 A 
ATOM      9  N   UNL     1      45.079   7.625  11.490  0.00  0.00    +0.000 NA
BRANCH   8  10
ATOM     10  C   UNL     1      45.327   5.344  10.778  0.00  0.00    +0.000 A 
ATOM     11  C   UNL     1      44.449   4.492  11.477  0.00  0.00    +0.000 A 
ATOM     12  C   UNL     1      43.927   3.335  10.889  0.00  0.00    +0.000 A 
ATOM     13  C   UNL     1      44.268   3.009   9.580  0.00  0.00    +0.000 A 
ATOM     14  C   UNL     1      45.120   3.845   8.864  0.00  0.00    +0.000 A 
ATOM     15 CL   UNL     1      45.540   3.441   7.244  0.00  0.00    +0.000 Cl
ATOM     16  C   UNL     1      45.641   5.000   9.450  0.00  0.00    +0.000 A 
ENDBRANCH   8  10
ENDBRANCH   1   6
BRANCH   1  17
ATOM     17  C   UNL     1      49.216   7.737  14.465  0.00  0.00    +0.000 C 
BRANCH  17  18
ATOM     18  O   UNL     1      48.962   6.392  14.894  0.00  0.00    +0.000 OA
BRANCH  18  19
ATOM     19  C   UNL     1      48.800   6.219  16.242  0.00  0.00    +0.000 A 
ATOM     20  C   UNL     1      48.937   7.211  17.211  0.00  0.00    +0.000 A 
ATOM     21  C   UNL     1      48.723   6.903  18.552  0.00  0.00    +0.000 A 
ATOM     22  C   UNL     1      48.379   5.603  18.888  0.00  0.00    +0.000 A 
ATOM     23  N   UNL     1      48.246   4.597  17.976  0.00  0.00    +0.000 NA
ATOM     24  C   UNL     1      48.463   4.939  16.680  0.00  0.00    +0.000 A 
BRANCH  22  25
ATOM     25  C   UNL     1      48.122   5.266  20.324  0.00  0.00    +0.000 C 
ATOM     26  N   UNL     1      47.035   5.877  20.889  0.00  0.00    +0.000 N 
ATOM     27  O   UNL     1      48.834   4.503  20.960  0.00  0.00    +0.000 OA
ATOM     28  H   UNL     1      46.479   6.519  20.336  0.00  0.00    +0.000 HD
ATOM     29  H   UNL     1      46.821   5.711  21.858  0.00  0.00    +0.000 HD
ENDBRANCH  22  25
ENDBRANCH  18  19
ENDBRANCH  17  18
ENDBRANCH   1  17
TORSDOF 6
ENDMDL
MODEL 9
REMARK VINA RESULT:    -6.365      3.823      5.872
REMARK INTER + INTRA:          -9.670
REMARK INTER:                  -8.343
REMARK INTRA:                  -1.327
REMARK UNBOUND:                -1.073
REMARK  Name = 
REMARK  8 active torsions:
REMARK  status: ('A' for Active; 'I' for Inactive)
REMARK    1  A    between atoms: C_1  and  C_2
REMARK    2  A    between atoms: C_4  and  C_5
REMARK    3  A    between atoms: C_5  and  C_6
REMARK    4  A    between atoms: C_5  and  C_7
REMARK    5  A    between atoms: C_7  and  O_8
REMARK    6  A    between atoms: O_8  and  C_9
REMARK    7  A    between atoms: C_12  and  C_13
REMARK    8  A    between atoms: C_19  and  C_20
REMARK                            x       y       z     vdW  Elec       q    Type
REMARK                         _______ _______ _______ _____ _____    ______ ____
ROOT
ATOM      1  C   UNL     1      48.850   9.268  15.030  0.00  0.00    +0.000 C 
ATOM      2  C   UNL     1      49.993  10.271  15.218  0.00  0.00    +0.000 C 
ENDROOT
BRANCH   1   6
ATOM      3  C   UNL     1      47.498   8.342  19.831  0.00  0.00    +0.000 C 
ATOM      4  C   UNL     1      48.078   7.906  18.518  0.00  0.00    +0.000 A 
ATOM      5  C   UNL     1      48.193   8.798  17.455  0.00  0.00    +0.000 A 
ATOM      6  C   UNL     1      48.720   8.352  16.239  0.00  0.00    +0.000 A 
ATOM      7  C   UNL     1      49.128   7.017  16.153  0.00  0.00    +0.000 A 
ATOM      8  C   UNL     1      48.995   6.172  17.258  0.00  0.00    +0.000 A 
ATOM      9  N   UNL     1      48.468   6.612  18.427  0.00  0.00    +0.000 NA
BRANCH   8  10
ATOM     10  C   UNL     1      49.395   4.749  17.226  0.00  0.00    +0.000 A 
ATOM     11  C   UNL     1      48.498   3.734  16.838  0.00  0.00    +0.000 A 
ATOM     12  C   UNL     1      48.872   2.387  16.836  0.00  0.00    +0.000 A 
ATOM     13  C   UNL     1      50.161   2.025  17.216  0.00  0.00    +0.000 A 
ATOM     14  C   UNL     1      51.070   3.012  17.586  0.00  0.00    +0.000 A 
ATOM     15 CL   UNL     1      52.665   2.564  18.054  0.00  0.00    +0.000 Cl
ATOM     16  C   UNL     1      50.697   4.358  17.589  0.00  0.00    +0.000 A 
ENDBRANCH   8  10
ENDBRANCH   1   6
BRANCH   1  17
ATOM     17  C   UNL     1      49.006   8.448  13.737  0.00  0.00    +0.000 C 
BRANCH  17  18
ATOM     18  O   UNL     1      47.801   8.491  12.960  0.00  0.00    +0.000 OA
BRANCH  18  19
ATOM     19  C   UNL     1      47.052   7.346  12.964  0.00  0.00    +0.000 A 
ATOM     20  C   UNL     1      47.505   6.078  13.328  0.00  0.00    +0.000 A 
ATOM     21  C   UNL     1      46.628   4.997  13.307  0.00  0.00    +0.000 A 
ATOM     22  C   UNL     1      45.316   5.215  12.917  0.00  0.00    +0.000 A 
ATOM     23  N   UNL     1      44.831   6.433  12.542  0.00  0.00    +0.000 NA
ATOM     24  C   UNL     1      45.718   7.460  12.576  0.00  0.00    +0.000 A 
BRANCH  22  25
ATOM     25  C   UNL     1      44.357   4.064  12.915  0.00  0.00    +0.000 C 
ATOM     26  N   UNL     1      44.867   2.871  12.481  0.00  0.00    +0.000 N 
ATOM     27  O   UNL     1      43.193   4.176  13.270  0.00  0.00    +0.000 OA
ATOM     28  H   UNL     1      45.833   2.820  12.176  0.00  0.00    +0.000 HD
ATOM     29  H   UNL     1      44.268   2.063  12.434  0.00  0.00    +0.000 HD
ENDBRANCH  22  25
ENDBRANCH  18  19
ENDBRANCH  17  18
ENDBRANCH   1  17
TORSDOF 6
ENDMDL
