MODEL 1
REMARK VINA RESULT:    -8.140      0.000      0.000
REMARK INTER + INTRA:         -12.419
REMARK INTER:                 -11.471
REMARK INTRA:                  -0.948
REMARK UNBOUND:                -0.948
REMARK  Name = 
REMARK  8 active torsions:
REMARK  status: ('A' for Active; 'I' for Inactive)
REMARK    1  A    between atoms: C_1  and  C_2
REMARK    2  A    between atoms: C_4  and  C_5
REMARK    3  A    between atoms: C_5  and  O_6
REMARK    4  A    between atoms: O_6  and  C_7
REMARK    5  A    between atoms: C_7  and  C_8
REMARK    6  A    between atoms: C_16  and  C_17
REMARK    7  A    between atoms: C_17  and  N_18
REMARK    8  A    between atoms: C_19  and  C_21
REMARK                            x       y       z     vdW  Elec       q    Type
REMARK                         _______ _______ _______ _____ _____    ______ ____
ROOT
ATOM      1  C   UNL     1      45.180   9.248  12.304  0.00  0.00    +0.000 C 
ATOM      2  C   UNL     1      46.176   8.181  12.649  0.00  0.00    +0.000 A 
ATOM      3  N   UNL     1      47.031   8.492  13.652  0.00  0.00    +0.000 NA
ATOM      4  C   UNL     1      47.943   7.568  14.040  0.00  0.00    +0.000 A 
ATOM      5  C   UNL     1      48.028   6.314  13.448  0.00  0.00    +0.000 A 
ATOM      6  C   UNL     1      47.151   6.004  12.416  0.00  0.00    +0.000 A 
ATOM      7  C   UNL     1      46.197   6.941  12.000  0.00  0.00    +0.000 A 
ENDROOT
BRANCH   4   8
ATOM      8  C   UNL     1      48.873   7.951  15.163  0.00  0.00    +0.000 C 
BRANCH   8   9
ATOM      9  O   UNL     1      49.789   6.882  15.404  0.00  0.00    +0.000 OA
BRANCH   9  10
ATOM     10  C   UNL     1      49.793   6.507  16.783  0.00  0.00    +0.000 C 
BRANCH  10  11
ATOM     11  C   UNL     1      49.181   5.141  16.971  0.00  0.00    +0.000 A 
ATOM     12  C   UNL     1      47.802   4.945  16.856  0.00  0.00    +0.000 A 
ATOM     13  C   UNL     1      47.284   3.669  17.010  0.00  0.00    +0.000 A 
ATOM     14  C   UNL     1      48.149   2.607  17.263  0.00  0.00    +0.000 A 
ATOM     15  C   UNL     1      49.506   2.880  17.347  0.00  0.00    +0.000 A 
ATOM     16  N   UNL     1      50.039   4.111  17.204  0.00  0.00    +0.000 NA
ENDBRANCH  10  11
ENDBRANCH   9  10
ENDBRANCH   8   9
ENDBRANCH   4   8
BRANCH   7  17
ATOM     17  C   UNL     1      45.225   6.580  10.919  0.00  0.00    +0.000 C 
BRANCH  17  18
ATOM     18  N   UNL     1      45.589   5.395  10.175  0.00  0.00    +0.000 N 
ATOM     19  C   UNL     1      44.574   4.510   9.884  0.00  0.00    +0.000 C 
ATOM     20  O   UNL     1      43.424   4.720  10.264  0.00  0.00    +0.000 OA
ATOM     21  H   UNL     1      46.440   5.369   9.631  0.00  0.00    +0.000 HD
BRANCH  19  22
ATOM     22  C   UNL     1      44.893   3.309   9.124  0.00  0.00    +0.000 A 
ATOM     23  C   UNL     1      44.271   2.104   9.411  0.00  0.00    +0.000 A 
ATOM     24  N   UNL     1      44.987   1.095   8.843  0.00  0.00    +0.000 N 
ATOM     25  C   UNL     1      46.024   1.617   8.113  0.00  0.00    +0.000 A 
ATOM     26  C   UNL     1      47.060   0.965   7.456  0.00  0.00    +0.000 A 
ATOM     27  N   UNL     1      47.926   1.688   6.717  0.00  0.00    +0.000 NA
ATOM     28  C   UNL     1      47.764   3.027   6.652  0.00  0.00    +0.000 A 
ATOM     29  C   UNL     1      46.801   3.749   7.349  0.00  0.00    +0.000 A 
ATOM     30  C   UNL     1      45.903   3.013   8.141  0.00  0.00    +0.000 A 
ATOM     31  H   UNL     1      44.809   0.107   8.976  0.00  0.00    +0.000 HD
ENDBRANCH  19  22
ENDBRANCH  17  18
ENDBRANCH   7  17
TORSDOF 7
ENDMDL
MODEL 2
REMARK VINA RESULT:    -8.121      2.324      9.430
REMARK INTER + INTRA:         -12.393
REMARK INTER:                 -11.623
REMARK INTRA:                  -0.770
REMARK UNBOUND:                -0.948
REMARK  Name = 
REMARK  8 active torsions:
REMARK  status: ('A' for Active; 'I' for Inactive)
REMARK    1  A    between atoms: C_1  and  C_2
REMARK    2  A    between atoms: C_4  and  C_5
REMARK    3  A    between atoms: C_5  and  O_6
REMARK    4  A    between atoms: O_6  and  C_7
REMARK    5  A    between atoms: C_7  and  C_8
REMARK    6  A    between atoms: C_16  and  C_17
REMARK    7  A    between atoms: C_17  and  N_18
REMARK    8  A    between atoms: C_19  and  C_21
REMARK                            x       y       z     vdW  Elec       q    Type
REMARK                         _______ _______ _______ _____ _____    ______ ____
ROOT
ATOM      1  C   UNL     1      47.364   7.420  11.519  0.00  0.00    +0.000 C 
ATOM      2  C   UNL     1      46.501   6.315  12.049  0.00  0.00    +0.000 A 
ATOM      3  N   UNL     1      45.473   5.948  11.245  0.00  0.00    +0.000 NA
ATOM      4  C   UNL     1      44.664   4.936  11.643  0.00  0.00    +0.000 A 
ATOM      5  C   UNL     1      44.855   4.260  12.842  0.00  0.00    +0.000 A 
ATOM      6  C   UNL     1      45.908   4.645  13.663  0.00  0.00    +0.000 A 
ATOM      7  C   UNL     1      46.760   5.685  13.272  0.00  0.00    +0.000 A 
ENDROOT
BRANCH   4   8
ATOM      8  C   UNL     1      43.536   4.556  10.719  0.00  0.00    +0.000 C 
BRANCH   8   9
ATOM      9  O   UNL     1      44.075   4.130   9.466  0.00  0.00    +0.000 OA
BRANCH   9  10
ATOM     10  C   UNL     1      44.523   2.774   9.531  0.00  0.00    +0.000 C 
BRANCH  10  11
ATOM     11  C   UNL     1      45.509   2.480   8.428  0.00  0.00    +0.000 A 
ATOM     12  C   UNL     1      45.866   3.460   7.498  0.00  0.00    +0.000 A 
ATOM     13  C   UNL     1      46.795   3.156   6.516  0.00  0.00    +0.000 A 
ATOM     14  C   UNL     1      47.363   1.885   6.484  0.00  0.00    +0.000 A 
ATOM     15  C   UNL     1      46.969   0.972   7.452  0.00  0.00    +0.000 A 
ATOM     16  N   UNL     1      46.066   1.239   8.418  0.00  0.00    +0.000 NA
ENDBRANCH  10  11
ENDBRANCH   9  10
ENDBRANCH   8   9
ENDBRANCH   4   8
BRANCH   7  17
ATOM     17  C   UNL     1      47.920   6.061  14.142  0.00  0.00    +0.000 C 
BRANCH  17  18
ATOM     18  N   UNL     1      47.729   5.751  15.541  0.00  0.00    +0.000 N 
ATOM     19  C   UNL     1      48.819   5.916  16.367  0.00  0.00    +0.000 C 
ATOM     20  O   UNL     1      49.902   6.288  15.918  0.00  0.00    +0.000 OA
ATOM     21  H   UNL     1      46.801   5.731  15.942  0.00  0.00    +0.000 HD
BRANCH  19  22
ATOM     22  C   UNL     1      48.668   5.628  17.787  0.00  0.00    +0.000 A 
ATOM     23  C   UNL     1      48.588   4.321  18.240  0.00  0.00    +0.000 A 
ATOM     24  N   UNL     1      48.086   4.325  19.505  0.00  0.00    +0.000 N 
ATOM     25  C   UNL     1      47.913   5.617  19.931  0.00  0.00    +0.000 A 
ATOM     26  C   UNL     1      47.338   6.094  21.101  0.00  0.00    +0.000 A 
ATOM     27  N   UNL     1      47.357   7.419  21.351  0.00  0.00    +0.000 NA
ATOM     28  C   UNL     1      47.927   8.242  20.444  0.00  0.00    +0.000 A 
ATOM     29  C   UNL     1      48.446   7.840  19.218  0.00  0.00    +0.000 A 
ATOM     30  C   UNL     1      48.415   6.464  18.933  0.00  0.00    +0.000 A 
ATOM     31  H   UNL     1      47.837   3.500  20.036  0.00  0.00    +0.000 HD
ENDBRANCH  19  22
ENDBRANCH  17  18
ENDBRANCH   7  17
TORSDOF 7
ENDMDL
MODEL 3
REMARK VINA RESULT:    -7.826      2.349      9.549
REMARK INTER + INTRA:         -11.977
REMARK INTER:                 -11.040
REMARK INTRA:                  -0.937
REMARK UNBOUND:                -0.948
REMARK  Name = 
REMARK  8 active torsions:
REMARK  status: ('A' for Active; 'I' for Inactive)
REMARK    1  A    between atoms: C_1  and  C_2
REMARK    2  A    between atoms: C_4  and  C_5
REMARK    3  A    between atoms: C_5  and  O_6
REMARK    4  A    between atoms: O_6  and  C_7
REMARK    5  A    between atoms: C_7  and  C_8
REMARK    6  A    between atoms: C_16  and  C_17
REMARK    7  A    between atoms: C_17  and  N_18
REMARK    8  A    between atoms: C_19  and  C_21
REMARK                            x       y       z     vdW  Elec       q    Type
REMARK                         _______ _______ _______ _____ _____    ______ ____
ROOT
ATOM      1  C   UNL     1      46.982   4.025  14.450  0.00  0.00    +0.000 C 
ATOM      2  C   UNL     1      46.525   4.818  13.261  0.00  0.00    +0.000 A 
ATOM      3  N   UNL     1      45.416   4.345  12.642  0.00  0.00    +0.000 NA
ATOM      4  C   UNL     1      44.926   5.022  11.576  0.00  0.00    +0.000 A 
ATOM      5  C   UNL     1      45.518   6.186  11.100  0.00  0.00    +0.000 A 
ATOM      6  C   UNL     1      46.658   6.662  11.736  0.00  0.00    +0.000 A 
ATOM      7  C   UNL     1      47.181   5.981  12.842  0.00  0.00    +0.000 A 
ENDROOT
BRANCH   4   8
ATOM      8  C   UNL     1      43.689   4.466  10.920  0.00  0.00    +0.000 C 
BRANCH   8   9
ATOM      9  O   UNL     1      44.008   4.042   9.594  0.00  0.00    +0.000 OA
BRANCH   9  10
ATOM     10  C   UNL     1      44.476   2.691   9.584  0.00  0.00    +0.000 C 
BRANCH  10  11
ATOM     11  C   UNL     1      45.488   2.481   8.485  0.00  0.00    +0.000 A 
ATOM     12  C   UNL     1      45.839   3.520   7.618  0.00  0.00    +0.000 A 
ATOM     13  C   UNL     1      46.791   3.292   6.638  0.00  0.00    +0.000 A 
ATOM     14  C   UNL     1      47.389   2.037   6.546  0.00  0.00    +0.000 A 
ATOM     15  C   UNL     1      47.000   1.063   7.454  0.00  0.00    +0.000 A 
ATOM     16  N   UNL     1      46.073   1.255   8.415  0.00  0.00    +0.000 NA
ENDBRANCH  10  11
ENDBRANCH   9  10
ENDBRANCH   8   9
ENDBRANCH   4   8
BRANCH   7  17
ATOM     17  C   UNL     1      48.382   6.529  13.550  0.00  0.00    +0.000 C 
BRANCH  17  18
ATOM     18  N   UNL     1      48.067   7.302  14.730  0.00  0.00    +0.000 N 
ATOM     19  C   UNL     1      48.726   6.957  15.890  0.00  0.00    +0.000 C 
ATOM     20  O   UNL     1      49.524   6.023  15.911  0.00  0.00    +0.000 OA
ATOM     21  H   UNL     1      47.651   8.219  14.649  0.00  0.00    +0.000 HD
BRANCH  19  22
ATOM     22  C   UNL     1      48.449   7.719  17.101  0.00  0.00    +0.000 A 
ATOM     23  C   UNL     1      48.744   9.071  17.170  0.00  0.00    +0.000 A 
ATOM     24  N   UNL     1      48.748   9.453  18.476  0.00  0.00    +0.000 N 
ATOM     25  C   UNL     1      48.376   8.398  19.269  0.00  0.00    +0.000 A 
ATOM     26  C   UNL     1      48.340   8.300  20.654  0.00  0.00    +0.000 A 
ATOM     27  N   UNL     1      47.848   7.180  21.221  0.00  0.00    +0.000 NA
ATOM     28  C   UNL     1      47.418   6.182  20.419  0.00  0.00    +0.000 A 
ATOM     29  C   UNL     1      47.501   6.181  19.031  0.00  0.00    +0.000 A 
ATOM     30  C   UNL     1      48.030   7.333  18.424  0.00  0.00    +0.000 A 
ATOM     31  H   UNL     1      49.026  10.365  18.816  0.00  0.00    +0.000 HD
ENDBRANCH  19  22
ENDBRANCH  17  18
ENDBRANCH   7  17
TORSDOF 7
ENDMDL
MODEL 4
REMARK VINA RESULT:    -7.642      1.408      8.533
REMARK INTER + INTRA:         -11.717
REMARK INTER:                 -10.894
REMARK INTRA:                  -0.824
REMARK UNBOUND:                -0.948
REMARK  Name = 
REMARK  8 active torsions:
REMARK  status: ('A' for Active; 'I' for Inactive)
REMARK    1  A    between atoms: C_1  and  C_2
REMARK    2  A    between atoms: C_4  and  C_5
REMARK    3  A    between atoms: C_5  and  O_6
REMARK    4  A    between atoms: O_6  and  C_7
REMARK    5  A    between atoms: C_7  and  C_8
REMARK    6  A    between atoms: C_16  and  C_17
REMARK    7  A    between atoms: C_17  and  N_18
REMARK    8  A    between atoms: C_19  and  C_21
REMARK                            x       y       z     vdW  Elec       q    Type
REMARK                         _______ _______ _______ _____ _____    ______ ____
ROOT
ATOM      1  C   UNL     1      44.874   9.147  11.721  0.00  0.00    +0.000 C 
ATOM      2  C   UNL     1      45.153   7.694  11.966  0.00  0.00    +0.000 A 
ATOM      3  N   UNL     1      44.295   6.832  11.369  0.00  0.00    +0.000 NA
ATOM      4  C   UNL     1      44.497   5.501  11.521  0.00  0.00    +0.000 A 
ATOM      5  C   UNL     1      45.555   4.991  12.264  0.00  0.00    +0.000 A 
ATOM      6  C   UNL     1      46.428   5.881  12.878  0.00  0.00    +0.000 A 
ATOM      7  C   UNL     1      46.241   7.261  12.731  0.00  0.00    +0.000 A 
ENDROOT
BRANCH   4   8
ATOM      8  C   UNL     1      43.524   4.576  10.836  0.00  0.00    +0.000 C 
BRANCH   8   9
ATOM      9  O   UNL     1      44.051   4.192   9.566  0.00  0.00    +0.000 OA
BRANCH   9  10
ATOM     10  C   UNL     1      44.381   2.801   9.543  0.00  0.00    +0.000 C 
BRANCH  10  11
ATOM     11  C   UNL     1      45.373   2.501   8.447  0.00  0.00    +0.000 A 
ATOM     12  C   UNL     1      45.668   3.447   7.461  0.00  0.00    +0.000 A 
ATOM     13  C   UNL     1      46.605   3.141   6.487  0.00  0.00    +0.000 A 
ATOM     14  C   UNL     1      47.243   1.903   6.519  0.00  0.00    +0.000 A 
ATOM     15  C   UNL     1      46.908   1.025   7.539  0.00  0.00    +0.000 A 
ATOM     16  N   UNL     1      45.998   1.294   8.498  0.00  0.00    +0.000 NA
ENDBRANCH  10  11
ENDBRANCH   9  10
ENDBRANCH   8   9
ENDBRANCH   4   8
BRANCH   7  17
ATOM     17  C   UNL     1      47.215   8.211  13.359  0.00  0.00    +0.000 C 
BRANCH  17  18
ATOM     18  N   UNL     1      47.864   7.692  14.541  0.00  0.00    +0.000 N 
ATOM     19  C   UNL     1      49.228   7.507  14.469  0.00  0.00    +0.000 C 
ATOM     20  O   UNL     1      49.846   7.755  13.436  0.00  0.00    +0.000 OA
ATOM     21  H   UNL     1      47.420   7.764  15.446  0.00  0.00    +0.000 HD
BRANCH  19  22
ATOM     22  C   UNL     1      49.925   6.997  15.643  0.00  0.00    +0.000 A 
ATOM     23  C   UNL     1      51.191   7.457  15.968  0.00  0.00    +0.000 A 
ATOM     24  N   UNL     1      51.759   6.587  16.848  0.00  0.00    +0.000 N 
ATOM     25  C   UNL     1      50.860   5.607  17.178  0.00  0.00    +0.000 A 
ATOM     26  C   UNL     1      51.035   4.469  17.954  0.00  0.00    +0.000 A 
ATOM     27  N   UNL     1      49.971   3.685  18.220  0.00  0.00    +0.000 NA
ATOM     28  C   UNL     1      48.768   4.028  17.711  0.00  0.00    +0.000 A 
ATOM     29  C   UNL     1      48.539   5.105  16.862  0.00  0.00    +0.000 A 
ATOM     30  C   UNL     1      49.642   5.921  16.558  0.00  0.00    +0.000 A 
ATOM     31  H   UNL     1      52.716   6.632  17.176  0.00  0.00    +0.000 HD
ENDBRANCH  19  22
ENDBRANCH  17  18
ENDBRANCH   7  17
TORSDOF 7
ENDMDL
MODEL 5
REMARK VINA RESULT:    -7.467      3.181      8.246
REMARK INTER + INTRA:         -11.472
REMARK INTER:                 -10.419
REMARK INTRA:                  -1.052
REMARK UNBOUND:                -0.948
REMARK  Name = 
REMARK  8 active torsions:
REMARK  status: ('A' for Active; 'I' for Inactive)
REMARK    1  A    between atoms: C_1  and  C_2
REMARK    2  A    between atoms: C_4  and  C_5
REMARK    3  A    between atoms: C_5  and  O_6
REMARK    4  A    between atoms: O_6  and  C_7
REMARK    5  A    between atoms: C_7  and  C_8
REMARK    6  A    between atoms: C_16  and  C_17
REMARK    7  A    between atoms: C_17  and  N_18
REMARK    8  A    between atoms: C_19  and  C_21
REMARK                            x       y       z     vdW  Elec       q    Type
REMARK                         _______ _______ _______ _____ _____    ______ ____
ROOT
ATOM      1  C   UNL     1      46.783   4.659  14.407  0.00  0.00    +0.000 C 
ATOM      2  C   UNL     1      45.961   5.066  13.221  0.00  0.00    +0.000 A 
ATOM      3  N   UNL     1      45.197   4.085  12.683  0.00  0.00    +0.000 NA
ATOM      4  C   UNL     1      44.405   4.382  11.625  0.00  0.00    +0.000 A 
ATOM      5  C   UNL     1      44.346   5.658  11.076  0.00  0.00    +0.000 A 
ATOM      6  C   UNL     1      45.136   6.658  11.630  0.00  0.00    +0.000 A 
ATOM      7  C   UNL     1      45.960   6.376  12.727  0.00  0.00    +0.000 A 
ENDROOT
BRANCH   4   8
ATOM      8  C   UNL     1      43.567   3.264  11.059  0.00  0.00    +0.000 C 
BRANCH   8   9
ATOM      9  O   UNL     1      43.891   3.083   9.680  0.00  0.00    +0.000 OA
BRANCH   9  10
ATOM     10  C   UNL     1      44.721   1.934   9.493  0.00  0.00    +0.000 C 
BRANCH  10  11
ATOM     11  C   UNL     1      45.699   2.155   8.366  0.00  0.00    +0.000 A 
ATOM     12  C   UNL     1      45.786   3.390   7.717  0.00  0.00    +0.000 A 
ATOM     13  C   UNL     1      46.716   3.559   6.703  0.00  0.00    +0.000 A 
ATOM     14  C   UNL     1      47.553   2.499   6.362  0.00  0.00    +0.000 A 
ATOM     15  C   UNL     1      47.417   1.311   7.064  0.00  0.00    +0.000 A 
ATOM     16  N   UNL     1      46.519   1.116   8.052  0.00  0.00    +0.000 NA
ENDBRANCH  10  11
ENDBRANCH   9  10
ENDBRANCH   8   9
ENDBRANCH   4   8
BRANCH   7  17
ATOM     17  C   UNL     1      46.772   7.472  13.345  0.00  0.00    +0.000 C 
BRANCH  17  18
ATOM     18  N   UNL     1      47.706   8.095  12.436  0.00  0.00    +0.000 N 
ATOM     19  C   UNL     1      49.019   7.683  12.517  0.00  0.00    +0.000 C 
ATOM     20  O   UNL     1      49.367   6.842  13.342  0.00  0.00    +0.000 OA
ATOM     21  H   UNL     1      47.380   8.551  11.595  0.00  0.00    +0.000 HD
BRANCH  19  22
ATOM     22  C   UNL     1      49.992   8.275  11.609  0.00  0.00    +0.000 A 
ATOM     23  C   UNL     1      50.941   7.487  10.978  0.00  0.00    +0.000 A 
ATOM     24  N   UNL     1      51.932   8.291  10.503  0.00  0.00    +0.000 N 
ATOM     25  C   UNL     1      51.614   9.604  10.733  0.00  0.00    +0.000 A 
ATOM     26  C   UNL     1      52.368  10.750  10.512  0.00  0.00    +0.000 A 
ATOM     27  N   UNL     1      51.809  11.957  10.733  0.00  0.00    +0.000 NA
ATOM     28  C   UNL     1      50.534  12.011  11.175  0.00  0.00    +0.000 A 
ATOM     29  C   UNL     1      49.752  10.905  11.494  0.00  0.00    +0.000 A 
ATOM     30  C   UNL     1      50.328   9.639  11.289  0.00  0.00    +0.000 A 
ATOM     31  H   UNL     1      52.794   7.966  10.083  0.00  0.00    +0.000 HD
ENDBRANCH  19  22
ENDBRANCH  17  18
ENDBRANCH   7  17
TORSDOF 7
ENDMDL
MODEL 6
REMARK VINA RESULT:    -7.355      1.534      2.108
REMARK INTER + INTRA:         -11.314
REMARK INTER:                 -10.597
REMARK INTRA:                  -0.717
REMARK UNBOUND:                -0.948
REMARK  Name = 
REMARK  8 active torsions:
REMARK  status: ('A' for Active; 'I' for Inactive)
REMARK    1  A    between atoms: C_1  and  C_2
REMARK    2  A    between atoms: C_4  and  C_5
REMARK    3  A    between atoms: C_5  and  O_6
REMARK    4  A    between atoms: O_6  and  C_7
REMARK    5  A    between atoms: C_7  and  C_8
REMARK    6  A    between atoms: C_16  and  C_17
REMARK    7  A    between atoms: C_17  and  N_18
REMARK    8  A    between atoms: C_19  and  C_21
REMARK                            x       y       z     vdW  Elec       q    Type
REMARK                         _______ _______ _______ _____ _____    ______ ____
ROOT
ATOM      1  C   UNL     1      47.450   8.589  12.287  0.00  0.00    +0.000 C 
ATOM      2  C   UNL     1      47.346   7.317  13.073  0.00  0.00    +0.000 A 
ATOM      3  N   UNL     1      48.012   7.310  14.252  0.00  0.00    +0.000 NA
ATOM      4  C   UNL     1      47.944   6.205  15.033  0.00  0.00    +0.000 A 
ATOM      5  C   UNL     1      47.212   5.082  14.668  0.00  0.00    +0.000 A 
ATOM      6  C   UNL     1      46.535   5.094  13.455  0.00  0.00    +0.000 A 
ATOM      7  C   UNL     1      46.587   6.226  12.633  0.00  0.00    +0.000 A 
ENDROOT
BRANCH   4   8
ATOM      8  C   UNL     1      48.695   6.240  16.340  0.00  0.00    +0.000 C 
BRANCH   8   9
ATOM      9  O   UNL     1      49.673   5.199  16.350  0.00  0.00    +0.000 OA
BRANCH   9  10
ATOM     10  C   UNL     1      49.536   4.375  17.510  0.00  0.00    +0.000 C 
BRANCH  10  11
ATOM     11  C   UNL     1      50.705   3.429  17.639  0.00  0.00    +0.000 A 
ATOM     12  C   UNL     1      51.930   3.862  18.154  0.00  0.00    +0.000 A 
ATOM     13  C   UNL     1      52.970   2.955  18.280  0.00  0.00    +0.000 A 
ATOM     14  C   UNL     1      52.769   1.630  17.903  0.00  0.00    +0.000 A 
ATOM     15  C   UNL     1      51.520   1.274  17.416  0.00  0.00    +0.000 A 
ATOM     16  N   UNL     1      50.490   2.135  17.279  0.00  0.00    +0.000 NA
ENDBRANCH  10  11
ENDBRANCH   9  10
ENDBRANCH   8   9
ENDBRANCH   4   8
BRANCH   7  17
ATOM     17  C   UNL     1      45.816   6.246  11.348  0.00  0.00    +0.000 C 
BRANCH  17  18
ATOM     18  N   UNL     1      46.044   5.092  10.509  0.00  0.00    +0.000 N 
ATOM     19  C   UNL     1      44.927   4.419  10.064  0.00  0.00    +0.000 C 
ATOM     20  O   UNL     1      43.798   4.781  10.391  0.00  0.00    +0.000 OA
ATOM     21  H   UNL     1      46.920   4.976  10.019  0.00  0.00    +0.000 HD
BRANCH  19  22
ATOM     22  C   UNL     1      45.109   3.257   9.203  0.00  0.00    +0.000 A 
ATOM     23  C   UNL     1      44.423   2.079   9.450  0.00  0.00    +0.000 A 
ATOM     24  N   UNL     1      45.027   1.069   8.767  0.00  0.00    +0.000 N 
ATOM     25  C   UNL     1      46.049   1.572   8.004  0.00  0.00    +0.000 A 
ATOM     26  C   UNL     1      46.991   0.902   7.233  0.00  0.00    +0.000 A 
ATOM     27  N   UNL     1      47.857   1.617   6.487  0.00  0.00    +0.000 NA
ATOM     28  C   UNL     1      47.787   2.965   6.525  0.00  0.00    +0.000 A 
ATOM     29  C   UNL     1      46.926   3.698   7.334  0.00  0.00    +0.000 A 
ATOM     30  C   UNL     1      46.030   2.967   8.135  0.00  0.00    +0.000 A 
ATOM     31  H   UNL     1      44.787   0.088   8.845  0.00  0.00    +0.000 HD
ENDBRANCH  19  22
ENDBRANCH  17  18
ENDBRANCH   7  17
TORSDOF 7
ENDMDL
MODEL 7
REMARK VINA RESULT:    -6.856      3.303      8.053
REMARK INTER + INTRA:         -10.610
REMARK INTER:                  -9.829
REMARK INTRA:                  -0.781
REMARK UNBOUND:                -0.948
REMARK  Name = 
REMARK  8 active torsions:
REMARK  status: ('A' for Active; 'I' for Inactive)
REMARK    1  A    between atoms: C_1  and  C_2
REMARK    2  A    between atoms: C_4  and  C_5
REMARK    3  A    between atoms: C_5  and  O_6
REMARK    4  A    between atoms: O_6  and  C_7
REMARK    5  A    between atoms: C_7  and  C_8
REMARK    6  A    between atoms: C_16  and  C_17
REMARK    7  A    between atoms: C_17  and  N_18
REMARK    8  A    between atoms: C_19  and  C_21
REMARK                            x       y       z     vdW  Elec       q    Type
REMARK                         _______ _______ _______ _____ _____    ______ ____
ROOT
ATOM      1  C   UNL     1      44.636   8.454  11.377  0.00  0.00    +0.000 C 
ATOM      2  C   UNL     1      45.170   7.169  11.934  0.00  0.00    +0.000 A 
ATOM      3  N   UNL     1      44.532   6.049  11.518  0.00  0.00    +0.000 NA
ATOM      4  C   UNL     1      44.974   4.845  11.956  0.00  0.00    +0.000 A 
ATOM      5  C   UNL     1      46.061   4.721  12.812  0.00  0.00    +0.000 A 
ATOM      6  C   UNL     1      46.708   5.874  13.239  0.00  0.00    +0.000 A 
ATOM      7  C   UNL     1      46.272   7.129  12.797  0.00  0.00    +0.000 A 
ENDROOT
BRANCH   4   8
ATOM      8  C   UNL     1      44.239   3.624  11.466  0.00  0.00    +0.000 C 
BRANCH   8   9
ATOM      9  O   UNL     1      44.216   3.629  10.038  0.00  0.00    +0.000 OA
BRANCH   9  10
ATOM     10  C   UNL     1      44.402   2.311   9.515  0.00  0.00    +0.000 C 
BRANCH  10  11
ATOM     11  C   UNL     1      45.460   2.304   8.439  0.00  0.00    +0.000 A 
ATOM     12  C   UNL     1      45.704   3.437   7.659  0.00  0.00    +0.000 A 
ATOM     13  C   UNL     1      46.703   3.397   6.699  0.00  0.00    +0.000 A 
ATOM     14  C   UNL     1      47.450   2.232   6.541  0.00  0.00    +0.000 A 
ATOM     15  C   UNL     1      47.158   1.155   7.365  0.00  0.00    +0.000 A 
ATOM     16  N   UNL     1      46.191   1.165   8.305  0.00  0.00    +0.000 NA
ENDBRANCH  10  11
ENDBRANCH   9  10
ENDBRANCH   8   9
ENDBRANCH   4   8
BRANCH   7  17
ATOM     17  C   UNL     1      47.006   8.362  13.226  0.00  0.00    +0.000 C 
BRANCH  17  18
ATOM     18  N   UNL     1      48.192   8.639  12.449  0.00  0.00    +0.000 N 
ATOM     19  C   UNL     1      49.130   9.470  13.024  0.00  0.00    +0.000 C 
ATOM     20  O   UNL     1      48.942   9.961  14.135  0.00  0.00    +0.000 OA
ATOM     21  H   UNL     1      48.469   8.027  11.694  0.00  0.00    +0.000 HD
BRANCH  19  22
ATOM     22  C   UNL     1      50.348   9.766  12.281  0.00  0.00    +0.000 A 
ATOM     23  C   UNL     1      50.852  11.056  12.234  0.00  0.00    +0.000 A 
ATOM     24  N   UNL     1      51.743  11.140  11.208  0.00  0.00    +0.000 N 
ATOM     25  C   UNL     1      51.902   9.907  10.629  0.00  0.00    +0.000 A 
ATOM     26  C   UNL     1      52.625   9.546   9.500  0.00  0.00    +0.000 A 
ATOM     27  N   UNL     1      52.713   8.243   9.165  0.00  0.00    +0.000 NA
ATOM     28  C   UNL     1      52.081   7.331   9.935  0.00  0.00    +0.000 A 
ATOM     29  C   UNL     1      51.275   7.631  11.029  0.00  0.00    +0.000 A 
ATOM     30  C   UNL     1      51.157   8.987  11.379  0.00  0.00    +0.000 A 
ATOM     31  H   UNL     1      52.187  11.993  10.891  0.00  0.00    +0.000 HD
ENDBRANCH  19  22
ENDBRANCH  17  18
ENDBRANCH   7  17
TORSDOF 7
ENDMDL
MODEL 8
REMARK VINA RESULT:    -6.766      2.879      4.207
REMARK INTER + INTRA:         -10.484
REMARK INTER:                  -9.514
REMARK INTRA:                  -0.970
REMARK UNBOUND:                -0.948
REMARK  Name = 
REMARK  8 active torsions:
REMARK  status: ('A' for Active; 'I' for Inactive)
REMARK    1  A    between atoms: C_1  and  C_2
REMARK    2  A    between atoms: C_4  and  C_5
REMARK    3  A    between atoms: C_5  and  O_6
REMARK    4  A    between atoms: O_6  and  C_7
REMARK    5  A    between atoms: C_7  and  C_8
REMARK    6  A    between atoms: C_16  and  C_17
REMARK    7  A    between atoms: C_17  and  N_18
REMARK    8  A    between atoms: C_19  and  C_21
REMARK                            x       y       z     vdW  Elec       q    Type
REMARK                         _______ _______ _______ _____ _____    ______ ____
ROOT
ATOM      1  C   UNL     1      49.634   7.527  14.908  0.00  0.00    +0.000 C 
ATOM      2  C   UNL     1      48.963   6.302  15.455  0.00  0.00    +0.000 A 
ATOM      3  N   UNL     1      49.521   5.791  16.580  0.00  0.00    +0.000 NA
ATOM      4  C   UNL     1      48.955   4.700  17.150  0.00  0.00    +0.000 A 
ATOM      5  C   UNL     1      47.823   4.091  16.625  0.00  0.00    +0.000 A 
ATOM      6  C   UNL     1      47.259   4.617  15.468  0.00  0.00    +0.000 A 
ATOM      7  C   UNL     1      47.824   5.746  14.863  0.00  0.00    +0.000 A 
ENDROOT
BRANCH   4   8
ATOM      8  C   UNL     1      49.603   4.167  18.402  0.00  0.00    +0.000 C 
BRANCH   8   9
ATOM      9  O   UNL     1      49.625   5.192  19.396  0.00  0.00    +0.000 OA
BRANCH   9  10
ATOM     10  C   UNL     1      48.402   5.220  20.135  0.00  0.00    +0.000 C 
BRANCH  10  11
ATOM     11  C   UNL     1      47.914   6.636  20.314  0.00  0.00    +0.000 A 
ATOM     12  C   UNL     1      47.564   7.126  21.576  0.00  0.00    +0.000 A 
ATOM     13  C   UNL     1      47.145   8.440  21.701  0.00  0.00    +0.000 A 
ATOM     14  C   UNL     1      47.093   9.250  20.569  0.00  0.00    +0.000 A 
ATOM     15  C   UNL     1      47.472   8.696  19.355  0.00  0.00    +0.000 A 
ATOM     16  N   UNL     1      47.881   7.420  19.203  0.00  0.00    +0.000 NA
ENDBRANCH  10  11
ENDBRANCH   9  10
ENDBRANCH   8   9
ENDBRANCH   4   8
BRANCH   7  17
ATOM     17  C   UNL     1      47.181   6.333  13.644  0.00  0.00    +0.000 C 
BRANCH  17  18
ATOM     18  N   UNL     1      46.597   5.352  12.758  0.00  0.00    +0.000 N 
ATOM     19  C   UNL     1      45.221   5.324  12.684  0.00  0.00    +0.000 C 
ATOM     20  O   UNL     1      44.536   6.089  13.361  0.00  0.00    +0.000 OA
ATOM     21  H   UNL     1      47.141   4.941  12.012  0.00  0.00    +0.000 HD
BRANCH  19  22
ATOM     22  C   UNL     1      44.589   4.360  11.794  0.00  0.00    +0.000 A 
ATOM     23  C   UNL     1      43.724   3.398  12.291  0.00  0.00    +0.000 A 
ATOM     24  N   UNL     1      43.572   2.420  11.357  0.00  0.00    +0.000 N 
ATOM     25  C   UNL     1      44.253   2.759  10.216  0.00  0.00    +0.000 A 
ATOM     26  C   UNL     1      44.459   2.023   9.056  0.00  0.00    +0.000 A 
ATOM     27  N   UNL     1      45.092   2.602   8.015  0.00  0.00    +0.000 NA
ATOM     28  C   UNL     1      45.517   3.877   8.141  0.00  0.00    +0.000 A 
ATOM     29  C   UNL     1      45.416   4.641   9.299  0.00  0.00    +0.000 A 
ATOM     30  C   UNL     1      44.777   4.046  10.401  0.00  0.00    +0.000 A 
ATOM     31  H   UNL     1      43.069   1.553  11.498  0.00  0.00    +0.000 HD
ENDBRANCH  19  22
ENDBRANCH  17  18
ENDBRANCH   7  17
TORSDOF 7
ENDMDL
MODEL 9
REMARK VINA RESULT:    -6.474      2.097      3.402
REMARK INTER + INTRA:         -10.072
REMARK INTER:                  -8.983
REMARK INTRA:                  -1.088
REMARK UNBOUND:                -0.948
REMARK  Name = 
REMARK  8 active torsions:
REMARK  status: ('A' for Active; 'I' for Inactive)
REMARK    1  A    between atoms: C_1  and  C_2
REMARK    2  A    between atoms: C_4  and  C_5
REMARK    3  A    between atoms: C_5  and  O_6
REMARK    4  A    between atoms: O_6  and  C_7
REMARK    5  A    between atoms: C_7  and  C_8
REMARK    6  A    between atoms: C_16  and  C_17
REMARK    7  A    between atoms: C_17  and  N_18
REMARK    8  A    between atoms: C_19  and  C_21
REMARK                            x       y       z     vdW  Elec       q    Type
REMARK                         _______ _______ _______ _____ _____    ______ ____
ROOT
ATOM      1  C   UNL     1      51.011   8.449  12.860  0.00  0.00    +0.000 C 
ATOM      2  C   UNL     1      50.319   7.708  13.965  0.00  0.00    +0.000 A 
ATOM      3  N   UNL     1      51.072   7.480  15.068  0.00  0.00    +0.000 NA
ATOM      4  C   UNL     1      50.508   6.840  16.121  0.00  0.00    +0.000 A 
ATOM      5  C   UNL     1      49.185   6.416  16.110  0.00  0.00    +0.000 A 
ATOM      6  C   UNL     1      48.420   6.650  14.974  0.00  0.00    +0.000 A 
ATOM      7  C   UNL     1      48.979   7.312  13.875  0.00  0.00    +0.000 A 
ENDROOT
BRANCH   4   8
ATOM      8  C   UNL     1      51.378   6.609  17.330  0.00  0.00    +0.000 C 
BRANCH   8   9
ATOM      9  O   UNL     1      52.101   5.389  17.166  0.00  0.00    +0.000 OA
BRANCH   9  10
ATOM     10  C   UNL     1      51.800   4.466  18.214  0.00  0.00    +0.000 C 
BRANCH  10  11
ATOM     11  C   UNL     1      50.444   3.837  18.005  0.00  0.00    +0.000 A 
ATOM     12  C   UNL     1      49.365   4.157  18.834  0.00  0.00    +0.000 A 
ATOM     13  C   UNL     1      48.130   3.577  18.592  0.00  0.00    +0.000 A 
ATOM     14  C   UNL     1      47.987   2.698  17.521  0.00  0.00    +0.000 A 
ATOM     15  C   UNL     1      49.102   2.445  16.735  0.00  0.00    +0.000 A 
ATOM     16  N   UNL     1      50.316   2.992  16.948  0.00  0.00    +0.000 NA
ENDBRANCH  10  11
ENDBRANCH   9  10
ENDBRANCH   8   9
ENDBRANCH   4   8
BRANCH   7  17
ATOM     17  C   UNL     1      48.132   7.601  12.673  0.00  0.00    +0.000 C 
BRANCH  17  18
ATOM     18  N   UNL     1      47.337   6.477  12.232  0.00  0.00    +0.000 N 
ATOM     19  C   UNL     1      45.969   6.643  12.248  0.00  0.00    +0.000 C 
ATOM     20  O   UNL     1      45.463   7.692  12.640  0.00  0.00    +0.000 OA
ATOM     21  H   UNL     1      47.743   5.754  11.655  0.00  0.00    +0.000 HD
BRANCH  19  22
ATOM     22  C   UNL     1      45.129   5.541  11.798  0.00  0.00    +0.000 A 
ATOM     23  C   UNL     1      44.319   4.858  12.693  0.00  0.00    +0.000 A 
ATOM     24  N   UNL     1      43.940   3.679  12.128  0.00  0.00    +0.000 N 
ATOM     25  C   UNL     1      44.413   3.607  10.843  0.00  0.00    +0.000 A 
ATOM     26  C   UNL     1      44.356   2.556   9.937  0.00  0.00    +0.000 A 
ATOM     27  N   UNL     1      44.814   2.746   8.682  0.00  0.00    +0.000 NA
ATOM     28  C   UNL     1      45.326   3.951   8.353  0.00  0.00    +0.000 A 
ATOM     29  C   UNL     1      45.487   5.017   9.233  0.00  0.00    +0.000 A 
ATOM     30  C   UNL     1      45.034   4.829  10.550  0.00  0.00    +0.000 A 
ATOM     31  H   UNL     1      43.425   2.946  12.600  0.00  0.00    +0.000 HD
ENDBRANCH  19  22
ENDBRANCH  17  18
ENDBRANCH   7  17
TORSDOF 7
ENDMDL
