MODEL 1
REMARK VINA RESULT:    -8.272      0.000      0.000
REMARK INTER + INTRA:         -13.524
REMARK INTER:                 -12.141
REMARK INTRA:                  -1.383
REMARK UNBOUND:                -1.383
REMARK  Name = 
REMARK  9 active torsions:
REMARK  status: ('A' for Active; 'I' for Inactive)
REMARK    1  A    between atoms: C_1  and  O_2
REMARK    2  A    between atoms: O_2  and  C_3
REMARK    3  A    between atoms: C_5  and  C_6
REMARK    4  A    between atoms: C_6  and  O_7
REMARK    5  A    between atoms: O_7  and  C_8
REMARK    6  A    between atoms: C_8  and  C_9
REMARK    7  A    between atoms: C_17  and  C_18
REMARK    8  A    between atoms: C_18  and  N_19
REMARK    9  A    between atoms: C_20  and  C_22
REMARK                            x       y       z     vdW  Elec       q    Type
REMARK                         _______ _______ _______ _____ _____    ______ ____
ROOT
ATOM      1  C   UNL     1      46.636   5.095  12.970  0.00  0.00    +0.000 A 
ATOM      2  C   UNL     1      45.534   4.525  12.320  0.00  0.00    +0.000 A 
ATOM      3  C   UNL     1      44.693   5.305  11.512  0.00  0.00    +0.000 A 
ATOM      4  C   UNL     1      44.937   6.674  11.390  0.00  0.00    +0.000 A 
ATOM      5  C   UNL     1      46.025   7.250  12.039  0.00  0.00    +0.000 A 
ATOM      6  C   UNL     1      46.886   6.473  12.834  0.00  0.00    +0.000 A 
ENDROOT
BRANCH   1   8
ATOM      7  C   UNL     1      46.976   3.889  14.994  0.00  0.00    +0.000 C 
ATOM      8  O   UNL     1      47.501   4.388  13.767  0.00  0.00    +0.000 OA
ENDBRANCH   1   8
BRANCH   3   9
ATOM      9  C   UNL     1      43.586   4.662  10.718  0.00  0.00    +0.000 C 
BRANCH   9  10
ATOM     10  O   UNL     1      44.090   3.628   9.873  0.00  0.00    +0.000 OA
BRANCH  10  11
ATOM     11  C   UNL     1      44.626   4.118   8.645  0.00  0.00    +0.000 C 
BRANCH  11  12
ATOM     12  C   UNL     1      45.591   3.106   8.105  0.00  0.00    +0.000 A 
ATOM     13  C   UNL     1      46.550   3.455   7.150  0.00  0.00    +0.000 A 
ATOM     14  C   UNL     1      47.438   2.494   6.681  0.00  0.00    +0.000 A 
ATOM     15  C   UNL     1      47.342   1.210   7.192  0.00  0.00    +0.000 A 
ATOM     16  N   UNL     1      46.438   0.836   8.124  0.00  0.00    +0.000 NA
ATOM     17  C   UNL     1      45.584   1.792   8.556  0.00  0.00    +0.000 A 
ENDBRANCH  11  12
ENDBRANCH  10  11
ENDBRANCH   9  10
ENDBRANCH   3   9
BRANCH   6  18
ATOM     18  C   UNL     1      48.076   7.143  13.471  0.00  0.00    +0.000 C 
BRANCH  18  19
ATOM     19  N   UNL     1      48.039   7.072  14.914  0.00  0.00    +0.000 N 
ATOM     20  C   UNL     1      49.163   6.975  15.690  0.00  0.00    +0.000 C 
ATOM     21  O   UNL     1      50.286   6.818  15.220  0.00  0.00    +0.000 OA
ATOM     22  H   UNL     1      47.144   7.270  15.346  0.00  0.00    +0.000 HD
BRANCH  20  23
ATOM     23  C   UNL     1      48.954   7.051  17.143  0.00  0.00    +0.000 A 
ATOM     24  C   UNL     1      48.586   8.254  17.731  0.00  0.00    +0.000 A 
ATOM     25  S   UNL     1      48.348   8.145  19.418  0.00  0.00    +0.000 S 
ATOM     26  C   UNL     1      48.690   6.478  19.415  0.00  0.00    +0.000 A 
ATOM     27  N   UNL     1      48.617   5.748  20.562  0.00  0.00    +0.000 NA
ATOM     28  C   UNL     1      48.852   4.488  20.405  0.00  0.00    +0.000 A 
ATOM     29  N   UNL     1      49.172   3.896  19.211  0.00  0.00    +0.000 N 
ATOM     30  C   UNL     1      49.330   4.606  18.044  0.00  0.00    +0.000 A 
ATOM     31  O   UNL     1      49.742   4.063  17.023  0.00  0.00    +0.000 OA
ATOM     32  C   UNL     1      49.020   6.018  18.153  0.00  0.00    +0.000 A 
ATOM     33  H   UNL     1      49.379   2.909  19.161  0.00  0.00    +0.000 HD
ENDBRANCH  20  23
ENDBRANCH  18  19
ENDBRANCH   6  18
TORSDOF 8
ENDMDL
MODEL 2
REMARK VINA RESULT:    -8.021      1.565      2.353
REMARK INTER + INTRA:         -13.156
REMARK INTER:                 -11.954
REMARK INTRA:                  -1.202
REMARK UNBOUND:                -1.383
REMARK  Name = 
REMARK  9 active torsions:
REMARK  status: ('A' for Active; 'I' for Inactive)
REMARK    1  A    between atoms: C_1  and  O_2
REMARK    2  A    between atoms: O_2  and  C_3
REMARK    3  A    between atoms: C_5  and  C_6
REMARK    4  A    between atoms: C_6  and  O_7
REMARK    5  A    between atoms: O_7  and  C_8
REMARK    6  A    between atoms: C_8  and  C_9
REMARK    7  A    between atoms: C_17  and  C_18
REMARK    8  A    between atoms: C_18  and  N_19
REMARK    9  A    between atoms: C_20  and  C_22
REMARK                            x       y       z     vdW  Elec       q    Type
REMARK                         _______ _______ _______ _____ _____    ______ ____
ROOT
ATOM      1  C   UNL     1      45.221   7.713  11.888  0.00  0.00    +0.000 A 
ATOM      2  C   UNL     1      44.339   6.906  11.159  0.00  0.00    +0.000 A 
ATOM      3  C   UNL     1      44.469   5.509  11.165  0.00  0.00    +0.000 A 
ATOM      4  C   UNL     1      45.519   4.922  11.875  0.00  0.00    +0.000 A 
ATOM      5  C   UNL     1      46.405   5.718  12.595  0.00  0.00    +0.000 A 
ATOM      6  C   UNL     1      46.269   7.117  12.613  0.00  0.00    +0.000 A 
ENDROOT
BRANCH   1   8
ATOM      7  C   UNL     1      44.167   9.693  11.094  0.00  0.00    +0.000 C 
ATOM      8  O   UNL     1      45.145   9.083  11.930  0.00  0.00    +0.000 OA
ENDBRANCH   1   8
BRANCH   3   9
ATOM      9  C   UNL     1      43.443   4.643  10.481  0.00  0.00    +0.000 C 
BRANCH   9  10
ATOM     10  O   UNL     1      44.066   3.616   9.710  0.00  0.00    +0.000 OA
BRANCH  10  11
ATOM     11  C   UNL     1      44.638   4.097   8.494  0.00  0.00    +0.000 C 
BRANCH  11  12
ATOM     12  C   UNL     1      45.626   3.086   7.997  0.00  0.00    +0.000 A 
ATOM     13  C   UNL     1      46.607   3.430   7.062  0.00  0.00    +0.000 A 
ATOM     14  C   UNL     1      47.517   2.471   6.632  0.00  0.00    +0.000 A 
ATOM     15  C   UNL     1      47.420   1.195   7.161  0.00  0.00    +0.000 A 
ATOM     16  N   UNL     1      46.495   0.827   8.074  0.00  0.00    +0.000 NA
ATOM     17  C   UNL     1      45.621   1.780   8.468  0.00  0.00    +0.000 A 
ENDBRANCH  11  12
ENDBRANCH  10  11
ENDBRANCH   9  10
ENDBRANCH   3   9
BRANCH   6  18
ATOM     18  C   UNL     1      47.229   7.921  13.452  0.00  0.00    +0.000 C 
BRANCH  18  19
ATOM     19  N   UNL     1      47.627   7.223  14.652  0.00  0.00    +0.000 N 
ATOM     20  C   UNL     1      48.927   6.901  14.938  0.00  0.00    +0.000 C 
ATOM     21  O   UNL     1      49.846   7.072  14.142  0.00  0.00    +0.000 OA
ATOM     22  H   UNL     1      46.915   7.128  15.367  0.00  0.00    +0.000 HD
BRANCH  20  23
ATOM     23  C   UNL     1      49.172   6.314  16.263  0.00  0.00    +0.000 A 
ATOM     24  C   UNL     1      49.951   6.992  17.191  0.00  0.00    +0.000 A 
ATOM     25  S   UNL     1      50.093   6.180  18.686  0.00  0.00    +0.000 S 
ATOM     26  C   UNL     1      49.085   4.914  18.159  0.00  0.00    +0.000 A 
ATOM     27  N   UNL     1      48.756   3.891  18.993  0.00  0.00    +0.000 NA
ATOM     28  C   UNL     1      47.944   3.027  18.478  0.00  0.00    +0.000 A 
ATOM     29  N   UNL     1      47.448   3.085  17.201  0.00  0.00    +0.000 N 
ATOM     30  C   UNL     1      47.813   4.059  16.302  0.00  0.00    +0.000 A 
ATOM     31  O   UNL     1      47.451   4.008  15.131  0.00  0.00    +0.000 OA
ATOM     32  C   UNL     1      48.678   5.088  16.848  0.00  0.00    +0.000 A 
ATOM     33  H   UNL     1      46.844   2.358  16.847  0.00  0.00    +0.000 HD
ENDBRANCH  20  23
ENDBRANCH  18  19
ENDBRANCH   6  18
TORSDOF 8
ENDMDL
MODEL 3
REMARK VINA RESULT:    -7.799      1.197      1.924
REMARK INTER + INTRA:         -12.829
REMARK INTER:                 -11.557
REMARK INTRA:                  -1.272
REMARK UNBOUND:                -1.383
REMARK  Name = 
REMARK  9 active torsions:
REMARK  status: ('A' for Active; 'I' for Inactive)
REMARK    1  A    between atoms: C_1  and  O_2
REMARK    2  A    between atoms: O_2  and  C_3
REMARK    3  A    between atoms: C_5  and  C_6
REMARK    4  A    between atoms: C_6  and  O_7
REMARK    5  A    between atoms: O_7  and  C_8
REMARK    6  A    between atoms: C_8  and  C_9
REMARK    7  A    between atoms: C_17  and  C_18
REMARK    8  A    between atoms: C_18  and  N_19
REMARK    9  A    between atoms: C_20  and  C_22
REMARK                            x       y       z     vdW  Elec       q    Type
REMARK                         _______ _______ _______ _____ _____    ______ ____
ROOT
ATOM      1  C   UNL     1      46.033   6.275  12.056  0.00  0.00    +0.000 A 
ATOM      2  C   UNL     1      44.983   5.496  11.554  0.00  0.00    +0.000 A 
ATOM      3  C   UNL     1      44.816   4.165  11.964  0.00  0.00    +0.000 A 
ATOM      4  C   UNL     1      45.734   3.601  12.852  0.00  0.00    +0.000 A 
ATOM      5  C   UNL     1      46.784   4.366  13.349  0.00  0.00    +0.000 A 
ATOM      6  C   UNL     1      46.948   5.707  12.961  0.00  0.00    +0.000 A 
ENDROOT
BRANCH   1   8
ATOM      7  C   UNL     1      45.247   8.521  12.083  0.00  0.00    +0.000 C 
ATOM      8  O   UNL     1      46.249   7.583  11.702  0.00  0.00    +0.000 OA
ENDBRANCH   1   8
BRANCH   3   9
ATOM      9  C   UNL     1      43.613   3.373  11.517  0.00  0.00    +0.000 C 
BRANCH   9  10
ATOM     10  O   UNL     1      43.621   3.178  10.103  0.00  0.00    +0.000 OA
BRANCH  10  11
ATOM     11  C   UNL     1      44.369   2.032   9.699  0.00  0.00    +0.000 C 
BRANCH  11  12
ATOM     12  C   UNL     1      45.380   2.456   8.677  0.00  0.00    +0.000 A 
ATOM     13  C   UNL     1      46.268   1.537   8.110  0.00  0.00    +0.000 A 
ATOM     14  C   UNL     1      47.184   1.962   7.155  0.00  0.00    +0.000 A 
ATOM     15  C   UNL     1      47.176   3.298   6.791  0.00  0.00    +0.000 A 
ATOM     16  N   UNL     1      46.327   4.214   7.306  0.00  0.00    +0.000 NA
ATOM     17  C   UNL     1      45.451   3.772   8.236  0.00  0.00    +0.000 A 
ENDBRANCH  11  12
ENDBRANCH  10  11
ENDBRANCH   9  10
ENDBRANCH   3   9
BRANCH   6  18
ATOM     18  C   UNL     1      48.076   6.499  13.572  0.00  0.00    +0.000 C 
BRANCH  18  19
ATOM     19  N   UNL     1      48.040   6.481  15.016  0.00  0.00    +0.000 N 
ATOM     20  C   UNL     1      49.090   6.882  15.798  0.00  0.00    +0.000 C 
ATOM     21  O   UNL     1      50.190   7.174  15.338  0.00  0.00    +0.000 OA
ATOM     22  H   UNL     1      47.132   6.317  15.436  0.00  0.00    +0.000 HD
BRANCH  20  23
ATOM     23  C   UNL     1      48.837   6.929  17.245  0.00  0.00    +0.000 A 
ATOM     24  C   UNL     1      48.408   8.108  17.839  0.00  0.00    +0.000 A 
ATOM     25  S   UNL     1      48.127   7.965  19.516  0.00  0.00    +0.000 S 
ATOM     26  C   UNL     1      48.530   6.312  19.501  0.00  0.00    +0.000 A 
ATOM     27  N   UNL     1      48.452   5.563  20.635  0.00  0.00    +0.000 NA
ATOM     28  C   UNL     1      48.738   4.315  20.467  0.00  0.00    +0.000 A 
ATOM     29  N   UNL     1      49.113   3.753  19.274  0.00  0.00    +0.000 N 
ATOM     30  C   UNL     1      49.278   4.485  18.122  0.00  0.00    +0.000 A 
ATOM     31  O   UNL     1      49.739   3.974  17.107  0.00  0.00    +0.000 OA
ATOM     32  C   UNL     1      48.913   5.884  18.242  0.00  0.00    +0.000 A 
ATOM     33  H   UNL     1      49.358   2.775  19.217  0.00  0.00    +0.000 HD
ENDBRANCH  20  23
ENDBRANCH  18  19
ENDBRANCH   6  18
TORSDOF 8
ENDMDL
MODEL 4
REMARK VINA RESULT:    -7.673      1.669      2.657
REMARK INTER + INTRA:         -12.644
REMARK INTER:                 -11.449
REMARK INTRA:                  -1.195
REMARK UNBOUND:                -1.383
REMARK  Name = 
REMARK  9 active torsions:
REMARK  status: ('A' for Active; 'I' for Inactive)
REMARK    1  A    between atoms: C_1  and  O_2
REMARK    2  A    between atoms: O_2  and  C_3
REMARK    3  A    between atoms: C_5  and  C_6
REMARK    4  A    between atoms: C_6  and  O_7
REMARK    5  A    between atoms: O_7  and  C_8
REMARK    6  A    between atoms: C_8  and  C_9
REMARK    7  A    between atoms: C_17  and  C_18
REMARK    8  A    between atoms: C_18  and  N_19
REMARK    9  A    between atoms: C_20  and  C_22
REMARK                            x       y       z     vdW  Elec       q    Type
REMARK                         _______ _______ _______ _____ _____    ______ ____
ROOT
ATOM      1  C   UNL     1      46.184   6.913  12.246  0.00  0.00    +0.000 A 
ATOM      2  C   UNL     1      45.116   6.302  11.576  0.00  0.00    +0.000 A 
ATOM      3  C   UNL     1      44.816   4.948  11.785  0.00  0.00    +0.000 A 
ATOM      4  C   UNL     1      45.620   4.192  12.641  0.00  0.00    +0.000 A 
ATOM      5  C   UNL     1      46.688   4.790  13.304  0.00  0.00    +0.000 A 
ATOM      6  C   UNL     1      46.983   6.152  13.118  0.00  0.00    +0.000 A 
ENDROOT
BRANCH   1   8
ATOM      7  C   UNL     1      45.499   9.191  12.335  0.00  0.00    +0.000 C 
ATOM      8  O   UNL     1      46.525   8.233  12.093  0.00  0.00    +0.000 OA
ENDBRANCH   1   8
BRANCH   3   9
ATOM      9  C   UNL     1      43.592   4.331  11.158  0.00  0.00    +0.000 C 
BRANCH   9  10
ATOM     10  O   UNL     1      43.949   3.398  10.139  0.00  0.00    +0.000 OA
BRANCH  10  11
ATOM     11  C   UNL     1      44.541   4.016   8.996  0.00  0.00    +0.000 C 
BRANCH  11  12
ATOM     12  C   UNL     1      45.462   3.030   8.342  0.00  0.00    +0.000 A 
ATOM     13  C   UNL     1      46.395   3.435   7.384  0.00  0.00    +0.000 A 
ATOM     14  C   UNL     1      47.243   2.497   6.807  0.00  0.00    +0.000 A 
ATOM     15  C   UNL     1      47.133   1.178   7.216  0.00  0.00    +0.000 A 
ATOM     16  N   UNL     1      46.254   0.750   8.148  0.00  0.00    +0.000 NA
ATOM     17  C   UNL     1      45.440   1.685   8.686  0.00  0.00    +0.000 A 
ENDBRANCH  11  12
ENDBRANCH  10  11
ENDBRANCH   9  10
ENDBRANCH   3   9
BRANCH   6  18
ATOM     18  C   UNL     1      48.121   6.754  13.902  0.00  0.00    +0.000 C 
BRANCH  18  19
ATOM     19  N   UNL     1      47.957   6.581  15.327  0.00  0.00    +0.000 N 
ATOM     20  C   UNL     1      49.008   6.401  16.187  0.00  0.00    +0.000 C 
ATOM     21  O   UNL     1      50.164   6.248  15.804  0.00  0.00    +0.000 OA
ATOM     22  H   UNL     1      47.032   6.771  15.694  0.00  0.00    +0.000 HD
BRANCH  20  23
ATOM     23  C   UNL     1      48.675   6.379  17.619  0.00  0.00    +0.000 A 
ATOM     24  C   UNL     1      48.827   5.209  18.351  0.00  0.00    +0.000 A 
ATOM     25  S   UNL     1      48.432   5.382  20.002  0.00  0.00    +0.000 S 
ATOM     26  C   UNL     1      48.084   7.036  19.805  0.00  0.00    +0.000 A 
ATOM     27  N   UNL     1      47.722   7.804  20.868  0.00  0.00    +0.000 NA
ATOM     28  C   UNL     1      47.536   9.051  20.583  0.00  0.00    +0.000 A 
ATOM     29  N   UNL     1      47.661   9.592  19.330  0.00  0.00    +0.000 N 
ATOM     30  C   UNL     1      47.952   8.839  18.216  0.00  0.00    +0.000 A 
ATOM     31  O   UNL     1      47.929   9.334  17.094  0.00  0.00    +0.000 OA
ATOM     32  C   UNL     1      48.227   7.442  18.490  0.00  0.00    +0.000 A 
ATOM     33  H   UNL     1      47.468  10.569  19.167  0.00  0.00    +0.000 HD
ENDBRANCH  20  23
ENDBRANCH  18  19
ENDBRANCH   6  18
TORSDOF 8
ENDMDL
MODEL 5
REMARK VINA RESULT:    -6.930      4.341      6.405
REMARK INTER + INTRA:         -11.554
REMARK INTER:                 -10.500
REMARK INTRA:                  -1.054
REMARK UNBOUND:                -1.383
REMARK  Name = 
REMARK  9 active torsions:
REMARK  status: ('A' for Active; 'I' for Inactive)
REMARK    1  A    between atoms: C_1  and  O_2
REMARK    2  A    between atoms: O_2  and  C_3
REMARK    3  A    between atoms: C_5  and  C_6
REMARK    4  A    between atoms: C_6  and  O_7
REMARK    5  A    between atoms: O_7  and  C_8
REMARK    6  A    between atoms: C_8  and  C_9
REMARK    7  A    between atoms: C_17  and  C_18
REMARK    8  A    between atoms: C_18  and  N_19
REMARK    9  A    between atoms: C_20  and  C_22
REMARK                            x       y       z     vdW  Elec       q    Type
REMARK                         _______ _______ _______ _____ _____    ______ ____
ROOT
ATOM      1  C   UNL     1      47.043   5.258  13.414  0.00  0.00    +0.000 A 
ATOM      2  C   UNL     1      46.045   4.376  12.984  0.00  0.00    +0.000 A 
ATOM      3  C   UNL     1      45.371   4.586  11.771  0.00  0.00    +0.000 A 
ATOM      4  C   UNL     1      45.676   5.715  11.006  0.00  0.00    +0.000 A 
ATOM      5  C   UNL     1      46.661   6.601  11.430  0.00  0.00    +0.000 A 
ATOM      6  C   UNL     1      47.356   6.386  12.634  0.00  0.00    +0.000 A 
ENDROOT
BRANCH   1   8
ATOM      7  C   UNL     1      47.168   4.248  15.566  0.00  0.00    +0.000 C 
ATOM      8  O   UNL     1      47.744   5.105  14.584  0.00  0.00    +0.000 OA
ENDBRANCH   1   8
BRANCH   3   9
ATOM      9  C   UNL     1      44.389   3.567  11.255  0.00  0.00    +0.000 C 
BRANCH   9  10
ATOM     10  O   UNL     1      44.435   3.481   9.831  0.00  0.00    +0.000 OA
BRANCH  10  11
ATOM     11  C   UNL     1      44.703   2.162   9.358  0.00  0.00    +0.000 C 
BRANCH  11  12
ATOM     12  C   UNL     1      45.725   2.244   8.264  0.00  0.00    +0.000 A 
ATOM     13  C   UNL     1      45.916   3.423   7.538  0.00  0.00    +0.000 A 
ATOM     14  C   UNL     1      46.882   3.469   6.539  0.00  0.00    +0.000 A 
ATOM     15  C   UNL     1      47.634   2.329   6.305  0.00  0.00    +0.000 A 
ATOM     16  N   UNL     1      47.489   1.176   6.993  0.00  0.00    +0.000 NA
ATOM     17  C   UNL     1      46.537   1.161   7.954  0.00  0.00    +0.000 A 
ENDBRANCH  11  12
ENDBRANCH  10  11
ENDBRANCH   9  10
ENDBRANCH   3   9
BRANCH   6  18
ATOM     18  C   UNL     1      48.447   7.354  13.016  0.00  0.00    +0.000 C 
BRANCH  18  19
ATOM     19  N   UNL     1      49.377   7.586  11.935  0.00  0.00    +0.000 N 
ATOM     20  C   UNL     1      50.576   8.228  12.100  0.00  0.00    +0.000 C 
ATOM     21  O   UNL     1      50.903   8.766  13.154  0.00  0.00    +0.000 OA
ATOM     22  H   UNL     1      49.182   7.098  11.068  0.00  0.00    +0.000 HD
BRANCH  20  23
ATOM     23  C   UNL     1      51.460   8.258  10.927  0.00  0.00    +0.000 A 
ATOM     24  C   UNL     1      51.886   7.072  10.346  0.00  0.00    +0.000 A 
ATOM     25  S   UNL     1      52.873   7.300   8.972  0.00  0.00    +0.000 S 
ATOM     26  C   UNL     1      52.732   8.993   9.082  0.00  0.00    +0.000 A 
ATOM     27  N   UNL     1      53.317   9.803   8.158  0.00  0.00    +0.000 NA
ATOM     28  C   UNL     1      53.087  11.062   8.336  0.00  0.00    +0.000 A 
ATOM     29  N   UNL     1      52.342  11.583   9.362  0.00  0.00    +0.000 N 
ATOM     30  C   UNL     1      51.797  10.807  10.358  0.00  0.00    +0.000 A 
ATOM     31  O   UNL     1      51.248  11.317  11.329  0.00  0.00    +0.000 OA
ATOM     32  C   UNL     1      51.977   9.380  10.175  0.00  0.00    +0.000 A 
ATOM     33  H   UNL     1      52.229  12.581   9.465  0.00  0.00    +0.000 HD
ENDBRANCH  20  23
ENDBRANCH  18  19
ENDBRANCH   6  18
TORSDOF 8
ENDMDL
MODEL 6
REMARK VINA RESULT:    -6.794      2.902      4.051
REMARK INTER + INTRA:         -11.354
REMARK INTER:                 -10.146
REMARK INTRA:                  -1.208
REMARK UNBOUND:                -1.383
REMARK  Name = 
REMARK  9 active torsions:
REMARK  status: ('A' for Active; 'I' for Inactive)
REMARK    1  A    between atoms: C_1  and  O_2
REMARK    2  A    between atoms: O_2  and  C_3
REMARK    3  A    between atoms: C_5  and  C_6
REMARK    4  A    between atoms: C_6  and  O_7
REMARK    5  A    between atoms: O_7  and  C_8
REMARK    6  A    between atoms: C_8  and  C_9
REMARK    7  A    between atoms: C_17  and  C_18
REMARK    8  A    between atoms: C_18  and  N_19
REMARK    9  A    between atoms: C_20  and  C_22
REMARK                            x       y       z     vdW  Elec       q    Type
REMARK                         _______ _______ _______ _____ _____    ______ ____
ROOT
ATOM      1  C   UNL     1      47.846   5.129  16.129  0.00  0.00    +0.000 A 
ATOM      2  C   UNL     1      46.964   4.550  15.208  0.00  0.00    +0.000 A 
ATOM      3  C   UNL     1      46.919   4.994  13.878  0.00  0.00    +0.000 A 
ATOM      4  C   UNL     1      47.736   6.055  13.482  0.00  0.00    +0.000 A 
ATOM      5  C   UNL     1      48.610   6.641  14.393  0.00  0.00    +0.000 A 
ATOM      6  C   UNL     1      48.677   6.188  15.722  0.00  0.00    +0.000 A 
ENDROOT
BRANCH   1   8
ATOM      7  C   UNL     1      46.979   5.270  18.341  0.00  0.00    +0.000 C 
ATOM      8  O   UNL     1      47.945   4.736  17.440  0.00  0.00    +0.000 OA
ENDBRANCH   1   8
BRANCH   3   9
ATOM      9  C   UNL     1      46.059   4.284  12.864  0.00  0.00    +0.000 C 
BRANCH   9  10
ATOM     10  O   UNL     1      45.242   5.207  12.144  0.00  0.00    +0.000 OA
BRANCH  10  11
ATOM     11  C   UNL     1      44.224   4.571  11.373  0.00  0.00    +0.000 C 
BRANCH  11  12
ATOM     12  C   UNL     1      44.838   4.039  10.113  0.00  0.00    +0.000 A 
ATOM     13  C   UNL     1      44.798   2.676   9.806  0.00  0.00    +0.000 A 
ATOM     14  C   UNL     1      45.366   2.218   8.623  0.00  0.00    +0.000 A 
ATOM     15  C   UNL     1      45.953   3.145   7.779  0.00  0.00    +0.000 A 
ATOM     16  N   UNL     1      46.002   4.471   8.033  0.00  0.00    +0.000 NA
ATOM     17  C   UNL     1      45.446   4.885   9.194  0.00  0.00    +0.000 A 
ENDBRANCH  11  12
ENDBRANCH  10  11
ENDBRANCH   9  10
ENDBRANCH   3   9
BRANCH   6  18
ATOM     18  C   UNL     1      49.679   6.829  16.649  0.00  0.00    +0.000 C 
BRANCH  18  19
ATOM     19  N   UNL     1      50.729   5.916  17.038  0.00  0.00    +0.000 N 
ATOM     20  C   UNL     1      50.949   5.533  18.334  0.00  0.00    +0.000 C 
ATOM     21  O   UNL     1      50.352   6.027  19.286  0.00  0.00    +0.000 OA
ATOM     22  H   UNL     1      51.197   5.430  16.282  0.00  0.00    +0.000 HD
BRANCH  20  23
ATOM     23  C   UNL     1      51.969   4.494  18.537  0.00  0.00    +0.000 A 
ATOM     24  C   UNL     1      53.102   4.769  19.291  0.00  0.00    +0.000 A 
ATOM     25  S   UNL     1      54.153   3.434  19.453  0.00  0.00    +0.000 S 
ATOM     26  C   UNL     1      53.112   2.431  18.556  0.00  0.00    +0.000 A 
ATOM     27  N   UNL     1      53.407   1.118  18.358  0.00  0.00    +0.000 NA
ATOM     28  C   UNL     1      52.505   0.464  17.702  0.00  0.00    +0.000 A 
ATOM     29  N   UNL     1      51.346   1.010  17.214  0.00  0.00    +0.000 N 
ATOM     30  C   UNL     1      51.044   2.346  17.326  0.00  0.00    +0.000 A 
ATOM     31  O   UNL     1      50.062   2.823  16.766  0.00  0.00    +0.000 OA
ATOM     32  C   UNL     1      51.997   3.115  18.105  0.00  0.00    +0.000 A 
ATOM     33  H   UNL     1      50.697   0.452  16.679  0.00  0.00    +0.000 HD
ENDBRANCH  20  23
ENDBRANCH  18  19
ENDBRANCH   6  18
TORSDOF 8
ENDMDL
MODEL 7
REMARK VINA RESULT:    -6.766      3.702      7.865
REMARK INTER + INTRA:         -11.313
REMARK INTER:                  -9.117
REMARK INTRA:                  -2.196
REMARK UNBOUND:                -1.383
REMARK  Name = 
REMARK  9 active torsions:
REMARK  status: ('A' for Active; 'I' for Inactive)
REMARK    1  A    between atoms: C_1  and  O_2
REMARK    2  A    between atoms: O_2  and  C_3
REMARK    3  A    between atoms: C_5  and  C_6
REMARK    4  A    between atoms: C_6  and  O_7
REMARK    5  A    between atoms: O_7  and  C_8
REMARK    6  A    between atoms: C_8  and  C_9
REMARK    7  A    between atoms: C_17  and  C_18
REMARK    8  A    between atoms: C_18  and  N_19
REMARK    9  A    between atoms: C_20  and  C_22
REMARK                            x       y       z     vdW  Elec       q    Type
REMARK                         _______ _______ _______ _____ _____    ______ ____
ROOT
ATOM      1  C   UNL     1      49.098   8.433  17.287  0.00  0.00    +0.000 A 
ATOM      2  C   UNL     1      50.046   7.674  17.984  0.00  0.00    +0.000 A 
ATOM      3  C   UNL     1      51.038   6.956  17.300  0.00  0.00    +0.000 A 
ATOM      4  C   UNL     1      51.052   6.968  15.904  0.00  0.00    +0.000 A 
ATOM      5  C   UNL     1      50.109   7.713  15.202  0.00  0.00    +0.000 A 
ATOM      6  C   UNL     1      49.124   8.453  15.880  0.00  0.00    +0.000 A 
ENDROOT
BRANCH   1   8
ATOM      7  C   UNL     1      47.427   8.537  18.978  0.00  0.00    +0.000 C 
ATOM      8  O   UNL     1      48.108   9.163  17.895  0.00  0.00    +0.000 OA
ENDBRANCH   1   8
BRANCH   3   9
ATOM      9  C   UNL     1      52.128   6.244  18.060  0.00  0.00    +0.000 C 
BRANCH   9  10
ATOM     10  O   UNL     1      52.265   4.893  17.621  0.00  0.00    +0.000 OA
BRANCH  10  11
ATOM     11  C   UNL     1      51.602   3.957  18.470  0.00  0.00    +0.000 C 
BRANCH  11  12
ATOM     12  C   UNL     1      50.437   3.377  17.726  0.00  0.00    +0.000 A 
ATOM     13  C   UNL     1      49.174   3.972  17.778  0.00  0.00    +0.000 A 
ATOM     14  C   UNL     1      48.119   3.415  17.065  0.00  0.00    +0.000 A 
ATOM     15  C   UNL     1      48.367   2.278  16.313  0.00  0.00    +0.000 A 
ATOM     16  N   UNL     1      49.575   1.681  16.227  0.00  0.00    +0.000 NA
ATOM     17  C   UNL     1      50.580   2.243  16.936  0.00  0.00    +0.000 A 
ENDBRANCH  11  12
ENDBRANCH  10  11
ENDBRANCH   9  10
ENDBRANCH   3   9
BRANCH   6  18
ATOM     18  C   UNL     1      48.161   9.281  15.067  0.00  0.00    +0.000 C 
BRANCH  18  19
ATOM     19  N   UNL     1      47.136   8.476  14.445  0.00  0.00    +0.000 N 
ATOM     20  C   UNL     1      47.062   8.267  13.093  0.00  0.00    +0.000 C 
ATOM     21  O   UNL     1      47.788   8.845  12.290  0.00  0.00    +0.000 OA
ATOM     22  H   UNL     1      46.563   7.924  15.072  0.00  0.00    +0.000 HD
BRANCH  20  23
ATOM     23  C   UNL     1      46.041   7.313  12.641  0.00  0.00    +0.000 A 
ATOM     24  C   UNL     1      44.971   7.750  11.872  0.00  0.00    +0.000 A 
ATOM     25  S   UNL     1      43.909   6.499  11.405  0.00  0.00    +0.000 S 
ATOM     26  C   UNL     1      44.863   5.322  12.180  0.00  0.00    +0.000 A 
ATOM     27  N   UNL     1      44.528   4.004  12.124  0.00  0.00    +0.000 NA
ATOM     28  C   UNL     1      45.367   3.218  12.714  0.00  0.00    +0.000 A 
ATOM     29  N   UNL     1      46.498   3.632  13.369  0.00  0.00    +0.000 N 
ATOM     30  C   UNL     1      46.833   4.958  13.515  0.00  0.00    +0.000 A 
ATOM     31  O   UNL     1      47.780   5.298  14.216  0.00  0.00    +0.000 OA
ATOM     32  C   UNL     1      45.955   5.880  12.821  0.00  0.00    +0.000 A 
ATOM     33  H   UNL     1      47.095   2.969  13.840  0.00  0.00    +0.000 HD
ENDBRANCH  20  23
ENDBRANCH  18  19
ENDBRANCH   6  18
TORSDOF 8
ENDMDL
MODEL 8
REMARK VINA RESULT:    -6.625      3.792      9.623
REMARK INTER + INTRA:         -11.106
REMARK INTER:                  -9.757
REMARK INTRA:                  -1.350
REMARK UNBOUND:                -1.383
REMARK  Name = 
REMARK  9 active torsions:
REMARK  status: ('A' for Active; 'I' for Inactive)
REMARK    1  A    between atoms: C_1  and  O_2
REMARK    2  A    between atoms: O_2  and  C_3
REMARK    3  A    between atoms: C_5  and  C_6
REMARK    4  A    between atoms: C_6  and  O_7
REMARK    5  A    between atoms: O_7  and  C_8
REMARK    6  A    between atoms: C_8  and  C_9
REMARK    7  A    between atoms: C_17  and  C_18
REMARK    8  A    between atoms: C_18  and  N_19
REMARK    9  A    between atoms: C_20  and  C_22
REMARK                            x       y       z     vdW  Elec       q    Type
REMARK                         _______ _______ _______ _____ _____    ______ ____
ROOT
ATOM      1  C   UNL     1      49.604   3.906  17.806  0.00  0.00    +0.000 A 
ATOM      2  C   UNL     1      50.223   4.490  18.917  0.00  0.00    +0.000 A 
ATOM      3  C   UNL     1      49.485   5.258  19.831  0.00  0.00    +0.000 A 
ATOM      4  C   UNL     1      48.124   5.473  19.602  0.00  0.00    +0.000 A 
ATOM      5  C   UNL     1      47.503   4.903  18.496  0.00  0.00    +0.000 A 
ATOM      6  C   UNL     1      48.230   4.114  17.586  0.00  0.00    +0.000 A 
ENDROOT
BRANCH   1   8
ATOM      7  C   UNL     1      51.062   2.072  17.386  0.00  0.00    +0.000 C 
ATOM      8  O   UNL     1      50.266   3.139  16.880  0.00  0.00    +0.000 OA
ENDBRANCH   1   8
BRANCH   3   9
ATOM      9  C   UNL     1      50.131   5.778  21.089  0.00  0.00    +0.000 C 
BRANCH   9  10
ATOM     10  O   UNL     1      49.392   6.870  21.635  0.00  0.00    +0.000 OA
BRANCH  10  11
ATOM     11  C   UNL     1      49.986   8.139  21.366  0.00  0.00    +0.000 C 
BRANCH  11  12
ATOM     12  C   UNL     1      49.192   8.821  20.293  0.00  0.00    +0.000 A 
ATOM     13  C   UNL     1      47.850   9.160  20.487  0.00  0.00    +0.000 A 
ATOM     14  C   UNL     1      47.148   9.804  19.476  0.00  0.00    +0.000 A 
ATOM     15  C   UNL     1      47.818  10.096  18.299  0.00  0.00    +0.000 A 
ATOM     16  N   UNL     1      49.116   9.796  18.077  0.00  0.00    +0.000 NA
ATOM     17  C   UNL     1      49.771   9.165  19.078  0.00  0.00    +0.000 A 
ENDBRANCH  11  12
ENDBRANCH  10  11
ENDBRANCH   9  10
ENDBRANCH   3   9
BRANCH   6  18
ATOM     18  C   UNL     1      47.492   3.482  16.434  0.00  0.00    +0.000 C 
BRANCH  18  19
ATOM     19  N   UNL     1      46.981   4.464  15.505  0.00  0.00    +0.000 N 
ATOM     20  C   UNL     1      46.693   4.181  14.196  0.00  0.00    +0.000 C 
ATOM     21  O   UNL     1      46.961   3.103  13.674  0.00  0.00    +0.000 OA
ATOM     22  H   UNL     1      46.678   5.342  15.909  0.00  0.00    +0.000 HD
BRANCH  20  23
ATOM     23  C   UNL     1      46.053   5.257  13.428  0.00  0.00    +0.000 A 
ATOM     24  C   UNL     1      46.749   6.427  13.155  0.00  0.00    +0.000 A 
ATOM     25  S   UNL     1      45.863   7.545  12.218  0.00  0.00    +0.000 S 
ATOM     26  C   UNL     1      44.533   6.489  12.110  0.00  0.00    +0.000 A 
ATOM     27  N   UNL     1      43.429   6.828  11.390  0.00  0.00    +0.000 NA
ATOM     28  C   UNL     1      42.518   5.913  11.353  0.00  0.00    +0.000 A 
ATOM     29  N   UNL     1      42.604   4.699  11.986  0.00  0.00    +0.000 N 
ATOM     30  C   UNL     1      43.667   4.347  12.784  0.00  0.00    +0.000 A 
ATOM     31  O   UNL     1      43.652   3.308  13.436  0.00  0.00    +0.000 OA
ATOM     32  C   UNL     1      44.745   5.316  12.812  0.00  0.00    +0.000 A 
ATOM     33  H   UNL     1      41.841   4.040  11.946  0.00  0.00    +0.000 HD
ENDBRANCH  20  23
ENDBRANCH  18  19
ENDBRANCH   6  18
TORSDOF 8
ENDMDL
MODEL 9
REMARK VINA RESULT:    -6.551      1.663      2.512
REMARK INTER + INTRA:         -10.998
REMARK INTER:                  -9.816
REMARK INTRA:                  -1.182
REMARK UNBOUND:                -1.383
REMARK  Name = 
REMARK  9 active torsions:
REMARK  status: ('A' for Active; 'I' for Inactive)
REMARK    1  A    between atoms: C_1  and  O_2
REMARK    2  A    between atoms: O_2  and  C_3
REMARK    3  A    between atoms: C_5  and  C_6
REMARK    4  A    between atoms: C_6  and  O_7
REMARK    5  A    between atoms: O_7  and  C_8
REMARK    6  A    between atoms: C_8  and  C_9
REMARK    7  A    between atoms: C_17  and  C_18
REMARK    8  A    between atoms: C_18  and  N_19
REMARK    9  A    between atoms: C_20  and  C_22
REMARK                            x       y       z     vdW  Elec       q    Type
REMARK                         _______ _______ _______ _____ _____    ______ ____
ROOT
ATOM      1  C   UNL     1      47.358   7.940  13.015  0.00  0.00    +0.000 A 
ATOM      2  C   UNL     1      46.108   7.607  12.478  0.00  0.00    +0.000 A 
ATOM      3  C   UNL     1      45.585   6.313  12.619  0.00  0.00    +0.000 A 
ATOM      4  C   UNL     1      46.343   5.335  13.267  0.00  0.00    +0.000 A 
ATOM      5  C   UNL     1      47.590   5.655  13.796  0.00  0.00    +0.000 A 
ATOM      6  C   UNL     1      48.112   6.955  13.678  0.00  0.00    +0.000 A 
ENDROOT
BRANCH   1   8
ATOM      7  C   UNL     1      48.541   9.514  11.679  0.00  0.00    +0.000 C 
ATOM      8  O   UNL     1      47.922   9.187  12.919  0.00  0.00    +0.000 OA
ENDBRANCH   1   8
BRANCH   3   9
ATOM      9  C   UNL     1      44.188   5.998  12.150  0.00  0.00    +0.000 C 
BRANCH   9  10
ATOM     10  O   UNL     1      44.178   5.627  10.772  0.00  0.00    +0.000 OA
BRANCH  10  11
ATOM     11  C   UNL     1      43.754   4.281  10.556  0.00  0.00    +0.000 C 
BRANCH  11  12
ATOM     12  C   UNL     1      44.662   3.650   9.544  0.00  0.00    +0.000 A 
ATOM     13  C   UNL     1      45.398   4.427   8.645  0.00  0.00    +0.000 A 
ATOM     14  C   UNL     1      46.241   3.809   7.729  0.00  0.00    +0.000 A 
ATOM     15  C   UNL     1      46.325   2.427   7.747  0.00  0.00    +0.000 A 
ATOM     16  N   UNL     1      45.640   1.642   8.606  0.00  0.00    +0.000 NA
ATOM     17  C   UNL     1      44.824   2.272   9.482  0.00  0.00    +0.000 A 
ENDBRANCH  11  12
ENDBRANCH  10  11
ENDBRANCH   9  10
ENDBRANCH   3   9
BRANCH   6  18
ATOM     18  C   UNL     1      49.446   7.254  14.315  0.00  0.00    +0.000 C 
BRANCH  18  19
ATOM     19  N   UNL     1      49.341   7.444  15.744  0.00  0.00    +0.000 N 
ATOM     20  C   UNL     1      49.747   6.509  16.658  0.00  0.00    +0.000 C 
ATOM     21  O   UNL     1      50.119   5.383  16.338  0.00  0.00    +0.000 OA
ATOM     22  H   UNL     1      49.110   8.382  16.051  0.00  0.00    +0.000 HD
BRANCH  20  23
ATOM     23  C   UNL     1      49.698   6.919  18.068  0.00  0.00    +0.000 A 
ATOM     24  C   UNL     1      50.615   7.837  18.558  0.00  0.00    +0.000 A 
ATOM     25  S   UNL     1      50.381   8.225  20.204  0.00  0.00    +0.000 S 
ATOM     26  C   UNL     1      49.020   7.209  20.308  0.00  0.00    +0.000 A 
ATOM     27  N   UNL     1      48.306   7.114  21.463  0.00  0.00    +0.000 NA
ATOM     28  C   UNL     1      47.270   6.346  21.385  0.00  0.00    +0.000 A 
ATOM     29  N   UNL     1      46.896   5.651  20.264  0.00  0.00    +0.000 N 
ATOM     30  C   UNL     1      47.629   5.659  19.101  0.00  0.00    +0.000 A 
ATOM     31  O   UNL     1      47.335   4.925  18.162  0.00  0.00    +0.000 OA
ATOM     32  C   UNL     1      48.771   6.552  19.116  0.00  0.00    +0.000 A 
ATOM     33  H   UNL     1      46.093   5.039  20.279  0.00  0.00    +0.000 HD
ENDBRANCH  20  23
ENDBRANCH  18  19
ENDBRANCH   6  18
TORSDOF 8
ENDMDL
