MODEL 1
REMARK VINA RESULT:    -8.082      0.000      0.000
REMARK INTER + INTRA:         -12.296
REMARK INTER:                 -11.390
REMARK INTRA:                  -0.906
REMARK UNBOUND:                -0.906
REMARK  Name = 
REMARK  7 active torsions:
REMARK  status: ('A' for Active; 'I' for Inactive)
REMARK    1  A    between atoms: C_2  and  C_4
REMARK    2  A    between atoms: C_7  and  O_8
REMARK    3  A    between atoms: O_8  and  C_9
REMARK    4  A    between atoms: C_9  and  C_10
REMARK    5  A    between atoms: C_10  and  C_11
REMARK    6  A    between atoms: C_15  and  O_16
REMARK    7  A    between atoms: O_16  and  C_17
REMARK                            x       y       z     vdW  Elec       q    Type
REMARK                         _______ _______ _______ _____ _____    ______ ____
ROOT
ATOM      1  C   UNL     1      43.830   3.160  11.866  0.00  0.00    +0.000 C 
ENDROOT
BRANCH   1   2
ATOM      2  O   UNL     1      43.437   3.497  10.530  0.00  0.00    +0.000 OA
BRANCH   2   6
ATOM      3  C   UNL     1      46.299   2.598   7.718  0.00  0.00    +0.000 A 
ATOM      4  C   UNL     1      45.895   3.924   7.793  0.00  0.00    +0.000 A 
ATOM      5  C   UNL     1      44.922   4.271   8.728  0.00  0.00    +0.000 A 
ATOM      6  C   UNL     1      44.382   3.294   9.562  0.00  0.00    +0.000 A 
ATOM      7  C   UNL     1      44.848   1.989   9.402  0.00  0.00    +0.000 A 
ATOM      8  N   UNL     1      45.791   1.607   8.501  0.00  0.00    +0.000 NA
BRANCH   3  10
ATOM      9  N   UNL     1      47.457   3.016   5.624  0.00  0.00    +0.000 N 
ATOM     10  C   UNL     1      47.360   2.218   6.732  0.00  0.00    +0.000 C 
ATOM     11  O   UNL     1      48.103   1.261   6.899  0.00  0.00    +0.000 OA
ATOM     12  H   UNL     1      48.182   2.827   4.947  0.00  0.00    +0.000 HD
ATOM     13  H   UNL     1      46.873   3.839   5.545  0.00  0.00    +0.000 HD
ENDBRANCH   3  10
ENDBRANCH   2   6
ENDBRANCH   1   2
BRANCH   1  14
ATOM     14  C   UNL     1      43.834   4.412  12.743  0.00  0.00    +0.000 C 
BRANCH  14  15
ATOM     15  C   UNL     1      45.227   4.980  12.863  0.00  0.00    +0.000 A 
ATOM     16  C   UNL     1      45.707   5.908  11.931  0.00  0.00    +0.000 A 
ATOM     17  C   UNL     1      46.967   6.486  12.098  0.00  0.00    +0.000 A 
ATOM     18  C   UNL     1      47.765   6.149  13.197  0.00  0.00    +0.000 A 
ATOM     19  C   UNL     1      47.302   5.217  14.122  0.00  0.00    +0.000 A 
ATOM     20  C   UNL     1      46.038   4.643  13.957  0.00  0.00    +0.000 A 
BRANCH  19  21
ATOM     21  O   UNL     1      47.975   4.828  15.255  0.00  0.00    +0.000 OA
BRANCH  21  22
ATOM     22  C   UNL     1      47.265   4.102  16.286  0.00  0.00    +0.000 C 
ATOM     23  C   UNL     1      47.263   4.691  17.710  0.00  0.00    +0.000 C 
ATOM     24  N   UNL     1      47.770   3.425  18.258  0.00  0.00    +0.000 NA
ATOM     25  C   UNL     1      48.045   2.921  16.905  0.00  0.00    +0.000 C 
ATOM     26  H   UNL     1      47.078   2.882  18.773  0.00  0.00    +0.000 HD
ENDBRANCH  21  22
ENDBRANCH  19  21
ENDBRANCH  14  15
ENDBRANCH   1  14
TORSDOF 7
ENDMDL
MODEL 2
REMARK VINA RESULT:    -7.510      2.975      4.119
REMARK INTER + INTRA:         -11.490
REMARK INTER:                 -10.519
REMARK INTRA:                  -0.971
REMARK UNBOUND:                -0.906
REMARK  Name = 
REMARK  7 active torsions:
REMARK  status: ('A' for Active; 'I' for Inactive)
REMARK    1  A    between atoms: C_2  and  C_4
REMARK    2  A    between atoms: C_7  and  O_8
REMARK    3  A    between atoms: O_8  and  C_9
REMARK    4  A    between atoms: C_9  and  C_10
REMARK    5  A    between atoms: C_10  and  C_11
REMARK    6  A    between atoms: C_15  and  O_16
REMARK    7  A    between atoms: O_16  and  C_17
REMARK                            x       y       z     vdW  Elec       q    Type
REMARK                         _______ _______ _______ _____ _____    ______ ____
ROOT
ATOM      1  C   UNL     1      43.684   2.820  11.888  0.00  0.00    +0.000 C 
ENDROOT
BRANCH   1   2
ATOM      2  O   UNL     1      43.346   3.283  10.575  0.00  0.00    +0.000 OA
BRANCH   2   6
ATOM      3  C   UNL     1      46.298   2.610   7.792  0.00  0.00    +0.000 A 
ATOM      4  C   UNL     1      45.950   3.934   8.023  0.00  0.00    +0.000 A 
ATOM      5  C   UNL     1      44.950   4.207   8.954  0.00  0.00    +0.000 A 
ATOM      6  C   UNL     1      44.327   3.159   9.629  0.00  0.00    +0.000 A 
ATOM      7  C   UNL     1      44.741   1.863   9.319  0.00  0.00    +0.000 A 
ATOM      8  N   UNL     1      45.708   1.554   8.415  0.00  0.00    +0.000 NA
BRANCH   3  10
ATOM      9  N   UNL     1      47.447   3.128   5.716  0.00  0.00    +0.000 N 
ATOM     10  C   UNL     1      47.386   2.308   6.809  0.00  0.00    +0.000 C 
ATOM     11  O   UNL     1      48.181   1.391   6.968  0.00  0.00    +0.000 OA
ATOM     12  H   UNL     1      48.187   2.992   5.043  0.00  0.00    +0.000 HD
ATOM     13  H   UNL     1      46.819   3.919   5.645  0.00  0.00    +0.000 HD
ENDBRANCH   3  10
ENDBRANCH   2   6
ENDBRANCH   1   2
BRANCH   1  14
ATOM     14  C   UNL     1      43.507   3.949  12.904  0.00  0.00    +0.000 C 
BRANCH  14  15
ATOM     15  C   UNL     1      44.616   4.964  12.779  0.00  0.00    +0.000 A 
ATOM     16  C   UNL     1      45.936   4.629  13.107  0.00  0.00    +0.000 A 
ATOM     17  C   UNL     1      46.966   5.552  12.910  0.00  0.00    +0.000 A 
ATOM     18  C   UNL     1      46.695   6.819  12.383  0.00  0.00    +0.000 A 
ATOM     19  C   UNL     1      45.385   7.167  12.067  0.00  0.00    +0.000 A 
ATOM     20  C   UNL     1      44.355   6.240  12.258  0.00  0.00    +0.000 A 
BRANCH  19  21
ATOM     21  O   UNL     1      44.996   8.363  11.516  0.00  0.00    +0.000 OA
BRANCH  21  22
ATOM     22  C   UNL     1      44.990   9.554  12.339  0.00  0.00    +0.000 C 
ATOM     23  C   UNL     1      44.171  10.764  11.849  0.00  0.00    +0.000 C 
ATOM     24  N   UNL     1      45.349  11.635  11.963  0.00  0.00    +0.000 NA
ATOM     25  C   UNL     1      46.221  10.471  12.167  0.00  0.00    +0.000 C 
ATOM     26  H   UNL     1      45.320  12.279  12.753  0.00  0.00    +0.000 HD
ENDBRANCH  21  22
ENDBRANCH  19  21
ENDBRANCH  14  15
ENDBRANCH   1  14
TORSDOF 7
ENDMDL
MODEL 3
REMARK VINA RESULT:    -7.377      2.413      2.756
REMARK INTER + INTRA:         -11.301
REMARK INTER:                 -10.308
REMARK INTRA:                  -0.993
REMARK UNBOUND:                -0.906
REMARK  Name = 
REMARK  7 active torsions:
REMARK  status: ('A' for Active; 'I' for Inactive)
REMARK    1  A    between atoms: C_2  and  C_4
REMARK    2  A    between atoms: C_7  and  O_8
REMARK    3  A    between atoms: O_8  and  C_9
REMARK    4  A    between atoms: C_9  and  C_10
REMARK    5  A    between atoms: C_10  and  C_11
REMARK    6  A    between atoms: C_15  and  O_16
REMARK    7  A    between atoms: O_16  and  C_17
REMARK                            x       y       z     vdW  Elec       q    Type
REMARK                         _______ _______ _______ _____ _____    ______ ____
ROOT
ATOM      1  C   UNL     1      43.774   3.028  11.956  0.00  0.00    +0.000 C 
ENDROOT
BRANCH   1   2
ATOM      2  O   UNL     1      43.333   3.223  10.606  0.00  0.00    +0.000 OA
BRANCH   2   6
ATOM      3  C   UNL     1      46.256   2.655   7.770  0.00  0.00    +0.000 A 
ATOM      4  C   UNL     1      45.894   3.968   8.037  0.00  0.00    +0.000 A 
ATOM      5  C   UNL     1      44.903   4.205   8.987  0.00  0.00    +0.000 A 
ATOM      6  C   UNL     1      44.303   3.133   9.645  0.00  0.00    +0.000 A 
ATOM      7  C   UNL     1      44.730   1.851   9.299  0.00  0.00    +0.000 A 
ATOM      8  N   UNL     1      45.689   1.576   8.377  0.00  0.00    +0.000 NA
BRANCH   3  10
ATOM      9  N   UNL     1      47.276   3.130   5.617  0.00  0.00    +0.000 N 
ATOM     10  C   UNL     1      47.336   2.390   6.767  0.00  0.00    +0.000 C 
ATOM     11  O   UNL     1      48.225   1.570   6.956  0.00  0.00    +0.000 OA
ATOM     12  H   UNL     1      48.002   3.018   4.925  0.00  0.00    +0.000 HD
ATOM     13  H   UNL     1      46.568   3.846   5.517  0.00  0.00    +0.000 HD
ENDBRANCH   3  10
ENDBRANCH   2   6
ENDBRANCH   1   2
BRANCH   1  14
ATOM     14  C   UNL     1      43.463   4.269  12.793  0.00  0.00    +0.000 C 
BRANCH  14  15
ATOM     15  C   UNL     1      44.414   5.393  12.461  0.00  0.00    +0.000 A 
ATOM     16  C   UNL     1      43.980   6.509  11.735  0.00  0.00    +0.000 A 
ATOM     17  C   UNL     1      44.848   7.579  11.504  0.00  0.00    +0.000 A 
ATOM     18  C   UNL     1      46.157   7.552  11.995  0.00  0.00    +0.000 A 
ATOM     19  C   UNL     1      46.602   6.441  12.706  0.00  0.00    +0.000 A 
ATOM     20  C   UNL     1      45.730   5.373  12.942  0.00  0.00    +0.000 A 
BRANCH  19  21
ATOM     21  O   UNL     1      47.850   6.308  13.265  0.00  0.00    +0.000 OA
BRANCH  21  22
ATOM     22  C   UNL     1      48.709   7.469  13.365  0.00  0.00    +0.000 C 
ATOM     23  C   UNL     1      49.876   7.589  12.366  0.00  0.00    +0.000 C 
ATOM     24  N   UNL     1      50.832   7.755  13.470  0.00  0.00    +0.000 NA
ATOM     25  C   UNL     1      49.805   7.376  14.450  0.00  0.00    +0.000 C 
ATOM     26  H   UNL     1      51.185   8.705  13.581  0.00  0.00    +0.000 HD
ENDBRANCH  21  22
ENDBRANCH  19  21
ENDBRANCH  14  15
ENDBRANCH   1  14
TORSDOF 7
ENDMDL
MODEL 4
REMARK VINA RESULT:    -7.342      1.869      7.840
REMARK INTER + INTRA:         -11.252
REMARK INTER:                 -10.588
REMARK INTRA:                  -0.664
REMARK UNBOUND:                -0.906
REMARK  Name = 
REMARK  7 active torsions:
REMARK  status: ('A' for Active; 'I' for Inactive)
REMARK    1  A    between atoms: C_2  and  C_4
REMARK    2  A    between atoms: C_7  and  O_8
REMARK    3  A    between atoms: O_8  and  C_9
REMARK    4  A    between atoms: C_9  and  C_10
REMARK    5  A    between atoms: C_10  and  C_11
REMARK    6  A    between atoms: C_15  and  O_16
REMARK    7  A    between atoms: O_16  and  C_17
REMARK                            x       y       z     vdW  Elec       q    Type
REMARK                         _______ _______ _______ _____ _____    ______ ____
ROOT
ATOM      1  C   UNL     1      45.285   6.267  12.580  0.00  0.00    +0.000 C 
ENDROOT
BRANCH   1   2
ATOM      2  O   UNL     1      46.701   6.075  12.677  0.00  0.00    +0.000 OA
BRANCH   2   6
ATOM      3  C   UNL     1      47.890   3.633  15.765  0.00  0.00    +0.000 A 
ATOM      4  C   UNL     1      48.035   5.000  15.960  0.00  0.00    +0.000 A 
ATOM      5  C   UNL     1      47.650   5.863  14.937  0.00  0.00    +0.000 A 
ATOM      6  C   UNL     1      47.131   5.345  13.752  0.00  0.00    +0.000 A 
ATOM      7  C   UNL     1      47.034   3.958  13.649  0.00  0.00    +0.000 A 
ATOM      8  N   UNL     1      47.402   3.081  14.620  0.00  0.00    +0.000 NA
BRANCH   3  10
ATOM      9  N   UNL     1      47.699   2.935  18.083  0.00  0.00    +0.000 N 
ATOM     10  C   UNL     1      48.280   2.697  16.867  0.00  0.00    +0.000 C 
ATOM     11  O   UNL     1      49.062   1.771  16.699  0.00  0.00    +0.000 OA
ATOM     12  H   UNL     1      47.898   2.309  18.850  0.00  0.00    +0.000 HD
ATOM     13  H   UNL     1      47.006   3.667  18.175  0.00  0.00    +0.000 HD
ENDBRANCH   3  10
ENDBRANCH   2   6
ENDBRANCH   1   2
BRANCH   1  14
ATOM     14  C   UNL     1      44.880   6.457  11.118  0.00  0.00    +0.000 C 
BRANCH  14  15
ATOM     15  C   UNL     1      44.905   5.142  10.378  0.00  0.00    +0.000 A 
ATOM     16  C   UNL     1      44.200   4.033  10.861  0.00  0.00    +0.000 A 
ATOM     17  C   UNL     1      44.165   2.846  10.126  0.00  0.00    +0.000 A 
ATOM     18  C   UNL     1      44.831   2.750   8.899  0.00  0.00    +0.000 A 
ATOM     19  C   UNL     1      45.546   3.842   8.417  0.00  0.00    +0.000 A 
ATOM     20  C   UNL     1      45.575   5.032   9.151  0.00  0.00    +0.000 A 
BRANCH  19  21
ATOM     21  O   UNL     1      46.213   3.883   7.216  0.00  0.00    +0.000 OA
BRANCH  21  22
ATOM     22  C   UNL     1      46.597   2.643   6.577  0.00  0.00    +0.000 C 
ATOM     23  C   UNL     1      47.943   2.011   6.980  0.00  0.00    +0.000 C 
ATOM     24  N   UNL     1      48.366   1.961   5.573  0.00  0.00    +0.000 NA
ATOM     25  C   UNL     1      47.228   2.801   5.175  0.00  0.00    +0.000 C 
ATOM     26  H   UNL     1      48.359   1.028   5.165  0.00  0.00    +0.000 HD
ENDBRANCH  21  22
ENDBRANCH  19  21
ENDBRANCH  14  15
ENDBRANCH   1  14
TORSDOF 7
ENDMDL
MODEL 5
REMARK VINA RESULT:    -6.961      2.714      3.849
REMARK INTER + INTRA:         -10.715
REMARK INTER:                  -9.977
REMARK INTRA:                  -0.738
REMARK UNBOUND:                -0.906
REMARK  Name = 
REMARK  7 active torsions:
REMARK  status: ('A' for Active; 'I' for Inactive)
REMARK    1  A    between atoms: C_2  and  C_4
REMARK    2  A    between atoms: C_7  and  O_8
REMARK    3  A    between atoms: O_8  and  C_9
REMARK    4  A    between atoms: C_9  and  C_10
REMARK    5  A    between atoms: C_10  and  C_11
REMARK    6  A    between atoms: C_15  and  O_16
REMARK    7  A    between atoms: O_16  and  C_17
REMARK                            x       y       z     vdW  Elec       q    Type
REMARK                         _______ _______ _______ _____ _____    ______ ____
ROOT
ATOM      1  C   UNL     1      43.451   4.452  11.282  0.00  0.00    +0.000 C 
ENDROOT
BRANCH   1   2
ATOM      2  O   UNL     1      43.513   4.593   9.858  0.00  0.00    +0.000 OA
BRANCH   2   6
ATOM      3  C   UNL     1      46.387   2.502   7.788  0.00  0.00    +0.000 A 
ATOM      4  C   UNL     1      45.589   1.770   8.657  0.00  0.00    +0.000 A 
ATOM      5  C   UNL     1      44.607   2.441   9.383  0.00  0.00    +0.000 A 
ATOM      6  C   UNL     1      44.444   3.815   9.223  0.00  0.00    +0.000 A 
ATOM      7  C   UNL     1      45.302   4.461   8.333  0.00  0.00    +0.000 A 
ATOM      8  N   UNL     1      46.275   3.847   7.610  0.00  0.00    +0.000 NA
BRANCH   3  10
ATOM      9  N   UNL     1      48.435   2.571   6.483  0.00  0.00    +0.000 N 
ATOM     10  C   UNL     1      47.431   1.788   6.987  0.00  0.00    +0.000 C 
ATOM     11  O   UNL     1      47.403   0.580   6.794  0.00  0.00    +0.000 OA
ATOM     12  H   UNL     1      49.185   2.134   5.969  0.00  0.00    +0.000 HD
ATOM     13  H   UNL     1      48.468   3.556   6.715  0.00  0.00    +0.000 HD
ENDBRANCH   3  10
ENDBRANCH   2   6
ENDBRANCH   1   2
BRANCH   1  14
ATOM     14  C   UNL     1      43.637   5.814  11.952  0.00  0.00    +0.000 C 
BRANCH  14  15
ATOM     15  C   UNL     1      45.001   5.916  12.591  0.00  0.00    +0.000 A 
ATOM     16  C   UNL     1      45.579   4.812  13.229  0.00  0.00    +0.000 A 
ATOM     17  C   UNL     1      46.874   4.895  13.746  0.00  0.00    +0.000 A 
ATOM     18  C   UNL     1      47.610   6.080  13.632  0.00  0.00    +0.000 A 
ATOM     19  C   UNL     1      47.039   7.187  13.012  0.00  0.00    +0.000 A 
ATOM     20  C   UNL     1      45.744   7.100  12.489  0.00  0.00    +0.000 A 
BRANCH  19  21
ATOM     21  O   UNL     1      47.668   8.392  12.810  0.00  0.00    +0.000 OA
BRANCH  21  22
ATOM     22  C   UNL     1      48.662   8.506  11.764  0.00  0.00    +0.000 C 
ATOM     23  C   UNL     1      50.143   8.348  12.158  0.00  0.00    +0.000 C 
ATOM     24  N   UNL     1      50.469   9.638  11.533  0.00  0.00    +0.000 NA
ATOM     25  C   UNL     1      49.042   9.954  11.382  0.00  0.00    +0.000 C 
ATOM     26  H   UNL     1      50.976   9.563  10.652  0.00  0.00    +0.000 HD
ENDBRANCH  21  22
ENDBRANCH  19  21
ENDBRANCH  14  15
ENDBRANCH   1  14
TORSDOF 7
ENDMDL
MODEL 6
REMARK VINA RESULT:    -6.132      3.677      5.430
REMARK INTER + INTRA:          -9.548
REMARK INTER:                  -9.150
REMARK INTRA:                  -0.398
REMARK UNBOUND:                -0.906
REMARK  Name = 
REMARK  7 active torsions:
REMARK  status: ('A' for Active; 'I' for Inactive)
REMARK    1  A    between atoms: C_2  and  C_4
REMARK    2  A    between atoms: C_7  and  O_8
REMARK    3  A    between atoms: O_8  and  C_9
REMARK    4  A    between atoms: C_9  and  C_10
REMARK    5  A    between atoms: C_10  and  C_11
REMARK    6  A    between atoms: C_15  and  O_16
REMARK    7  A    between atoms: O_16  and  C_17
REMARK                            x       y       z     vdW  Elec       q    Type
REMARK                         _______ _______ _______ _____ _____    ______ ____
ROOT
ATOM      1  C   UNL     1      48.842   7.316  13.363  0.00  0.00    +0.000 C 
ENDROOT
BRANCH   1   2
ATOM      2  O   UNL     1      48.374   5.965  13.282  0.00  0.00    +0.000 OA
BRANCH   2   6
ATOM      3  C   UNL     1      44.499   5.275  12.090  0.00  0.00    +0.000 A 
ATOM      4  C   UNL     1      45.256   6.118  11.289  0.00  0.00    +0.000 A 
ATOM      5  C   UNL     1      46.573   6.384  11.660  0.00  0.00    +0.000 A 
ATOM      6  C   UNL     1      47.098   5.803  12.812  0.00  0.00    +0.000 A 
ATOM      7  C   UNL     1      46.254   4.979  13.555  0.00  0.00    +0.000 A 
ATOM      8  N   UNL     1      44.964   4.697  13.232  0.00  0.00    +0.000 NA
BRANCH   3  10
ATOM      9  N   UNL     1      42.211   6.014  11.741  0.00  0.00    +0.000 N 
ATOM     10  C   UNL     1      43.090   4.965  11.690  0.00  0.00    +0.000 C 
ATOM     11  O   UNL     1      42.736   3.851  11.330  0.00  0.00    +0.000 OA
ATOM     12  H   UNL     1      41.258   5.869  11.443  0.00  0.00    +0.000 HD
ATOM     13  H   UNL     1      42.547   6.939  11.978  0.00  0.00    +0.000 HD
ENDBRANCH   3  10
ENDBRANCH   2   6
ENDBRANCH   1   2
BRANCH   1  14
ATOM     14  C   UNL     1      48.804   7.798  14.813  0.00  0.00    +0.000 C 
BRANCH  14  15
ATOM     15  C   UNL     1      49.659   6.921  15.694  0.00  0.00    +0.000 A 
ATOM     16  C   UNL     1      51.051   7.070  15.719  0.00  0.00    +0.000 A 
ATOM     17  C   UNL     1      51.825   6.307  16.598  0.00  0.00    +0.000 A 
ATOM     18  C   UNL     1      51.221   5.389  17.463  0.00  0.00    +0.000 A 
ATOM     19  C   UNL     1      49.840   5.223  17.436  0.00  0.00    +0.000 A 
ATOM     20  C   UNL     1      49.065   5.992  16.560  0.00  0.00    +0.000 A 
BRANCH  19  21
ATOM     21  O   UNL     1      49.129   4.380  18.255  0.00  0.00    +0.000 OA
BRANCH  21  22
ATOM     22  C   UNL     1      49.027   2.978  17.911  0.00  0.00    +0.000 C 
ATOM     23  C   UNL     1      50.249   2.307  17.254  0.00  0.00    +0.000 C 
ATOM     24  N   UNL     1      49.417   1.839  16.136  0.00  0.00    +0.000 NA
ATOM     25  C   UNL     1      48.300   2.684  16.580  0.00  0.00    +0.000 C 
ATOM     26  H   UNL     1      49.216   0.840  16.150  0.00  0.00    +0.000 HD
ENDBRANCH  21  22
ENDBRANCH  19  21
ENDBRANCH  14  15
ENDBRANCH   1  14
TORSDOF 7
ENDMDL
MODEL 7
REMARK VINA RESULT:    -6.106      3.113      7.430
REMARK INTER + INTRA:          -9.511
REMARK INTER:                  -8.414
REMARK INTRA:                  -1.097
REMARK UNBOUND:                -0.906
REMARK  Name = 
REMARK  7 active torsions:
REMARK  status: ('A' for Active; 'I' for Inactive)
REMARK    1  A    between atoms: C_2  and  C_4
REMARK    2  A    between atoms: C_7  and  O_8
REMARK    3  A    between atoms: O_8  and  C_9
REMARK    4  A    between atoms: C_9  and  C_10
REMARK    5  A    between atoms: C_10  and  C_11
REMARK    6  A    between atoms: C_15  and  O_16
REMARK    7  A    between atoms: O_16  and  C_17
REMARK                            x       y       z     vdW  Elec       q    Type
REMARK                         _______ _______ _______ _____ _____    ______ ____
ROOT
ATOM      1  C   UNL     1      49.523   7.364  13.109  0.00  0.00    +0.000 C 
ENDROOT
BRANCH   1   2
ATOM      2  O   UNL     1      48.931   7.665  14.379  0.00  0.00    +0.000 OA
BRANCH   2   6
ATOM      3  C   UNL     1      47.842   4.521  16.795  0.00  0.00    +0.000 A 
ATOM      4  C   UNL     1      47.332   4.520  15.504  0.00  0.00    +0.000 A 
ATOM      5  C   UNL     1      47.671   5.571  14.654  0.00  0.00    +0.000 A 
ATOM      6  C   UNL     1      48.507   6.588  15.109  0.00  0.00    +0.000 A 
ATOM      7  C   UNL     1      48.960   6.503  16.425  0.00  0.00    +0.000 A 
ATOM      8  N   UNL     1      48.650   5.500  17.288  0.00  0.00    +0.000 NA
BRANCH   3  10
ATOM      9  N   UNL     1      48.392   3.151  18.724  0.00  0.00    +0.000 N 
ATOM     10  C   UNL     1      47.502   3.386  17.710  0.00  0.00    +0.000 C 
ATOM     11  O   UNL     1      46.492   2.709  17.574  0.00  0.00    +0.000 OA
ATOM     12  H   UNL     1      48.189   2.422  19.393  0.00  0.00    +0.000 HD
ATOM     13  H   UNL     1      49.184   3.768  18.851  0.00  0.00    +0.000 HD
ENDBRANCH   3  10
ENDBRANCH   2   6
ENDBRANCH   1   2
BRANCH   1  14
ATOM     14  C   UNL     1      48.917   8.254  12.024  0.00  0.00    +0.000 C 
BRANCH  14  15
ATOM     15  C   UNL     1      47.427   8.034  11.918  0.00  0.00    +0.000 A 
ATOM     16  C   UNL     1      46.527   9.062  12.222  0.00  0.00    +0.000 A 
ATOM     17  C   UNL     1      45.155   8.872  12.043  0.00  0.00    +0.000 A 
ATOM     18  C   UNL     1      44.663   7.656  11.557  0.00  0.00    +0.000 A 
ATOM     19  C   UNL     1      45.549   6.623  11.265  0.00  0.00    +0.000 A 
ATOM     20  C   UNL     1      46.923   6.817  11.439  0.00  0.00    +0.000 A 
BRANCH  19  21
ATOM     21  O   UNL     1      45.193   5.398  10.754  0.00  0.00    +0.000 OA
BRANCH  21  22
ATOM     22  C   UNL     1      44.209   4.598  11.451  0.00  0.00    +0.000 C 
ATOM     23  C   UNL     1      44.543   4.129  12.880  0.00  0.00    +0.000 C 
ATOM     24  N   UNL     1      44.273   2.733  12.508  0.00  0.00    +0.000 NA
ATOM     25  C   UNL     1      44.214   3.097  11.086  0.00  0.00    +0.000 C 
ATOM     26  H   UNL     1      43.401   2.360  12.880  0.00  0.00    +0.000 HD
ENDBRANCH  21  22
ENDBRANCH  19  21
ENDBRANCH  14  15
ENDBRANCH   1  14
TORSDOF 7
ENDMDL
MODEL 8
REMARK VINA RESULT:    -6.061      1.624      7.741
REMARK INTER + INTRA:          -9.447
REMARK INTER:                  -8.643
REMARK INTRA:                  -0.805
REMARK UNBOUND:                -0.906
REMARK  Name = 
REMARK  7 active torsions:
REMARK  status: ('A' for Active; 'I' for Inactive)
REMARK    1  A    between atoms: C_2  and  C_4
REMARK    2  A    between atoms: C_7  and  O_8
REMARK    3  A    between atoms: O_8  and  C_9
REMARK    4  A    between atoms: C_9  and  C_10
REMARK    5  A    between atoms: C_10  and  C_11
REMARK    6  A    between atoms: C_15  and  O_16
REMARK    7  A    between atoms: O_16  and  C_17
REMARK                            x       y       z     vdW  Elec       q    Type
REMARK                         _______ _______ _______ _____ _____    ______ ____
ROOT
ATOM      1  C   UNL     1      47.163   6.571  12.023  0.00  0.00    +0.000 C 
ENDROOT
BRANCH   1   2
ATOM      2  O   UNL     1      47.356   7.016  13.370  0.00  0.00    +0.000 OA
BRANCH   2   6
ATOM      3  C   UNL     1      48.192   4.234  16.282  0.00  0.00    +0.000 A 
ATOM      4  C   UNL     1      47.281   3.859  15.305  0.00  0.00    +0.000 A 
ATOM      5  C   UNL     1      46.963   4.774  14.303  0.00  0.00    +0.000 A 
ATOM      6  C   UNL     1      47.563   6.032  14.299  0.00  0.00    +0.000 A 
ATOM      7  C   UNL     1      48.459   6.317  15.329  0.00  0.00    +0.000 A 
ATOM      8  N   UNL     1      48.792   5.456  16.327  0.00  0.00    +0.000 NA
BRANCH   3  10
ATOM      9  N   UNL     1      47.931   3.423  18.556  0.00  0.00    +0.000 N 
ATOM     10  C   UNL     1      48.557   3.251  17.351  0.00  0.00    +0.000 C 
ATOM     11  O   UNL     1      49.356   2.344  17.167  0.00  0.00    +0.000 OA
ATOM     12  H   UNL     1      48.111   2.763  19.299  0.00  0.00    +0.000 HD
ATOM     13  H   UNL     1      47.225   4.142  18.659  0.00  0.00    +0.000 HD
ENDBRANCH   3  10
ENDBRANCH   2   6
ENDBRANCH   1   2
BRANCH   1  14
ATOM     14  C   UNL     1      45.718   6.823  11.590  0.00  0.00    +0.000 C 
BRANCH  14  15
ATOM     15  C   UNL     1      44.956   5.525  11.480  0.00  0.00    +0.000 A 
ATOM     16  C   UNL     1      44.023   5.156  12.457  0.00  0.00    +0.000 A 
ATOM     17  C   UNL     1      43.266   3.992  12.303  0.00  0.00    +0.000 A 
ATOM     18  C   UNL     1      43.427   3.183  11.174  0.00  0.00    +0.000 A 
ATOM     19  C   UNL     1      44.362   3.533  10.204  0.00  0.00    +0.000 A 
ATOM     20  C   UNL     1      45.115   4.702  10.356  0.00  0.00    +0.000 A 
BRANCH  19  21
ATOM     21  O   UNL     1      44.591   2.841   9.040  0.00  0.00    +0.000 OA
BRANCH  21  22
ATOM     22  C   UNL     1      45.940   2.743   8.527  0.00  0.00    +0.000 C 
ATOM     23  C   UNL     1      46.196   3.210   7.081  0.00  0.00    +0.000 C 
ATOM     24  N   UNL     1      46.809   1.916   6.748  0.00  0.00    +0.000 NA
ATOM     25  C   UNL     1      46.343   1.341   8.017  0.00  0.00    +0.000 C 
ATOM     26  H   UNL     1      47.823   1.944   6.650  0.00  0.00    +0.000 HD
ENDBRANCH  21  22
ENDBRANCH  19  21
ENDBRANCH  14  15
ENDBRANCH   1  14
TORSDOF 7
ENDMDL
MODEL 9
REMARK VINA RESULT:    -5.937      3.045      4.832
REMARK INTER + INTRA:          -9.272
REMARK INTER:                  -8.298
REMARK INTRA:                  -0.974
REMARK UNBOUND:                -0.906
REMARK  Name = 
REMARK  7 active torsions:
REMARK  status: ('A' for Active; 'I' for Inactive)
REMARK    1  A    between atoms: C_2  and  C_4
REMARK    2  A    between atoms: C_7  and  O_8
REMARK    3  A    between atoms: O_8  and  C_9
REMARK    4  A    between atoms: C_9  and  C_10
REMARK    5  A    between atoms: C_10  and  C_11
REMARK    6  A    between atoms: C_15  and  O_16
REMARK    7  A    between atoms: O_16  and  C_17
REMARK                            x       y       z     vdW  Elec       q    Type
REMARK                         _______ _______ _______ _____ _____    ______ ____
ROOT
ATOM      1  C   UNL     1      48.741   7.534  12.253  0.00  0.00    +0.000 C 
ENDROOT
BRANCH   1   2
ATOM      2  O   UNL     1      47.342   7.665  11.970  0.00  0.00    +0.000 OA
BRANCH   2   6
ATOM      3  C   UNL     1      45.038   4.260  11.893  0.00  0.00    +0.000 A 
ATOM      4  C   UNL     1      45.698   4.538  13.082  0.00  0.00    +0.000 A 
ATOM      5  C   UNL     1      46.495   5.679  13.149  0.00  0.00    +0.000 A 
ATOM      6  C   UNL     1      46.611   6.510  12.037  0.00  0.00    +0.000 A 
ATOM      7  C   UNL     1      45.915   6.139  10.887  0.00  0.00    +0.000 A 
ATOM      8  N   UNL     1      45.132   5.034  10.777  0.00  0.00    +0.000 NA
BRANCH   3  10
ATOM      9  N   UNL     1      44.088   2.442  10.591  0.00  0.00    +0.000 N 
ATOM     10  C   UNL     1      44.162   3.048  11.817  0.00  0.00    +0.000 C 
ATOM     11  O   UNL     1      43.551   2.614  12.783  0.00  0.00    +0.000 OA
ATOM     12  H   UNL     1      43.543   1.598  10.495  0.00  0.00    +0.000 HD
ATOM     13  H   UNL     1      44.656   2.785   9.826  0.00  0.00    +0.000 HD
ENDBRANCH   3  10
ENDBRANCH   2   6
ENDBRANCH   1   2
BRANCH   1  14
ATOM     14  C   UNL     1      49.204   8.682  13.149  0.00  0.00    +0.000 C 
BRANCH  14  15
ATOM     15  C   UNL     1      49.140   8.288  14.605  0.00  0.00    +0.000 A 
ATOM     16  C   UNL     1      48.945   9.251  15.601  0.00  0.00    +0.000 A 
ATOM     17  C   UNL     1      48.807   8.866  16.937  0.00  0.00    +0.000 A 
ATOM     18  C   UNL     1      48.860   7.514  17.295  0.00  0.00    +0.000 A 
ATOM     19  C   UNL     1      49.068   6.550  16.314  0.00  0.00    +0.000 A 
ATOM     20  C   UNL     1      49.200   6.937  14.976  0.00  0.00    +0.000 A 
BRANCH  19  21
ATOM     21  O   UNL     1      49.108   5.194  16.534  0.00  0.00    +0.000 OA
BRANCH  21  22
ATOM     22  C   UNL     1      47.888   4.423  16.427  0.00  0.00    +0.000 C 
ATOM     23  C   UNL     1      46.942   4.401  17.643  0.00  0.00    +0.000 C 
ATOM     24  N   UNL     1      46.949   2.931  17.649  0.00  0.00    +0.000 NA
ATOM     25  C   UNL     1      48.052   2.907  16.679  0.00  0.00    +0.000 C 
ATOM     26  H   UNL     1      46.087   2.505  17.312  0.00  0.00    +0.000 HD
ENDBRANCH  21  22
ENDBRANCH  19  21
ENDBRANCH  14  15
ENDBRANCH   1  14
TORSDOF 7
ENDMDL
