MODEL 1
REMARK VINA RESULT:    -7.036      0.000      0.000
REMARK INTER + INTRA:         -11.122
REMARK INTER:                 -10.326
REMARK INTRA:                  -0.796
REMARK UNBOUND:                -0.796
REMARK  Name = 
REMARK  10 active torsions:
REMARK  status: ('A' for Active; 'I' for Inactive)
REMARK    1  A    between atoms: C_1  and  C_2
REMARK    2  A    between atoms: C_2  and  C_3
REMARK    3  A    between atoms: C_3  and  C_4
REMARK    4  A    between atoms: C_4  and  C_5
REMARK    5  A    between atoms: C_6  and  C_7
REMARK    6  A    between atoms: C_11  and  C_12
REMARK    7  A    between atoms: C_12  and  C_13
REMARK    8  A    between atoms: C_13  and  O_14
REMARK    9  A    between atoms: O_14  and  C_15
REMARK   10  A    between atoms: C_20  and  C_21
REMARK                            x       y       z     vdW  Elec       q    Type
REMARK                         _______ _______ _______ _____ _____    ______ ____
ROOT
ATOM      1  C   UNL     1      46.435   4.889  13.742  0.00  0.00    +0.000 A 
ATOM      2  C   UNL     1      46.902   6.068  13.191  0.00  0.00    +0.000 A 
ATOM      3  C   UNL     1      46.407   6.453  11.956  0.00  0.00    +0.000 A 
ATOM      4  C   UNL     1      45.456   5.657  11.331  0.00  0.00    +0.000 A 
ATOM      5  C   UNL     1      44.998   4.495  11.961  0.00  0.00    +0.000 A 
ATOM      6  N   UNL     1      45.495   4.100  13.165  0.00  0.00    +0.000 NA
ENDROOT
BRANCH   1   8
ATOM      7  C   UNL     1      47.381   3.997  16.146  0.00  0.00    +0.000 C 
ATOM      8  C   UNL     1      46.969   4.427  14.986  0.00  0.00    +0.000 C 
BRANCH   7   9
ATOM      9  C   UNL     1      47.862   3.498  17.499  0.00  0.00    +0.000 C 
BRANCH   9  10
ATOM     10  C   UNL     1      49.386   3.401  17.514  0.00  0.00    +0.000 C 
BRANCH  10  12
ATOM     11  C   UNL     1      51.308   1.778  17.387  0.00  0.00    +0.000 C 
ATOM     12  C   UNL     1      49.866   2.050  16.987  0.00  0.00    +0.000 C 
ENDBRANCH  10  12
ENDBRANCH   9  10
ENDBRANCH   7   9
ENDBRANCH   1   8
BRANCH   5  13
ATOM     13  C   UNL     1      43.915   3.620  11.361  0.00  0.00    +0.000 C 
BRANCH  13  14
ATOM     14  C   UNL     1      44.431   2.459  10.506  0.00  0.00    +0.000 C 
BRANCH  14  15
ATOM     15  O   UNL     1      44.387   2.791   9.116  0.00  0.00    +0.000 OA
BRANCH  15  16
ATOM     16  C   UNL     1      45.505   2.326   8.438  0.00  0.00    +0.000 A 
ATOM     17  N   UNL     1      45.744   0.993   8.395  0.00  0.00    +0.000 NA
ATOM     18  C   UNL     1      46.802   0.583   7.666  0.00  0.00    +0.000 A 
ATOM     19  C   UNL     1      47.627   1.439   6.959  0.00  0.00    +0.000 A 
ATOM     20  C   UNL     1      47.377   2.805   7.038  0.00  0.00    +0.000 A 
ATOM     21  C   UNL     1      46.309   3.275   7.810  0.00  0.00    +0.000 A 
ATOM     22  C   UNL     1      46.049   4.741   7.963  0.00  0.00    +0.000 C 
ENDBRANCH  15  16
ENDBRANCH  14  15
ENDBRANCH  13  14
ENDBRANCH   5  13
TORSDOF 8
ENDMDL
MODEL 2
REMARK VINA RESULT:    -6.913      1.241      1.939
REMARK INTER + INTRA:         -10.943
REMARK INTER:                 -10.211
REMARK INTRA:                  -0.732
REMARK UNBOUND:                -0.796
REMARK  Name = 
REMARK  10 active torsions:
REMARK  status: ('A' for Active; 'I' for Inactive)
REMARK    1  A    between atoms: C_1  and  C_2
REMARK    2  A    between atoms: C_2  and  C_3
REMARK    3  A    between atoms: C_3  and  C_4
REMARK    4  A    between atoms: C_4  and  C_5
REMARK    5  A    between atoms: C_6  and  C_7
REMARK    6  A    between atoms: C_11  and  C_12
REMARK    7  A    between atoms: C_12  and  C_13
REMARK    8  A    between atoms: C_13  and  O_14
REMARK    9  A    between atoms: O_14  and  C_15
REMARK   10  A    between atoms: C_20  and  C_21
REMARK                            x       y       z     vdW  Elec       q    Type
REMARK                         _______ _______ _______ _____ _____    ______ ____
ROOT
ATOM      1  C   UNL     1      47.266   5.511  14.002  0.00  0.00    +0.000 A 
ATOM      2  C   UNL     1      48.042   6.652  13.900  0.00  0.00    +0.000 A 
ATOM      3  C   UNL     1      47.969   7.391  12.731  0.00  0.00    +0.000 A 
ATOM      4  C   UNL     1      47.114   6.973  11.720  0.00  0.00    +0.000 A 
ATOM      5  C   UNL     1      46.328   5.830  11.901  0.00  0.00    +0.000 A 
ATOM      6  N   UNL     1      46.410   5.087  13.039  0.00  0.00    +0.000 NA
ENDROOT
BRANCH   1   8
ATOM      7  C   UNL     1      47.395   3.892  16.198  0.00  0.00    +0.000 C 
ATOM      8  C   UNL     1      47.363   4.689  15.167  0.00  0.00    +0.000 C 
BRANCH   7   9
ATOM      9  C   UNL     1      47.432   2.963  17.401  0.00  0.00    +0.000 C 
BRANCH   9  10
ATOM     10  C   UNL     1      48.516   3.410  18.379  0.00  0.00    +0.000 C 
BRANCH  10  12
ATOM     11  C   UNL     1      50.295   2.051  17.224  0.00  0.00    +0.000 C 
ATOM     12  C   UNL     1      49.893   3.432  17.718  0.00  0.00    +0.000 C 
ENDBRANCH  10  12
ENDBRANCH   9  10
ENDBRANCH   7   9
ENDBRANCH   1   8
BRANCH   5  13
ATOM     13  C   UNL     1      45.329   5.359  10.863  0.00  0.00    +0.000 C 
BRANCH  13  14
ATOM     14  C   UNL     1      45.816   5.458   9.414  0.00  0.00    +0.000 C 
BRANCH  14  15
ATOM     15  O   UNL     1      45.048   4.607   8.559  0.00  0.00    +0.000 OA
BRANCH  15  16
ATOM     16  C   UNL     1      45.818   3.585   8.021  0.00  0.00    +0.000 A 
ATOM     17  N   UNL     1      46.776   3.890   7.113  0.00  0.00    +0.000 NA
ATOM     18  C   UNL     1      47.546   2.875   6.670  0.00  0.00    +0.000 A 
ATOM     19  C   UNL     1      47.418   1.568   7.102  0.00  0.00    +0.000 A 
ATOM     20  C   UNL     1      46.410   1.274   8.016  0.00  0.00    +0.000 A 
ATOM     21  C   UNL     1      45.569   2.292   8.476  0.00  0.00    +0.000 A 
ATOM     22  C   UNL     1      44.439   2.000   9.413  0.00  0.00    +0.000 C 
ENDBRANCH  15  16
ENDBRANCH  14  15
ENDBRANCH  13  14
ENDBRANCH   5  13
TORSDOF 8
ENDMDL
MODEL 3
REMARK VINA RESULT:    -6.777      2.129      8.012
REMARK INTER + INTRA:         -10.743
REMARK INTER:                 -10.101
REMARK INTRA:                  -0.642
REMARK UNBOUND:                -0.796
REMARK  Name = 
REMARK  10 active torsions:
REMARK  status: ('A' for Active; 'I' for Inactive)
REMARK    1  A    between atoms: C_1  and  C_2
REMARK    2  A    between atoms: C_2  and  C_3
REMARK    3  A    between atoms: C_3  and  C_4
REMARK    4  A    between atoms: C_4  and  C_5
REMARK    5  A    between atoms: C_6  and  C_7
REMARK    6  A    between atoms: C_11  and  C_12
REMARK    7  A    between atoms: C_12  and  C_13
REMARK    8  A    between atoms: C_13  and  O_14
REMARK    9  A    between atoms: O_14  and  C_15
REMARK   10  A    between atoms: C_20  and  C_21
REMARK                            x       y       z     vdW  Elec       q    Type
REMARK                         _______ _______ _______ _____ _____    ______ ____
ROOT
ATOM      1  C   UNL     1      44.682   3.928  10.787  0.00  0.00    +0.000 A 
ATOM      2  C   UNL     1      43.442   4.531  10.668  0.00  0.00    +0.000 A 
ATOM      3  C   UNL     1      43.053   5.426  11.651  0.00  0.00    +0.000 A 
ATOM      4  C   UNL     1      43.921   5.696  12.702  0.00  0.00    +0.000 A 
ATOM      5  C   UNL     1      45.177   5.081  12.742  0.00  0.00    +0.000 A 
ATOM      6  N   UNL     1      45.557   4.184  11.791  0.00  0.00    +0.000 NA
ENDROOT
BRANCH   1   8
ATOM      7  C   UNL     1      45.523   2.041   9.000  0.00  0.00    +0.000 C 
ATOM      8  C   UNL     1      45.091   2.952   9.826  0.00  0.00    +0.000 C 
BRANCH   7   9
ATOM      9  C   UNL     1      46.028   0.980   8.035  0.00  0.00    +0.000 C 
BRANCH   9  10
ATOM     10  C   UNL     1      47.259   1.489   7.289  0.00  0.00    +0.000 C 
BRANCH  10  12
ATOM     11  C   UNL     1      47.143   2.906   5.210  0.00  0.00    +0.000 C 
ATOM     12  C   UNL     1      47.033   2.892   6.726  0.00  0.00    +0.000 C 
ENDBRANCH  10  12
ENDBRANCH   9  10
ENDBRANCH   7   9
ENDBRANCH   1   8
BRANCH   5  13
ATOM     13  C   UNL     1      46.193   5.382  13.825  0.00  0.00    +0.000 C 
BRANCH  13  14
ATOM     14  C   UNL     1      46.954   4.161  14.348  0.00  0.00    +0.000 C 
BRANCH  14  15
ATOM     15  O   UNL     1      46.677   3.941  15.733  0.00  0.00    +0.000 OA
BRANCH  15  16
ATOM     16  C   UNL     1      47.796   3.494  16.421  0.00  0.00    +0.000 A 
ATOM     17  N   UNL     1      48.537   2.490  15.893  0.00  0.00    +0.000 NA
ATOM     18  C   UNL     1      49.654   2.136  16.560  0.00  0.00    +0.000 A 
ATOM     19  C   UNL     1      50.082   2.749  17.723  0.00  0.00    +0.000 A 
ATOM     20  C   UNL     1      49.292   3.761  18.260  0.00  0.00    +0.000 A 
ATOM     21  C   UNL     1      48.108   4.137  17.617  0.00  0.00    +0.000 A 
ATOM     22  C   UNL     1      47.206   5.180  18.199  0.00  0.00    +0.000 C 
ENDBRANCH  15  16
ENDBRANCH  14  15
ENDBRANCH  13  14
ENDBRANCH   5  13
TORSDOF 8
ENDMDL
MODEL 4
REMARK VINA RESULT:    -6.371      2.404      7.531
REMARK INTER + INTRA:         -10.147
REMARK INTER:                  -9.118
REMARK INTRA:                  -1.029
REMARK UNBOUND:                -0.796
REMARK  Name = 
REMARK  10 active torsions:
REMARK  status: ('A' for Active; 'I' for Inactive)
REMARK    1  A    between atoms: C_1  and  C_2
REMARK    2  A    between atoms: C_2  and  C_3
REMARK    3  A    between atoms: C_3  and  C_4
REMARK    4  A    between atoms: C_4  and  C_5
REMARK    5  A    between atoms: C_6  and  C_7
REMARK    6  A    between atoms: C_11  and  C_12
REMARK    7  A    between atoms: C_12  and  C_13
REMARK    8  A    between atoms: C_13  and  O_14
REMARK    9  A    between atoms: O_14  and  C_15
REMARK   10  A    between atoms: C_20  and  C_21
REMARK                            x       y       z     vdW  Elec       q    Type
REMARK                         _______ _______ _______ _____ _____    ______ ____
ROOT
ATOM      1  C   UNL     1      44.440   3.856  10.981  0.00  0.00    +0.000 A 
ATOM      2  C   UNL     1      43.472   3.470  11.890  0.00  0.00    +0.000 A 
ATOM      3  C   UNL     1      43.096   4.374  12.870  0.00  0.00    +0.000 A 
ATOM      4  C   UNL     1      43.689   5.630  12.892  0.00  0.00    +0.000 A 
ATOM      5  C   UNL     1      44.635   5.971  11.920  0.00  0.00    +0.000 A 
ATOM      6  N   UNL     1      45.024   5.080  10.967  0.00  0.00    +0.000 NA
ENDROOT
BRANCH   1   8
ATOM      7  C   UNL     1      45.383   2.075   9.136  0.00  0.00    +0.000 C 
ATOM      8  C   UNL     1      44.898   2.927   9.994  0.00  0.00    +0.000 C 
BRANCH   7   9
ATOM      9  C   UNL     1      45.950   1.082   8.134  0.00  0.00    +0.000 C 
BRANCH   9  10
ATOM     10  C   UNL     1      47.110   1.712   7.366  0.00  0.00    +0.000 C 
BRANCH  10  12
ATOM     11  C   UNL     1      47.142   2.779   5.085  0.00  0.00    +0.000 C 
ATOM     12  C   UNL     1      46.644   2.894   6.516  0.00  0.00    +0.000 C 
ENDBRANCH  10  12
ENDBRANCH   9  10
ENDBRANCH   7   9
ENDBRANCH   1   8
BRANCH   5  13
ATOM     13  C   UNL     1      45.270   7.346  11.852  0.00  0.00    +0.000 C 
BRANCH  13  14
ATOM     14  C   UNL     1      46.706   7.416  12.378  0.00  0.00    +0.000 C 
BRANCH  14  15
ATOM     15  O   UNL     1      47.222   6.107  12.628  0.00  0.00    +0.000 OA
BRANCH  15  16
ATOM     16  C   UNL     1      47.690   5.975  13.928  0.00  0.00    +0.000 A 
ATOM     17  N   UNL     1      48.364   7.005  14.494  0.00  0.00    +0.000 NA
ATOM     18  C   UNL     1      48.739   6.859  15.781  0.00  0.00    +0.000 A 
ATOM     19  C   UNL     1      48.456   5.739  16.542  0.00  0.00    +0.000 A 
ATOM     20  C   UNL     1      47.785   4.684  15.933  0.00  0.00    +0.000 A 
ATOM     21  C   UNL     1      47.407   4.782  14.589  0.00  0.00    +0.000 A 
ATOM     22  C   UNL     1      46.736   3.642  13.888  0.00  0.00    +0.000 C 
ENDBRANCH  15  16
ENDBRANCH  14  15
ENDBRANCH  13  14
ENDBRANCH   5  13
TORSDOF 8
ENDMDL
MODEL 5
REMARK VINA RESULT:    -6.245      3.270      4.157
REMARK INTER + INTRA:          -9.962
REMARK INTER:                  -8.747
REMARK INTRA:                  -1.215
REMARK UNBOUND:                -0.796
REMARK  Name = 
REMARK  10 active torsions:
REMARK  status: ('A' for Active; 'I' for Inactive)
REMARK    1  A    between atoms: C_1  and  C_2
REMARK    2  A    between atoms: C_2  and  C_3
REMARK    3  A    between atoms: C_3  and  C_4
REMARK    4  A    between atoms: C_4  and  C_5
REMARK    5  A    between atoms: C_6  and  C_7
REMARK    6  A    between atoms: C_11  and  C_12
REMARK    7  A    between atoms: C_12  and  C_13
REMARK    8  A    between atoms: C_13  and  O_14
REMARK    9  A    between atoms: O_14  and  C_15
REMARK   10  A    between atoms: C_20  and  C_21
REMARK                            x       y       z     vdW  Elec       q    Type
REMARK                         _______ _______ _______ _____ _____    ______ ____
ROOT
ATOM      1  C   UNL     1      45.462   6.187  11.766  0.00  0.00    +0.000 A 
ATOM      2  C   UNL     1      44.540   7.170  11.457  0.00  0.00    +0.000 A 
ATOM      3  C   UNL     1      43.238   6.783  11.183  0.00  0.00    +0.000 A 
ATOM      4  C   UNL     1      42.906   5.436  11.244  0.00  0.00    +0.000 A 
ATOM      5  C   UNL     1      43.879   4.495  11.599  0.00  0.00    +0.000 A 
ATOM      6  N   UNL     1      45.164   4.866  11.850  0.00  0.00    +0.000 NA
ENDROOT
BRANCH   1   8
ATOM      7  C   UNL     1      48.050   6.907  12.262  0.00  0.00    +0.000 C 
ATOM      8  C   UNL     1      46.828   6.541  11.993  0.00  0.00    +0.000 C 
BRANCH   7   9
ATOM      9  C   UNL     1      49.475   7.335  12.576  0.00  0.00    +0.000 C 
BRANCH   9  10
ATOM     10  C   UNL     1      49.550   8.854  12.713  0.00  0.00    +0.000 C 
BRANCH  10  12
ATOM     11  C   UNL     1      48.159  10.757  11.824  0.00  0.00    +0.000 C 
ATOM     12  C   UNL     1      49.020   9.557  11.464  0.00  0.00    +0.000 C 
ENDBRANCH  10  12
ENDBRANCH   9  10
ENDBRANCH   7   9
ENDBRANCH   1   8
BRANCH   5  13
ATOM     13  C   UNL     1      43.565   3.020  11.746  0.00  0.00    +0.000 C 
BRANCH  13  14
ATOM     14  C   UNL     1      44.136   2.129  10.639  0.00  0.00    +0.000 C 
BRANCH  14  15
ATOM     15  O   UNL     1      44.241   2.850   9.409  0.00  0.00    +0.000 OA
BRANCH  15  16
ATOM     16  C   UNL     1      45.344   2.449   8.667  0.00  0.00    +0.000 A 
ATOM     17  N   UNL     1      45.602   1.126   8.533  0.00  0.00    +0.000 NA
ATOM     18  C   UNL     1      46.642   0.781   7.746  0.00  0.00    +0.000 A 
ATOM     19  C   UNL     1      47.429   1.694   7.068  0.00  0.00    +0.000 A 
ATOM     20  C   UNL     1      47.160   3.048   7.241  0.00  0.00    +0.000 A 
ATOM     21  C   UNL     1      46.111   3.449   8.074  0.00  0.00    +0.000 A 
ATOM     22  C   UNL     1      45.833   4.898   8.328  0.00  0.00    +0.000 C 
ENDBRANCH  15  16
ENDBRANCH  14  15
ENDBRANCH  13  14
ENDBRANCH   5  13
TORSDOF 8
ENDMDL
MODEL 6
REMARK VINA RESULT:    -6.191      2.774      4.294
REMARK INTER + INTRA:          -9.883
REMARK INTER:                  -9.038
REMARK INTRA:                  -0.845
REMARK UNBOUND:                -0.796
REMARK  Name = 
REMARK  10 active torsions:
REMARK  status: ('A' for Active; 'I' for Inactive)
REMARK    1  A    between atoms: C_1  and  C_2
REMARK    2  A    between atoms: C_2  and  C_3
REMARK    3  A    between atoms: C_3  and  C_4
REMARK    4  A    between atoms: C_4  and  C_5
REMARK    5  A    between atoms: C_6  and  C_7
REMARK    6  A    between atoms: C_11  and  C_12
REMARK    7  A    between atoms: C_12  and  C_13
REMARK    8  A    between atoms: C_13  and  O_14
REMARK    9  A    between atoms: O_14  and  C_15
REMARK   10  A    between atoms: C_20  and  C_21
REMARK                            x       y       z     vdW  Elec       q    Type
REMARK                         _______ _______ _______ _____ _____    ______ ____
ROOT
ATOM      1  C   UNL     1      47.567   6.182  13.116  0.00  0.00    +0.000 A 
ATOM      2  C   UNL     1      47.382   5.250  14.121  0.00  0.00    +0.000 A 
ATOM      3  C   UNL     1      46.322   4.366  14.006  0.00  0.00    +0.000 A 
ATOM      4  C   UNL     1      45.501   4.437  12.887  0.00  0.00    +0.000 A 
ATOM      5  C   UNL     1      45.767   5.380  11.888  0.00  0.00    +0.000 A 
ATOM      6  N   UNL     1      46.794   6.265  12.005  0.00  0.00    +0.000 NA
ENDROOT
BRANCH   1   8
ATOM      7  C   UNL     1      49.614   7.982  13.303  0.00  0.00    +0.000 C 
ATOM      8  C   UNL     1      48.612   7.151  13.232  0.00  0.00    +0.000 C 
BRANCH   7   9
ATOM      9  C   UNL     1      50.783   8.950  13.388  0.00  0.00    +0.000 C 
BRANCH   9  10
ATOM     10  C   UNL     1      51.902   8.510  12.447  0.00  0.00    +0.000 C 
BRANCH  10  12
ATOM     11  C   UNL     1      52.065   7.430  10.177  0.00  0.00    +0.000 C 
ATOM     12  C   UNL     1      51.459   8.566  10.985  0.00  0.00    +0.000 C 
ENDBRANCH  10  12
ENDBRANCH   9  10
ENDBRANCH   7   9
ENDBRANCH   1   8
BRANCH   5  13
ATOM     13  C   UNL     1      44.949   5.465  10.615  0.00  0.00    +0.000 C 
BRANCH  13  14
ATOM     14  C   UNL     1      45.759   5.331   9.322  0.00  0.00    +0.000 C 
BRANCH  14  15
ATOM     15  O   UNL     1      45.061   4.533   8.363  0.00  0.00    +0.000 OA
BRANCH  15  16
ATOM     16  C   UNL     1      45.851   3.501   7.875  0.00  0.00    +0.000 A 
ATOM     17  N   UNL     1      46.810   3.782   6.961  0.00  0.00    +0.000 NA
ATOM     18  C   UNL     1      47.599   2.761   6.567  0.00  0.00    +0.000 A 
ATOM     19  C   UNL     1      47.490   1.473   7.057  0.00  0.00    +0.000 A 
ATOM     20  C   UNL     1      46.482   1.203   7.976  0.00  0.00    +0.000 A 
ATOM     21  C   UNL     1      45.621   2.226   8.386  0.00  0.00    +0.000 A 
ATOM     22  C   UNL     1      44.489   1.957   9.329  0.00  0.00    +0.000 C 
ENDBRANCH  15  16
ENDBRANCH  14  15
ENDBRANCH  13  14
ENDBRANCH   5  13
TORSDOF 8
ENDMDL
MODEL 7
REMARK VINA RESULT:    -6.182      2.911      7.131
REMARK INTER + INTRA:          -9.869
REMARK INTER:                  -8.572
REMARK INTRA:                  -1.297
REMARK UNBOUND:                -0.796
REMARK  Name = 
REMARK  10 active torsions:
REMARK  status: ('A' for Active; 'I' for Inactive)
REMARK    1  A    between atoms: C_1  and  C_2
REMARK    2  A    between atoms: C_2  and  C_3
REMARK    3  A    between atoms: C_3  and  C_4
REMARK    4  A    between atoms: C_4  and  C_5
REMARK    5  A    between atoms: C_6  and  C_7
REMARK    6  A    between atoms: C_11  and  C_12
REMARK    7  A    between atoms: C_12  and  C_13
REMARK    8  A    between atoms: C_13  and  O_14
REMARK    9  A    between atoms: O_14  and  C_15
REMARK   10  A    between atoms: C_20  and  C_21
REMARK                            x       y       z     vdW  Elec       q    Type
REMARK                         _______ _______ _______ _____ _____    ______ ____
ROOT
ATOM      1  C   UNL     1      44.773   4.447  10.384  0.00  0.00    +0.000 A 
ATOM      2  C   UNL     1      43.447   4.835  10.458  0.00  0.00    +0.000 A 
ATOM      3  C   UNL     1      42.849   4.883  11.707  0.00  0.00    +0.000 A 
ATOM      4  C   UNL     1      43.600   4.560  12.829  0.00  0.00    +0.000 A 
ATOM      5  C   UNL     1      44.948   4.212  12.688  0.00  0.00    +0.000 A 
ATOM      6  N   UNL     1      45.536   4.143  11.463  0.00  0.00    +0.000 NA
ENDROOT
BRANCH   1   8
ATOM      7  C   UNL     1      46.011   4.143   7.967  0.00  0.00    +0.000 C 
ATOM      8  C   UNL     1      45.406   4.325   9.108  0.00  0.00    +0.000 C 
BRANCH   7   9
ATOM      9  C   UNL     1      46.718   3.932   6.639  0.00  0.00    +0.000 C 
BRANCH   9  10
ATOM     10  C   UNL     1      46.599   2.472   6.205  0.00  0.00    +0.000 C 
BRANCH  10  12
ATOM     11  C   UNL     1      46.686   0.475   7.737  0.00  0.00    +0.000 C 
ATOM     12  C   UNL     1      47.493   1.563   7.047  0.00  0.00    +0.000 C 
ENDBRANCH  10  12
ENDBRANCH   9  10
ENDBRANCH   7   9
ENDBRANCH   1   8
BRANCH   5  13
ATOM     13  C   UNL     1      45.837   3.912  13.878  0.00  0.00    +0.000 C 
BRANCH  13  14
ATOM     14  C   UNL     1      47.148   4.702  13.914  0.00  0.00    +0.000 C 
BRANCH  14  15
ATOM     15  O   UNL     1      46.895   6.108  13.974  0.00  0.00    +0.000 OA
BRANCH  15  16
ATOM     16  C   UNL     1      47.882   6.840  13.330  0.00  0.00    +0.000 A 
ATOM     17  N   UNL     1      49.157   6.766  13.781  0.00  0.00    +0.000 NA
ATOM     18  C   UNL     1      50.095   7.438  13.082  0.00  0.00    +0.000 A 
ATOM     19  C   UNL     1      49.825   8.169  11.939  0.00  0.00    +0.000 A 
ATOM     20  C   UNL     1      48.504   8.250  11.509  0.00  0.00    +0.000 A 
ATOM     21  C   UNL     1      47.497   7.595  12.224  0.00  0.00    +0.000 A 
ATOM     22  C   UNL     1      46.059   7.711  11.823  0.00  0.00    +0.000 C 
ENDBRANCH  15  16
ENDBRANCH  14  15
ENDBRANCH  13  14
ENDBRANCH   5  13
TORSDOF 8
ENDMDL
MODEL 8
REMARK VINA RESULT:    -5.961      1.905      2.720
REMARK INTER + INTRA:          -9.545
REMARK INTER:                  -8.985
REMARK INTRA:                  -0.560
REMARK UNBOUND:                -0.796
REMARK  Name = 
REMARK  10 active torsions:
REMARK  status: ('A' for Active; 'I' for Inactive)
REMARK    1  A    between atoms: C_1  and  C_2
REMARK    2  A    between atoms: C_2  and  C_3
REMARK    3  A    between atoms: C_3  and  C_4
REMARK    4  A    between atoms: C_4  and  C_5
REMARK    5  A    between atoms: C_6  and  C_7
REMARK    6  A    between atoms: C_11  and  C_12
REMARK    7  A    between atoms: C_12  and  C_13
REMARK    8  A    between atoms: C_13  and  O_14
REMARK    9  A    between atoms: O_14  and  C_15
REMARK   10  A    between atoms: C_20  and  C_21
REMARK                            x       y       z     vdW  Elec       q    Type
REMARK                         _______ _______ _______ _____ _____    ______ ____
ROOT
ATOM      1  C   UNL     1      47.273   7.330  13.480  0.00  0.00    +0.000 A 
ATOM      2  C   UNL     1      46.725   8.599  13.424  0.00  0.00    +0.000 A 
ATOM      3  C   UNL     1      45.762   8.853  12.460  0.00  0.00    +0.000 A 
ATOM      4  C   UNL     1      45.375   7.829  11.605  0.00  0.00    +0.000 A 
ATOM      5  C   UNL     1      45.943   6.558  11.740  0.00  0.00    +0.000 A 
ATOM      6  N   UNL     1      46.904   6.307  12.670  0.00  0.00    +0.000 NA
ENDROOT
BRANCH   1   8
ATOM      7  C   UNL     1      49.207   6.790  15.333  0.00  0.00    +0.000 C 
ATOM      8  C   UNL     1      48.314   7.048  14.419  0.00  0.00    +0.000 C 
BRANCH   7   9
ATOM      9  C   UNL     1      50.249   6.490  16.399  0.00  0.00    +0.000 C 
BRANCH   9  10
ATOM     10  C   UNL     1      49.784   5.331  17.278  0.00  0.00    +0.000 C 
BRANCH  10  12
ATOM     11  C   UNL     1      48.134   3.500  16.760  0.00  0.00    +0.000 C 
ATOM     12  C   UNL     1      48.318   4.986  17.023  0.00  0.00    +0.000 C 
ENDBRANCH  10  12
ENDBRANCH   9  10
ENDBRANCH   7   9
ENDBRANCH   1   8
BRANCH   5  13
ATOM     13  C   UNL     1      45.517   5.384  10.881  0.00  0.00    +0.000 C 
BRANCH  13  14
ATOM     14  C   UNL     1      45.896   5.501   9.402  0.00  0.00    +0.000 C 
BRANCH  14  15
ATOM     15  O   UNL     1      45.086   4.640   8.598  0.00  0.00    +0.000 OA
BRANCH  15  16
ATOM     16  C   UNL     1      45.828   3.612   8.032  0.00  0.00    +0.000 A 
ATOM     17  N   UNL     1      46.749   3.910   7.084  0.00  0.00    +0.000 NA
ATOM     18  C   UNL     1      47.495   2.889   6.612  0.00  0.00    +0.000 A 
ATOM     19  C   UNL     1      47.380   1.584   7.055  0.00  0.00    +0.000 A 
ATOM     20  C   UNL     1      46.410   1.299   8.011  0.00  0.00    +0.000 A 
ATOM     21  C   UNL     1      45.593   2.322   8.502  0.00  0.00    +0.000 A 
ATOM     22  C   UNL     1      44.502   2.039   9.486  0.00  0.00    +0.000 C 
ENDBRANCH  15  16
ENDBRANCH  14  15
ENDBRANCH  13  14
ENDBRANCH   5  13
TORSDOF 8
ENDMDL
MODEL 9
REMARK VINA RESULT:    -5.875      2.970      8.260
REMARK INTER + INTRA:          -9.418
REMARK INTER:                  -8.894
REMARK INTRA:                  -0.524
REMARK UNBOUND:                -0.796
REMARK  Name = 
REMARK  10 active torsions:
REMARK  status: ('A' for Active; 'I' for Inactive)
REMARK    1  A    between atoms: C_1  and  C_2
REMARK    2  A    between atoms: C_2  and  C_3
REMARK    3  A    between atoms: C_3  and  C_4
REMARK    4  A    between atoms: C_4  and  C_5
REMARK    5  A    between atoms: C_6  and  C_7
REMARK    6  A    between atoms: C_11  and  C_12
REMARK    7  A    between atoms: C_12  and  C_13
REMARK    8  A    between atoms: C_13  and  O_14
REMARK    9  A    between atoms: O_14  and  C_15
REMARK   10  A    between atoms: C_20  and  C_21
REMARK                            x       y       z     vdW  Elec       q    Type
REMARK                         _______ _______ _______ _____ _____    ______ ____
ROOT
ATOM      1  C   UNL     1      45.860   6.497  11.355  0.00  0.00    +0.000 A 
ATOM      2  C   UNL     1      45.013   7.562  11.602  0.00  0.00    +0.000 A 
ATOM      3  C   UNL     1      45.369   8.465  12.589  0.00  0.00    +0.000 A 
ATOM      4  C   UNL     1      46.561   8.279  13.278  0.00  0.00    +0.000 A 
ATOM      5  C   UNL     1      47.391   7.201  12.953  0.00  0.00    +0.000 A 
ATOM      6  N   UNL     1      47.037   6.298  11.998  0.00  0.00    +0.000 NA
ENDROOT
BRANCH   1   8
ATOM      7  C   UNL     1      45.138   4.668   9.457  0.00  0.00    +0.000 C 
ATOM      8  C   UNL     1      45.495   5.510  10.387  0.00  0.00    +0.000 C 
BRANCH   7   9
ATOM      9  C   UNL     1      44.720   3.688   8.373  0.00  0.00    +0.000 C 
BRANCH   9  10
ATOM     10  C   UNL     1      45.897   2.794   7.989  0.00  0.00    +0.000 C 
BRANCH  10  12
ATOM     11  C   UNL     1      47.671   2.336   6.260  0.00  0.00    +0.000 C 
ATOM     12  C   UNL     1      46.620   3.320   6.750  0.00  0.00    +0.000 C 
ENDBRANCH  10  12
ENDBRANCH   9  10
ENDBRANCH   7   9
ENDBRANCH   1   8
BRANCH   5  13
ATOM     13  C   UNL     1      48.733   6.980  13.622  0.00  0.00    +0.000 C 
BRANCH  13  14
ATOM     14  C   UNL     1      48.712   7.082  15.150  0.00  0.00    +0.000 C 
BRANCH  14  15
ATOM     15  O   UNL     1      49.606   6.133  15.736  0.00  0.00    +0.000 OA
BRANCH  15  16
ATOM     16  C   UNL     1      48.927   5.152  16.446  0.00  0.00    +0.000 A 
ATOM     17  N   UNL     1      47.845   4.562  15.883  0.00  0.00    +0.000 NA
ATOM     18  C   UNL     1      47.258   3.567  16.579  0.00  0.00    +0.000 A 
ATOM     19  C   UNL     1      47.711   3.115  17.805  0.00  0.00    +0.000 A 
ATOM     20  C   UNL     1      48.809   3.753  18.374  0.00  0.00    +0.000 A 
ATOM     21  C   UNL     1      49.427   4.812  17.701  0.00  0.00    +0.000 A 
ATOM     22  C   UNL     1      50.572   5.557  18.311  0.00  0.00    +0.000 C 
ENDBRANCH  15  16
ENDBRANCH  14  15
ENDBRANCH  13  14
ENDBRANCH   5  13
TORSDOF 8
ENDMDL
