MODEL 1
REMARK VINA RESULT:    -7.386      0.000      0.000
REMARK INTER + INTRA:         -11.841
REMARK INTER:                 -10.841
REMARK INTRA:                  -1.001
REMARK UNBOUND:                -1.001
REMARK  Name = 
REMARK  10 active torsions:
REMARK  status: ('A' for Active; 'I' for Inactive)
REMARK    1  A    between atoms: C_1  and  C_2
REMARK    2  A    between atoms: C_2  and  C_3
REMARK    3  A    between atoms: C_3  and  C_4
REMARK    4  A    between atoms: C_3  and  C_16
REMARK    5  A    between atoms: C_4  and  O_5
REMARK    6  A    between atoms: O_5  and  C_6
REMARK    7  A    between atoms: C_9  and  C_10
REMARK    8  A    between atoms: C_20  and  O_21
REMARK    9  A    between atoms: O_21  and  C_22
REMARK   10  A    between atoms: N_24  and  C_25
REMARK                            x       y       z     vdW  Elec       q    Type
REMARK                         _______ _______ _______ _____ _____    ______ ____
ROOT
ATOM      1  C   UNL     1      44.555   4.758  12.118  0.00  0.00    +0.000 C 
ENDROOT
BRANCH   1   2
ATOM      2  C   UNL     1      45.805   5.202  12.900  0.00  0.00    +0.000 A 
ATOM      3  C   UNL     1      46.482   6.404  12.626  0.00  0.00    +0.000 A 
ATOM      4  C   UNL     1      47.557   6.834  13.405  0.00  0.00    +0.000 A 
ATOM      5  C   UNL     1      47.999   6.066  14.476  0.00  0.00    +0.000 A 
ATOM      6  C   UNL     1      47.377   4.852  14.750  0.00  0.00    +0.000 A 
ATOM      7  C   UNL     1      46.280   4.436  13.982  0.00  0.00    +0.000 A 
BRANCH   6   8
ATOM      8  O   UNL     1      47.746   4.012  15.774  0.00  0.00    +0.000 OA
BRANCH   8   9
ATOM      9  C   UNL     1      48.477   4.571  16.894  0.00  0.00    +0.000 C 
ATOM     10  C   UNL     1      49.229   3.592  17.824  0.00  0.00    +0.000 C 
ATOM     11  N   UNL     1      48.543   4.153  19.002  0.00  0.00    +0.000 NA
ATOM     12  C   UNL     1      49.427   5.056  19.735  0.00  0.00    +0.000 C 
ATOM     13  C   UNL     1      47.624   4.912  18.136  0.00  0.00    +0.000 C 
ENDBRANCH   8   9
ENDBRANCH   6   8
ENDBRANCH   1   2
BRANCH   1  15
ATOM     14  C   UNL     1      42.162   5.709  11.819  0.00  0.00    +0.000 C 
ATOM     15  C   UNL     1      43.244   5.247  12.790  0.00  0.00    +0.000 C 
ENDBRANCH   1  15
BRANCH   1  16
ATOM     16  C   UNL     1      44.527   3.240  11.783  0.00  0.00    +0.000 C 
BRANCH  16  17
ATOM     17  O   UNL     1      44.143   3.044  10.422  0.00  0.00    +0.000 OA
BRANCH  17  18
ATOM     18  C   UNL     1      45.069   2.999   9.422  0.00  0.00    +0.000 A 
ATOM     19  C   UNL     1      45.292   1.690   8.972  0.00  0.00    +0.000 A 
ATOM     20  C   UNL     1      46.132   1.437   7.889  0.00  0.00    +0.000 A 
ATOM     21  C   UNL     1      46.744   2.521   7.284  0.00  0.00    +0.000 A 
ATOM     22  N   UNL     1      46.606   3.800   7.712  0.00  0.00    +0.000 NA
ATOM     23  C   UNL     1      45.783   4.006   8.772  0.00  0.00    +0.000 A 
ATOM     24 CL   UNL     1      45.768   5.678   9.178  0.00  0.00    +0.000 Cl
BRANCH  21  25
ATOM     25  C   UNL     1      47.582   2.316   6.058  0.00  0.00    +0.000 C 
ATOM     26  N   UNL     1      47.316   3.175   5.025  0.00  0.00    +0.000 N 
ATOM     27  O   UNL     1      48.427   1.440   5.973  0.00  0.00    +0.000 OA
ATOM     28  H   UNL     1      46.581   3.866   5.122  0.00  0.00    +0.000 HD
ATOM     29  H   UNL     1      47.803   3.067   4.146  0.00  0.00    +0.000 HD
ENDBRANCH  21  25
ENDBRANCH  17  18
ENDBRANCH  16  17
ENDBRANCH   1  16
TORSDOF 8
ENDMDL
MODEL 2
REMARK VINA RESULT:    -7.226      2.000      2.383
REMARK INTER + INTRA:         -11.606
REMARK INTER:                 -10.413
REMARK INTRA:                  -1.193
REMARK UNBOUND:                -1.001
REMARK  Name = 
REMARK  10 active torsions:
REMARK  status: ('A' for Active; 'I' for Inactive)
REMARK    1  A    between atoms: C_1  and  C_2
REMARK    2  A    between atoms: C_2  and  C_3
REMARK    3  A    between atoms: C_3  and  C_4
REMARK    4  A    between atoms: C_3  and  C_16
REMARK    5  A    between atoms: C_4  and  O_5
REMARK    6  A    between atoms: O_5  and  C_6
REMARK    7  A    between atoms: C_9  and  C_10
REMARK    8  A    between atoms: C_20  and  O_21
REMARK    9  A    between atoms: O_21  and  C_22
REMARK   10  A    between atoms: N_24  and  C_25
REMARK                            x       y       z     vdW  Elec       q    Type
REMARK                         _______ _______ _______ _____ _____    ______ ____
ROOT
ATOM      1  C   UNL     1      44.857   6.890  11.355  0.00  0.00    +0.000 C 
ENDROOT
BRANCH   1   2
ATOM      2  C   UNL     1      46.092   6.561  12.214  0.00  0.00    +0.000 A 
ATOM      3  C   UNL     1      47.278   7.312  12.153  0.00  0.00    +0.000 A 
ATOM      4  C   UNL     1      48.353   7.055  13.005  0.00  0.00    +0.000 A 
ATOM      5  C   UNL     1      48.281   6.026  13.936  0.00  0.00    +0.000 A 
ATOM      6  C   UNL     1      47.136   5.238  13.996  0.00  0.00    +0.000 A 
ATOM      7  C   UNL     1      46.047   5.516  13.157  0.00  0.00    +0.000 A 
BRANCH   6   8
ATOM      8  O   UNL     1      46.969   4.188  14.867  0.00  0.00    +0.000 OA
BRANCH   8   9
ATOM      9  C   UNL     1      47.792   4.144  16.060  0.00  0.00    +0.000 C 
ATOM     10  C   UNL     1      48.208   2.756  16.599  0.00  0.00    +0.000 C 
ATOM     11  N   UNL     1      47.673   3.091  17.930  0.00  0.00    +0.000 NA
ATOM     12  C   UNL     1      48.752   3.439  18.850  0.00  0.00    +0.000 C 
ATOM     13  C   UNL     1      47.033   4.306  17.394  0.00  0.00    +0.000 C 
ENDBRANCH   8   9
ENDBRANCH   6   8
ENDBRANCH   1   2
BRANCH   1  15
ATOM     14  C   UNL     1      43.175   8.769  10.751  0.00  0.00    +0.000 C 
ATOM     15  C   UNL     1      44.513   8.404  11.386  0.00  0.00    +0.000 C 
ENDBRANCH   1  15
BRANCH   1  16
ATOM     16  C   UNL     1      43.623   5.990  11.650  0.00  0.00    +0.000 C 
BRANCH  16  17
ATOM     17  O   UNL     1      43.180   5.356  10.452  0.00  0.00    +0.000 OA
BRANCH  17  18
ATOM     18  C   UNL     1      43.853   4.296   9.918  0.00  0.00    +0.000 A 
ATOM     19  C   UNL     1      44.480   4.627   8.708  0.00  0.00    +0.000 A 
ATOM     20  C   UNL     1      45.297   3.710   8.050  0.00  0.00    +0.000 A 
ATOM     21  C   UNL     1      45.459   2.463   8.628  0.00  0.00    +0.000 A 
ATOM     22  N   UNL     1      44.836   2.073   9.766  0.00  0.00    +0.000 NA
ATOM     23  C   UNL     1      44.043   2.991  10.377  0.00  0.00    +0.000 A 
ATOM     24 CL   UNL     1      43.322   2.298  11.776  0.00  0.00    +0.000 Cl
BRANCH  21  25
ATOM     25  C   UNL     1      46.402   1.472   8.013  0.00  0.00    +0.000 C 
ATOM     26  N   UNL     1      47.385   2.018   7.230  0.00  0.00    +0.000 N 
ATOM     27  O   UNL     1      46.296   0.268   8.176  0.00  0.00    +0.000 OA
ATOM     28  H   UNL     1      47.417   3.022   7.090  0.00  0.00    +0.000 HD
ATOM     29  H   UNL     1      48.028   1.413   6.739  0.00  0.00    +0.000 HD
ENDBRANCH  21  25
ENDBRANCH  17  18
ENDBRANCH  16  17
ENDBRANCH   1  16
TORSDOF 8
ENDMDL
MODEL 3
REMARK VINA RESULT:    -7.083      2.126      8.034
REMARK INTER + INTRA:         -11.397
REMARK INTER:                 -10.208
REMARK INTRA:                  -1.189
REMARK UNBOUND:                -1.001
REMARK  Name = 
REMARK  10 active torsions:
REMARK  status: ('A' for Active; 'I' for Inactive)
REMARK    1  A    between atoms: C_1  and  C_2
REMARK    2  A    between atoms: C_2  and  C_3
REMARK    3  A    between atoms: C_3  and  C_4
REMARK    4  A    between atoms: C_3  and  C_16
REMARK    5  A    between atoms: C_4  and  O_5
REMARK    6  A    between atoms: O_5  and  C_6
REMARK    7  A    between atoms: C_9  and  C_10
REMARK    8  A    between atoms: C_20  and  O_21
REMARK    9  A    between atoms: O_21  and  C_22
REMARK   10  A    between atoms: N_24  and  C_25
REMARK                            x       y       z     vdW  Elec       q    Type
REMARK                         _______ _______ _______ _____ _____    ______ ____
ROOT
ATOM      1  C   UNL     1      45.303   7.622  12.343  0.00  0.00    +0.000 C 
ENDROOT
BRANCH   1   2
ATOM      2  C   UNL     1      44.610   6.290  12.004  0.00  0.00    +0.000 A 
ATOM      3  C   UNL     1      43.811   5.596  12.930  0.00  0.00    +0.000 A 
ATOM      4  C   UNL     1      43.118   4.437  12.576  0.00  0.00    +0.000 A 
ATOM      5  C   UNL     1      43.214   3.928  11.286  0.00  0.00    +0.000 A 
ATOM      6  C   UNL     1      44.028   4.568  10.357  0.00  0.00    +0.000 A 
ATOM      7  C   UNL     1      44.702   5.746  10.708  0.00  0.00    +0.000 A 
BRANCH   6   8
ATOM      8  O   UNL     1      44.205   4.138   9.064  0.00  0.00    +0.000 OA
BRANCH   8   9
ATOM      9  C   UNL     1      45.502   3.616   8.682  0.00  0.00    +0.000 C 
ATOM     10  C   UNL     1      45.874   3.631   7.182  0.00  0.00    +0.000 C 
ATOM     11  N   UNL     1      46.177   2.189   7.222  0.00  0.00    +0.000 NA
ATOM     12  C   UNL     1      47.620   1.965   7.268  0.00  0.00    +0.000 C 
ATOM     13  C   UNL     1      45.589   2.079   8.569  0.00  0.00    +0.000 C 
ENDBRANCH   8   9
ENDBRANCH   6   8
ENDBRANCH   1   2
BRANCH   1  15
ATOM     14  C   UNL     1      45.222  10.180  11.922  0.00  0.00    +0.000 C 
ATOM     15  C   UNL     1      44.770   8.793  11.475  0.00  0.00    +0.000 C 
ENDBRANCH   1  15
BRANCH   1  16
ATOM     16  C   UNL     1      46.856   7.543  12.352  0.00  0.00    +0.000 C 
BRANCH  16  17
ATOM     17  O   UNL     1      47.278   6.180  12.406  0.00  0.00    +0.000 OA
BRANCH  17  18
ATOM     18  C   UNL     1      47.455   5.538  13.596  0.00  0.00    +0.000 A 
ATOM     19  C   UNL     1      48.127   6.339  14.530  0.00  0.00    +0.000 A 
ATOM     20  C   UNL     1      48.323   5.903  15.839  0.00  0.00    +0.000 A 
ATOM     21  C   UNL     1      47.840   4.652  16.179  0.00  0.00    +0.000 A 
ATOM     22  N   UNL     1      47.231   3.816  15.303  0.00  0.00    +0.000 NA
ATOM     23  C   UNL     1      47.062   4.273  14.035  0.00  0.00    +0.000 A 
ATOM     24 CL   UNL     1      46.305   3.061  13.077  0.00  0.00    +0.000 Cl
BRANCH  21  25
ATOM     25  C   UNL     1      47.939   4.173  17.596  0.00  0.00    +0.000 C 
ATOM     26  N   UNL     1      47.082   4.782  18.474  0.00  0.00    +0.000 N 
ATOM     27  O   UNL     1      48.734   3.320  17.952  0.00  0.00    +0.000 OA
ATOM     28  H   UNL     1      46.460   5.513  18.145  0.00  0.00    +0.000 HD
ATOM     29  H   UNL     1      47.124   4.551  19.457  0.00  0.00    +0.000 HD
ENDBRANCH  21  25
ENDBRANCH  17  18
ENDBRANCH  16  17
ENDBRANCH   1  16
TORSDOF 8
ENDMDL
MODEL 4
REMARK VINA RESULT:    -6.994      1.723      2.268
REMARK INTER + INTRA:         -11.266
REMARK INTER:                 -10.921
REMARK INTRA:                  -0.345
REMARK UNBOUND:                -1.001
REMARK  Name = 
REMARK  10 active torsions:
REMARK  status: ('A' for Active; 'I' for Inactive)
REMARK    1  A    between atoms: C_1  and  C_2
REMARK    2  A    between atoms: C_2  and  C_3
REMARK    3  A    between atoms: C_3  and  C_4
REMARK    4  A    between atoms: C_3  and  C_16
REMARK    5  A    between atoms: C_4  and  O_5
REMARK    6  A    between atoms: O_5  and  C_6
REMARK    7  A    between atoms: C_9  and  C_10
REMARK    8  A    between atoms: C_20  and  O_21
REMARK    9  A    between atoms: O_21  and  C_22
REMARK   10  A    between atoms: N_24  and  C_25
REMARK                            x       y       z     vdW  Elec       q    Type
REMARK                         _______ _______ _______ _____ _____    ______ ____
ROOT
ATOM      1  C   UNL     1      43.531   5.677  12.117  0.00  0.00    +0.000 C 
ENDROOT
BRANCH   1   2
ATOM      2  C   UNL     1      44.868   6.379  12.418  0.00  0.00    +0.000 A 
ATOM      3  C   UNL     1      45.132   7.704  12.028  0.00  0.00    +0.000 A 
ATOM      4  C   UNL     1      46.313   8.353  12.389  0.00  0.00    +0.000 A 
ATOM      5  C   UNL     1      47.277   7.690  13.140  0.00  0.00    +0.000 A 
ATOM      6  C   UNL     1      47.065   6.366  13.508  0.00  0.00    +0.000 A 
ATOM      7  C   UNL     1      45.865   5.725  13.167  0.00  0.00    +0.000 A 
BRANCH   6   8
ATOM      8  O   UNL     1      47.958   5.616  14.236  0.00  0.00    +0.000 OA
BRANCH   8   9
ATOM      9  C   UNL     1      47.462   4.860  15.369  0.00  0.00    +0.000 C 
ATOM     10  C   UNL     1      48.317   4.845  16.657  0.00  0.00    +0.000 C 
ATOM     11  N   UNL     1      48.308   3.372  16.668  0.00  0.00    +0.000 NA
ATOM     12  C   UNL     1      47.356   2.867  17.654  0.00  0.00    +0.000 C 
ATOM     13  C   UNL     1      47.724   3.340  15.316  0.00  0.00    +0.000 C 
ENDBRANCH   8   9
ENDBRANCH   6   8
ENDBRANCH   1   2
BRANCH   1  15
ATOM     14  C   UNL     1      43.543   3.213  12.924  0.00  0.00    +0.000 C 
ATOM     15  C   UNL     1      43.148   4.657  13.222  0.00  0.00    +0.000 C 
ENDBRANCH   1  15
BRANCH   1  16
ATOM     16  C   UNL     1      43.442   5.073  10.687  0.00  0.00    +0.000 C 
BRANCH  16  17
ATOM     17  O   UNL     1      44.663   5.294   9.983  0.00  0.00    +0.000 OA
BRANCH  17  18
ATOM     18  C   UNL     1      45.210   4.330   9.188  0.00  0.00    +0.000 A 
ATOM     19  C   UNL     1      46.100   4.868   8.248  0.00  0.00    +0.000 A 
ATOM     20  C   UNL     1      46.837   4.039   7.403  0.00  0.00    +0.000 A 
ATOM     21  C   UNL     1      46.650   2.673   7.520  0.00  0.00    +0.000 A 
ATOM     22  N   UNL     1      45.765   2.104   8.373  0.00  0.00    +0.000 NA
ATOM     23  C   UNL     1      45.062   2.942   9.177  0.00  0.00    +0.000 A 
ATOM     24 CL   UNL     1      43.977   2.035  10.157  0.00  0.00    +0.000 Cl
BRANCH  21  25
ATOM     25  C   UNL     1      47.485   1.733   6.703  0.00  0.00    +0.000 C 
ATOM     26  N   UNL     1      48.593   2.296   6.126  0.00  0.00    +0.000 N 
ATOM     27  O   UNL     1      47.196   0.559   6.543  0.00  0.00    +0.000 OA
ATOM     28  H   UNL     1      48.779   3.285   6.253  0.00  0.00    +0.000 HD
ATOM     29  H   UNL     1      49.178   1.740   5.518  0.00  0.00    +0.000 HD
ENDBRANCH  21  25
ENDBRANCH  17  18
ENDBRANCH  16  17
ENDBRANCH   1  16
TORSDOF 8
ENDMDL
MODEL 5
REMARK VINA RESULT:    -6.728      2.321      8.711
REMARK INTER + INTRA:         -10.875
REMARK INTER:                  -9.982
REMARK INTRA:                  -0.893
REMARK UNBOUND:                -1.001
REMARK  Name = 
REMARK  10 active torsions:
REMARK  status: ('A' for Active; 'I' for Inactive)
REMARK    1  A    between atoms: C_1  and  C_2
REMARK    2  A    between atoms: C_2  and  C_3
REMARK    3  A    between atoms: C_3  and  C_4
REMARK    4  A    between atoms: C_3  and  C_16
REMARK    5  A    between atoms: C_4  and  O_5
REMARK    6  A    between atoms: O_5  and  C_6
REMARK    7  A    between atoms: C_9  and  C_10
REMARK    8  A    between atoms: C_20  and  O_21
REMARK    9  A    between atoms: O_21  and  C_22
REMARK   10  A    between atoms: N_24  and  C_25
REMARK                            x       y       z     vdW  Elec       q    Type
REMARK                         _______ _______ _______ _____ _____    ______ ____
ROOT
ATOM      1  C   UNL     1      46.306   5.230  13.679  0.00  0.00    +0.000 C 
ENDROOT
BRANCH   1   2
ATOM      2  C   UNL     1      45.064   4.952  12.813  0.00  0.00    +0.000 A 
ATOM      3  C   UNL     1      43.836   5.605  13.018  0.00  0.00    +0.000 A 
ATOM      4  C   UNL     1      42.749   5.407  12.166  0.00  0.00    +0.000 A 
ATOM      5  C   UNL     1      42.852   4.536  11.088  0.00  0.00    +0.000 A 
ATOM      6  C   UNL     1      44.040   3.844  10.879  0.00  0.00    +0.000 A 
ATOM      7  C   UNL     1      45.139   4.065  11.721  0.00  0.00    +0.000 A 
BRANCH   6   8
ATOM      8  O   UNL     1      44.240   2.950   9.854  0.00  0.00    +0.000 OA
BRANCH   8   9
ATOM      9  C   UNL     1      45.521   2.954   9.176  0.00  0.00    +0.000 C 
ATOM     10  C   UNL     1      45.607   3.651   7.799  0.00  0.00    +0.000 C 
ATOM     11  N   UNL     1      46.175   2.433   7.196  0.00  0.00    +0.000 NA
ATOM     12  C   UNL     1      47.618   2.567   7.018  0.00  0.00    +0.000 C 
ATOM     13  C   UNL     1      45.870   1.659   8.413  0.00  0.00    +0.000 C 
ENDBRANCH   8   9
ENDBRANCH   6   8
ENDBRANCH   1   2
BRANCH   1  15
ATOM     14  C   UNL     1      46.716   7.127  11.960  0.00  0.00    +0.000 C 
ATOM     15  C   UNL     1      47.329   6.145  12.954  0.00  0.00    +0.000 C 
ENDBRANCH   1  15
BRANCH   1  16
ATOM     16  C   UNL     1      46.962   3.951  14.273  0.00  0.00    +0.000 C 
BRANCH  16  17
ATOM     17  O   UNL     1      46.934   4.001  15.699  0.00  0.00    +0.000 OA
BRANCH  17  18
ATOM     18  C   UNL     1      48.084   4.070  16.429  0.00  0.00    +0.000 A 
ATOM     19  C   UNL     1      48.457   2.817  16.939  0.00  0.00    +0.000 A 
ATOM     20  C   UNL     1      49.655   2.655  17.633  0.00  0.00    +0.000 A 
ATOM     21  C   UNL     1      50.452   3.772  17.810  0.00  0.00    +0.000 A 
ATOM     22  N   UNL     1      50.114   5.013  17.386  0.00  0.00    +0.000 NA
ATOM     23  C   UNL     1      48.939   5.134  16.717  0.00  0.00    +0.000 A 
ATOM     24 CL   UNL     1      48.677   6.782  16.294  0.00  0.00    +0.000 Cl
BRANCH  21  25
ATOM     25  C   UNL     1      51.793   3.635  18.467  0.00  0.00    +0.000 C 
ATOM     26  N   UNL     1      52.426   2.440  18.246  0.00  0.00    +0.000 N 
ATOM     27  O   UNL     1      52.282   4.509  19.163  0.00  0.00    +0.000 OA
ATOM     28  H   UNL     1      51.970   1.724  17.691  0.00  0.00    +0.000 HD
ATOM     29  H   UNL     1      53.310   2.251  18.697  0.00  0.00    +0.000 HD
ENDBRANCH  21  25
ENDBRANCH  17  18
ENDBRANCH  16  17
ENDBRANCH   1  16
TORSDOF 8
ENDMDL
MODEL 6
REMARK VINA RESULT:    -6.718      2.326      9.224
REMARK INTER + INTRA:         -10.860
REMARK INTER:                  -9.820
REMARK INTRA:                  -1.041
REMARK UNBOUND:                -1.001
REMARK  Name = 
REMARK  10 active torsions:
REMARK  status: ('A' for Active; 'I' for Inactive)
REMARK    1  A    between atoms: C_1  and  C_2
REMARK    2  A    between atoms: C_2  and  C_3
REMARK    3  A    between atoms: C_3  and  C_4
REMARK    4  A    between atoms: C_3  and  C_16
REMARK    5  A    between atoms: C_4  and  O_5
REMARK    6  A    between atoms: O_5  and  C_6
REMARK    7  A    between atoms: C_9  and  C_10
REMARK    8  A    between atoms: C_20  and  O_21
REMARK    9  A    between atoms: O_21  and  C_22
REMARK   10  A    between atoms: N_24  and  C_25
REMARK                            x       y       z     vdW  Elec       q    Type
REMARK                         _______ _______ _______ _____ _____    ______ ____
ROOT
ATOM      1  C   UNL     1      46.445   5.093  13.845  0.00  0.00    +0.000 C 
ENDROOT
BRANCH   1   2
ATOM      2  C   UNL     1      45.194   4.789  13.000  0.00  0.00    +0.000 A 
ATOM      3  C   UNL     1      43.964   5.436  13.209  0.00  0.00    +0.000 A 
ATOM      4  C   UNL     1      42.867   5.214  12.375  0.00  0.00    +0.000 A 
ATOM      5  C   UNL     1      42.963   4.323  11.313  0.00  0.00    +0.000 A 
ATOM      6  C   UNL     1      44.154   3.636  11.101  0.00  0.00    +0.000 A 
ATOM      7  C   UNL     1      45.262   3.882  11.925  0.00  0.00    +0.000 A 
BRANCH   6   8
ATOM      8  O   UNL     1      44.348   2.725  10.091  0.00  0.00    +0.000 OA
BRANCH   8   9
ATOM      9  C   UNL     1      45.575   2.799   9.322  0.00  0.00    +0.000 C 
ATOM     10  C   UNL     1      45.556   3.617   8.011  0.00  0.00    +0.000 C 
ATOM     11  N   UNL     1      46.077   2.461   7.260  0.00  0.00    +0.000 NA
ATOM     12  C   UNL     1      47.503   2.622   6.987  0.00  0.00    +0.000 C 
ATOM     13  C   UNL     1      45.865   1.579   8.421  0.00  0.00    +0.000 C 
ENDBRANCH   8   9
ENDBRANCH   6   8
ENDBRANCH   1   2
BRANCH   1  15
ATOM     14  C   UNL     1      48.410   6.766  14.102  0.00  0.00    +0.000 C 
ATOM     15  C   UNL     1      47.344   6.172  13.185  0.00  0.00    +0.000 C 
ENDBRANCH   1  15
BRANCH   1  16
ATOM     16  C   UNL     1      47.242   3.829  14.272  0.00  0.00    +0.000 C 
BRANCH  16  17
ATOM     17  O   UNL     1      46.900   3.460  15.608  0.00  0.00    +0.000 OA
BRANCH  17  18
ATOM     18  C   UNL     1      47.674   3.832  16.668  0.00  0.00    +0.000 A 
ATOM     19  C   UNL     1      47.170   4.971  17.311  0.00  0.00    +0.000 A 
ATOM     20  C   UNL     1      47.762   5.457  18.476  0.00  0.00    +0.000 A 
ATOM     21  C   UNL     1      48.866   4.782  18.965  0.00  0.00    +0.000 A 
ATOM     22  N   UNL     1      49.426   3.710  18.354  0.00  0.00    +0.000 NA
ATOM     23  C   UNL     1      48.825   3.268  17.220  0.00  0.00    +0.000 A 
ATOM     24 CL   UNL     1      49.698   1.929  16.583  0.00  0.00    +0.000 Cl
BRANCH  21  25
ATOM     25  C   UNL     1      49.484   5.205  20.264  0.00  0.00    +0.000 C 
ATOM     26  N   UNL     1      50.531   4.430  20.687  0.00  0.00    +0.000 N 
ATOM     27  O   UNL     1      49.078   6.156  20.912  0.00  0.00    +0.000 OA
ATOM     28  H   UNL     1      50.816   3.626  20.138  0.00  0.00    +0.000 HD
ATOM     29  H   UNL     1      50.967   4.619  21.578  0.00  0.00    +0.000 HD
ENDBRANCH  21  25
ENDBRANCH  17  18
ENDBRANCH  16  17
ENDBRANCH   1  16
TORSDOF 8
ENDMDL
MODEL 7
REMARK VINA RESULT:    -6.693      2.071      2.796
REMARK INTER + INTRA:         -10.824
REMARK INTER:                  -9.868
REMARK INTRA:                  -0.956
REMARK UNBOUND:                -1.001
REMARK  Name = 
REMARK  10 active torsions:
REMARK  status: ('A' for Active; 'I' for Inactive)
REMARK    1  A    between atoms: C_1  and  C_2
REMARK    2  A    between atoms: C_2  and  C_3
REMARK    3  A    between atoms: C_3  and  C_4
REMARK    4  A    between atoms: C_3  and  C_16
REMARK    5  A    between atoms: C_4  and  O_5
REMARK    6  A    between atoms: O_5  and  C_6
REMARK    7  A    between atoms: C_9  and  C_10
REMARK    8  A    between atoms: C_20  and  O_21
REMARK    9  A    between atoms: O_21  and  C_22
REMARK   10  A    between atoms: N_24  and  C_25
REMARK                            x       y       z     vdW  Elec       q    Type
REMARK                         _______ _______ _______ _____ _____    ______ ____
ROOT
ATOM      1  C   UNL     1      45.671   6.503  12.731  0.00  0.00    +0.000 C 
ENDROOT
BRANCH   1   2
ATOM      2  C   UNL     1      47.162   6.875  12.833  0.00  0.00    +0.000 A 
ATOM      3  C   UNL     1      47.939   7.202  11.709  0.00  0.00    +0.000 A 
ATOM      4  C   UNL     1      49.263   7.625  11.831  0.00  0.00    +0.000 A 
ATOM      5  C   UNL     1      49.857   7.721  13.084  0.00  0.00    +0.000 A 
ATOM      6  C   UNL     1      49.128   7.367  14.214  0.00  0.00    +0.000 A 
ATOM      7  C   UNL     1      47.790   6.968  14.091  0.00  0.00    +0.000 A 
BRANCH   6   8
ATOM      8  O   UNL     1      49.625   7.410  15.495  0.00  0.00    +0.000 OA
BRANCH   8   9
ATOM      9  C   UNL     1      49.008   6.570  16.503  0.00  0.00    +0.000 C 
ATOM     10  C   UNL     1      48.971   7.095  17.956  0.00  0.00    +0.000 C 
ATOM     11  N   UNL     1      49.610   5.858  18.439  0.00  0.00    +0.000 NA
ATOM     12  C   UNL     1      48.625   4.972  19.053  0.00  0.00    +0.000 C 
ATOM     13  C   UNL     1      49.900   5.438  17.057  0.00  0.00    +0.000 C 
ENDBRANCH   8   9
ENDBRANCH   6   8
ENDBRANCH   1   2
BRANCH   1  15
ATOM     14  C   UNL     1      46.495   4.096  13.231  0.00  0.00    +0.000 C 
ATOM     15  C   UNL     1      45.371   5.120  13.368  0.00  0.00    +0.000 C 
ENDBRANCH   1  15
BRANCH   1  16
ATOM     16  C   UNL     1      45.082   6.643  11.299  0.00  0.00    +0.000 C 
BRANCH  16  17
ATOM     17  O   UNL     1      44.215   5.546  11.014  0.00  0.00    +0.000 OA
BRANCH  17  18
ATOM     18  C   UNL     1      44.619   4.508  10.225  0.00  0.00    +0.000 A 
ATOM     19  C   UNL     1      45.411   4.942   9.153  0.00  0.00    +0.000 A 
ATOM     20  C   UNL     1      46.003   4.028   8.283  0.00  0.00    +0.000 A 
ATOM     21  C   UNL     1      45.772   2.683   8.511  0.00  0.00    +0.000 A 
ATOM     22  N   UNL     1      44.972   2.212   9.498  0.00  0.00    +0.000 NA
ATOM     23  C   UNL     1      44.410   3.132  10.323  0.00  0.00    +0.000 A 
ATOM     24 CL   UNL     1      43.412   2.342  11.481  0.00  0.00    +0.000 Cl
BRANCH  21  25
ATOM     25  C   UNL     1      46.460   1.654   7.664  0.00  0.00    +0.000 C 
ATOM     26  N   UNL     1      46.972   2.125   6.484  0.00  0.00    +0.000 N 
ATOM     27  O   UNL     1      46.544   0.481   7.985  0.00  0.00    +0.000 OA
ATOM     28  H   UNL     1      46.850   3.100   6.235  0.00  0.00    +0.000 HD
ATOM     29  H   UNL     1      47.405   1.483   5.834  0.00  0.00    +0.000 HD
ENDBRANCH  21  25
ENDBRANCH  17  18
ENDBRANCH  16  17
ENDBRANCH   1  16
TORSDOF 8
ENDMDL
MODEL 8
REMARK VINA RESULT:    -6.211      3.310      5.038
REMARK INTER + INTRA:         -10.116
REMARK INTER:                  -8.853
REMARK INTRA:                  -1.264
REMARK UNBOUND:                -1.001
REMARK  Name = 
REMARK  10 active torsions:
REMARK  status: ('A' for Active; 'I' for Inactive)
REMARK    1  A    between atoms: C_1  and  C_2
REMARK    2  A    between atoms: C_2  and  C_3
REMARK    3  A    between atoms: C_3  and  C_4
REMARK    4  A    between atoms: C_3  and  C_16
REMARK    5  A    between atoms: C_4  and  O_5
REMARK    6  A    between atoms: O_5  and  C_6
REMARK    7  A    between atoms: C_9  and  C_10
REMARK    8  A    between atoms: C_20  and  O_21
REMARK    9  A    between atoms: O_21  and  C_22
REMARK   10  A    between atoms: N_24  and  C_25
REMARK                            x       y       z     vdW  Elec       q    Type
REMARK                         _______ _______ _______ _____ _____    ______ ____
ROOT
ATOM      1  C   UNL     1      48.701   7.534  13.138  0.00  0.00    +0.000 C 
ENDROOT
BRANCH   1   2
ATOM      2  C   UNL     1      48.734   7.903  14.633  0.00  0.00    +0.000 A 
ATOM      3  C   UNL     1      48.292   9.147  15.116  0.00  0.00    +0.000 A 
ATOM      4  C   UNL     1      48.244   9.428  16.482  0.00  0.00    +0.000 A 
ATOM      5  C   UNL     1      48.653   8.477  17.409  0.00  0.00    +0.000 A 
ATOM      6  C   UNL     1      49.134   7.250  16.964  0.00  0.00    +0.000 A 
ATOM      7  C   UNL     1      49.155   6.961  15.592  0.00  0.00    +0.000 A 
BRANCH   6   8
ATOM      8  O   UNL     1      49.576   6.249  17.795  0.00  0.00    +0.000 OA
BRANCH   8   9
ATOM      9  C   UNL     1      49.896   4.961  17.212  0.00  0.00    +0.000 C 
ATOM     10  C   UNL     1      48.956   3.774  17.523  0.00  0.00    +0.000 C 
ATOM     11  N   UNL     1      50.097   2.968  17.992  0.00  0.00    +0.000 NA
ATOM     12  C   UNL     1      50.496   1.995  16.977  0.00  0.00    +0.000 C 
ATOM     13  C   UNL     1      50.978   4.148  17.957  0.00  0.00    +0.000 C 
ENDBRANCH   8   9
ENDBRANCH   6   8
ENDBRANCH   1   2
BRANCH   1  15
ATOM     14  C   UNL     1      49.737   9.301  11.548  0.00  0.00    +0.000 C 
ATOM     15  C   UNL     1      49.959   8.044  12.385  0.00  0.00    +0.000 C 
ENDBRANCH   1  15
BRANCH   1  16
ATOM     16  C   UNL     1      47.376   7.920  12.422  0.00  0.00    +0.000 C 
BRANCH  16  17
ATOM     17  O   UNL     1      46.258   7.411  13.149  0.00  0.00    +0.000 OA
BRANCH  17  18
ATOM     18  C   UNL     1      45.682   6.218  12.821  0.00  0.00    +0.000 A 
ATOM     19  C   UNL     1      44.812   6.339  11.728  0.00  0.00    +0.000 A 
ATOM     20  C   UNL     1      44.196   5.217  11.176  0.00  0.00    +0.000 A 
ATOM     21  C   UNL     1      44.464   3.988  11.752  0.00  0.00    +0.000 A 
ATOM     22  N   UNL     1      45.253   3.822  12.841  0.00  0.00    +0.000 NA
ATOM     23  C   UNL     1      45.833   4.937  13.353  0.00  0.00    +0.000 A 
ATOM     24 CL   UNL     1      46.762   4.523  14.741  0.00  0.00    +0.000 Cl
BRANCH  21  25
ATOM     25  C   UNL     1      43.903   2.739  11.140  0.00  0.00    +0.000 C 
ATOM     26  N   UNL     1      44.578   2.279  10.040  0.00  0.00    +0.000 N 
ATOM     27  O   UNL     1      42.909   2.180  11.571  0.00  0.00    +0.000 OA
ATOM     28  H   UNL     1      45.379   2.794   9.690  0.00  0.00    +0.000 HD
ATOM     29  H   UNL     1      44.231   1.472   9.541  0.00  0.00    +0.000 HD
ENDBRANCH  21  25
ENDBRANCH  17  18
ENDBRANCH  16  17
ENDBRANCH   1  16
TORSDOF 8
ENDMDL
MODEL 9
REMARK VINA RESULT:    -6.041      3.828      7.778
REMARK INTER + INTRA:          -9.867
REMARK INTER:                  -8.533
REMARK INTRA:                  -1.335
REMARK UNBOUND:                -1.001
REMARK  Name = 
REMARK  10 active torsions:
REMARK  status: ('A' for Active; 'I' for Inactive)
REMARK    1  A    between atoms: C_1  and  C_2
REMARK    2  A    between atoms: C_2  and  C_3
REMARK    3  A    between atoms: C_3  and  C_4
REMARK    4  A    between atoms: C_3  and  C_16
REMARK    5  A    between atoms: C_4  and  O_5
REMARK    6  A    between atoms: O_5  and  C_6
REMARK    7  A    between atoms: C_9  and  C_10
REMARK    8  A    between atoms: C_20  and  O_21
REMARK    9  A    between atoms: O_21  and  C_22
REMARK   10  A    between atoms: N_24  and  C_25
REMARK                            x       y       z     vdW  Elec       q    Type
REMARK                         _______ _______ _______ _____ _____    ______ ____
ROOT
ATOM      1  C   UNL     1      47.665   8.900  12.914  0.00  0.00    +0.000 C 
ENDROOT
BRANCH   1   2
ATOM      2  C   UNL     1      46.316   9.185  12.229  0.00  0.00    +0.000 A 
ATOM      3  C   UNL     1      45.956  10.464  11.770  0.00  0.00    +0.000 A 
ATOM      4  C   UNL     1      44.768  10.684  11.070  0.00  0.00    +0.000 A 
ATOM      5  C   UNL     1      43.895   9.632  10.821  0.00  0.00    +0.000 A 
ATOM      6  C   UNL     1      44.202   8.362  11.296  0.00  0.00    +0.000 A 
ATOM      7  C   UNL     1      45.409   8.138  11.975  0.00  0.00    +0.000 A 
BRANCH   6   8
ATOM      8  O   UNL     1      43.402   7.259  11.118  0.00  0.00    +0.000 OA
BRANCH   8   9
ATOM      9  C   UNL     1      43.878   5.976  11.597  0.00  0.00    +0.000 C 
ATOM     10  C   UNL     1      43.709   4.751  10.669  0.00  0.00    +0.000 C 
ATOM     11  N   UNL     1      43.017   4.012  11.740  0.00  0.00    +0.000 NA
ATOM     12  C   UNL     1      43.913   3.040  12.361  0.00  0.00    +0.000 C 
ATOM     13  C   UNL     1      42.926   5.234  12.559  0.00  0.00    +0.000 C 
ENDBRANCH   8   9
ENDBRANCH   6   8
ENDBRANCH   1   2
BRANCH   1  15
ATOM     14  C   UNL     1      49.603  10.588  12.574  0.00  0.00    +0.000 C 
ATOM     15  C   UNL     1      48.367  10.203  13.381  0.00  0.00    +0.000 C 
ENDBRANCH   1  15
BRANCH   1  16
ATOM     16  C   UNL     1      48.607   7.973  12.094  0.00  0.00    +0.000 C 
BRANCH  16  17
ATOM     17  O   UNL     1      48.277   6.605  12.329  0.00  0.00    +0.000 OA
BRANCH  17  18
ATOM     18  C   UNL     1      48.072   6.131  13.592  0.00  0.00    +0.000 A 
ATOM     19  C   UNL     1      46.979   5.255  13.652  0.00  0.00    +0.000 A 
ATOM     20  C   UNL     1      46.661   4.587  14.833  0.00  0.00    +0.000 A 
ATOM     21  C   UNL     1      47.454   4.827  15.941  0.00  0.00    +0.000 A 
ATOM     22  N   UNL     1      48.488   5.703  15.952  0.00  0.00    +0.000 NA
ATOM     23  C   UNL     1      48.766   6.338  14.785  0.00  0.00    +0.000 A 
ATOM     24 CL   UNL     1      50.081   7.423  15.012  0.00  0.00    +0.000 Cl
BRANCH  21  25
ATOM     25  C   UNL     1      47.214   4.064  17.210  0.00  0.00    +0.000 C 
ATOM     26  N   UNL     1      47.755   4.628  18.335  0.00  0.00    +0.000 N 
ATOM     27  O   UNL     1      46.601   3.010  17.243  0.00  0.00    +0.000 OA
ATOM     28  H   UNL     1      48.289   5.487  18.261  0.00  0.00    +0.000 HD
ATOM     29  H   UNL     1      47.681   4.148  19.221  0.00  0.00    +0.000 HD
ENDBRANCH  21  25
ENDBRANCH  17  18
ENDBRANCH  16  17
ENDBRANCH   1  16
TORSDOF 8
ENDMDL
