MODEL 1
REMARK VINA RESULT:    -7.384      0.000      0.000
REMARK INTER + INTRA:          -9.202
REMARK INTER:                  -8.679
REMARK INTRA:                  -0.524
REMARK UNBOUND:                -0.524
REMARK  Name = 
REMARK  3 active torsions:
REMARK  status: ('A' for Active; 'I' for Inactive)
REMARK    1  A    between atoms: C_3  and  O_4
REMARK    2  A    between atoms: O_4  and  C_5
REMARK    3  A    between atoms: C_5  and  C_6
REMARK                            x       y       z     vdW  Elec       q    Type
REMARK                         _______ _______ _______ _____ _____    ______ ____
ROOT
ATOM      1  C   UNL     1      44.543   4.336  10.656  0.00  0.00    +0.000 A 
ATOM      2  C   UNL     1      43.445   3.861  11.366  0.00  0.00    +0.000 A 
ATOM      3  C   UNL     1      43.564   3.743  12.737  0.00  0.00    +0.000 A 
ATOM      4  N   UNL     1      44.683   4.060  13.424  0.00  0.00    +0.000 NA
ATOM      5  C   UNL     1      45.742   4.569  12.758  0.00  0.00    +0.000 A 
ATOM      6  N   UNL     1      46.864   4.892  13.487  0.00  0.00    +0.000 N 
ATOM      7  C   UNL     1      47.194   4.083  14.657  0.00  0.00    +0.000 C 
ATOM      8  C   UNL     1      47.432   4.986  15.862  0.00  0.00    +0.000 C 
ATOM      9  C   UNL     1      48.473   6.058  15.547  0.00  0.00    +0.000 C 
ATOM     10  C   UNL     1      48.083   6.844  14.297  0.00  0.00    +0.000 C 
ATOM     11  C   UNL     1      47.812   5.926  13.101  0.00  0.00    +0.000 C 
ATOM     12  C   UNL     1      45.684   4.729  11.373  0.00  0.00    +0.000 A 
ENDROOT
BRANCH   1  13
ATOM     13  C   UNL     1      44.519   4.398   9.151  0.00  0.00    +0.000 C 
BRANCH  13  14
ATOM     14  O   UNL     1      44.491   3.077   8.616  0.00  0.00    +0.000 OA
BRANCH  14  17
ATOM     15  C   UNL     1      47.664   2.782   6.763  0.00  0.00    +0.000 A 
ATOM     16  C   UNL     1      46.542   3.404   7.291  0.00  0.00    +0.000 A 
ATOM     17  C   UNL     1      45.647   2.633   8.028  0.00  0.00    +0.000 A 
ATOM     18  C   UNL     1      45.912   1.278   8.206  0.00  0.00    +0.000 A 
ATOM     19  C   UNL     1      47.060   0.749   7.640  0.00  0.00    +0.000 A 
ATOM     20  N   UNL     1      47.943   1.472   6.921  0.00  0.00    +0.000 NA
ENDBRANCH  14  17
ENDBRANCH  13  14
ENDBRANCH   1  13
TORSDOF 3
ENDMDL
MODEL 2
REMARK VINA RESULT:    -7.318      1.365      1.978
REMARK INTER + INTRA:          -9.125
REMARK INTER:                  -8.643
REMARK INTRA:                  -0.482
REMARK UNBOUND:                -0.524
REMARK  Name = 
REMARK  3 active torsions:
REMARK  status: ('A' for Active; 'I' for Inactive)
REMARK    1  A    between atoms: C_3  and  O_4
REMARK    2  A    between atoms: O_4  and  C_5
REMARK    3  A    between atoms: C_5  and  C_6
REMARK                            x       y       z     vdW  Elec       q    Type
REMARK                         _______ _______ _______ _____ _____    ______ ____
ROOT
ATOM      1  C   UNL     1      44.494   4.874  10.511  0.00  0.00    +0.000 A 
ATOM      2  C   UNL     1      43.542   4.782  11.521  0.00  0.00    +0.000 A 
ATOM      3  C   UNL     1      43.876   5.266  12.771  0.00  0.00    +0.000 A 
ATOM      4  N   UNL     1      45.072   5.818  13.068  0.00  0.00    +0.000 NA
ATOM      5  C   UNL     1      45.992   5.961  12.089  0.00  0.00    +0.000 A 
ATOM      6  N   UNL     1      47.197   6.537  12.419  0.00  0.00    +0.000 N 
ATOM      7  C   UNL     1      47.740   6.305  13.755  0.00  0.00    +0.000 C 
ATOM      8  C   UNL     1      48.121   7.634  14.398  0.00  0.00    +0.000 C 
ATOM      9  C   UNL     1      49.052   8.435  13.491  0.00  0.00    +0.000 C 
ATOM     10  C   UNL     1      48.438   8.614  12.103  0.00  0.00    +0.000 C 
ATOM     11  C   UNL     1      48.028   7.276  11.480  0.00  0.00    +0.000 C 
ATOM     12  C   UNL     1      45.713   5.507  10.798  0.00  0.00    +0.000 A 
ENDROOT
BRANCH   1  13
ATOM     13  C   UNL     1      44.236   4.279   9.151  0.00  0.00    +0.000 C 
BRANCH  13  14
ATOM     14  O   UNL     1      45.380   4.462   8.322  0.00  0.00    +0.000 OA
BRANCH  14  17
ATOM     15  C   UNL     1      46.553   0.999   7.851  0.00  0.00    +0.000 A 
ATOM     16  C   UNL     1      45.814   2.038   8.397  0.00  0.00    +0.000 A 
ATOM     17  C   UNL     1      46.016   3.323   7.901  0.00  0.00    +0.000 A 
ATOM     18  C   UNL     1      46.946   3.513   6.882  0.00  0.00    +0.000 A 
ATOM     19  C   UNL     1      47.635   2.412   6.401  0.00  0.00    +0.000 A 
ATOM     20  N   UNL     1      47.458   1.157   6.864  0.00  0.00    +0.000 NA
ENDBRANCH  14  17
ENDBRANCH  13  14
ENDBRANCH   1  13
TORSDOF 3
ENDMDL
MODEL 3
REMARK VINA RESULT:    -7.186      1.261      1.735
REMARK INTER + INTRA:          -8.970
REMARK INTER:                  -8.449
REMARK INTRA:                  -0.521
REMARK UNBOUND:                -0.524
REMARK  Name = 
REMARK  3 active torsions:
REMARK  status: ('A' for Active; 'I' for Inactive)
REMARK    1  A    between atoms: C_3  and  O_4
REMARK    2  A    between atoms: O_4  and  C_5
REMARK    3  A    between atoms: C_5  and  C_6
REMARK                            x       y       z     vdW  Elec       q    Type
REMARK                         _______ _______ _______ _____ _____    ______ ____
ROOT
ATOM      1  C   UNL     1      45.006   4.440  10.522  0.00  0.00    +0.000 A 
ATOM      2  C   UNL     1      44.867   3.427  11.464  0.00  0.00    +0.000 A 
ATOM      3  C   UNL     1      45.497   3.585  12.682  0.00  0.00    +0.000 A 
ATOM      4  N   UNL     1      46.241   4.663  13.009  0.00  0.00    +0.000 NA
ATOM      5  C   UNL     1      46.349   5.680  12.126  0.00  0.00    +0.000 A 
ATOM      6  N   UNL     1      47.105   6.770  12.491  0.00  0.00    +0.000 N 
ATOM      7  C   UNL     1      48.274   6.557  13.341  0.00  0.00    +0.000 C 
ATOM      8  C   UNL     1      48.229   7.508  14.532  0.00  0.00    +0.000 C 
ATOM      9  C   UNL     1      48.063   8.955  14.073  0.00  0.00    +0.000 C 
ATOM     10  C   UNL     1      46.843   9.101  13.165  0.00  0.00    +0.000 C 
ATOM     11  C   UNL     1      46.881   8.118  11.990  0.00  0.00    +0.000 C 
ATOM     12  C   UNL     1      45.724   5.592  10.881  0.00  0.00    +0.000 A 
ENDROOT
BRANCH   1  13
ATOM     13  C   UNL     1      44.429   4.292   9.138  0.00  0.00    +0.000 C 
BRANCH  13  14
ATOM     14  O   UNL     1      44.522   2.932   8.722  0.00  0.00    +0.000 OA
BRANCH  14  17
ATOM     15  C   UNL     1      47.634   2.871   6.747  0.00  0.00    +0.000 A 
ATOM     16  C   UNL     1      46.504   3.414   7.341  0.00  0.00    +0.000 A 
ATOM     17  C   UNL     1      45.675   2.571   8.075  0.00  0.00    +0.000 A 
ATOM     18  C   UNL     1      46.010   1.224   8.182  0.00  0.00    +0.000 A 
ATOM     19  C   UNL     1      47.159   0.775   7.553  0.00  0.00    +0.000 A 
ATOM     20  N   UNL     1      47.980   1.571   6.837  0.00  0.00    +0.000 NA
ENDBRANCH  14  17
ENDBRANCH  13  14
ENDBRANCH   1  13
TORSDOF 3
ENDMDL
MODEL 4
REMARK VINA RESULT:    -6.708      1.889      3.460
REMARK INTER + INTRA:          -8.408
REMARK INTER:                  -7.972
REMARK INTRA:                  -0.436
REMARK UNBOUND:                -0.524
REMARK  Name = 
REMARK  3 active torsions:
REMARK  status: ('A' for Active; 'I' for Inactive)
REMARK    1  A    between atoms: C_3  and  O_4
REMARK    2  A    between atoms: O_4  and  C_5
REMARK    3  A    between atoms: C_5  and  C_6
REMARK                            x       y       z     vdW  Elec       q    Type
REMARK                         _______ _______ _______ _____ _____    ______ ____
ROOT
ATOM      1  C   UNL     1      45.836   5.252  12.831  0.00  0.00    +0.000 A 
ATOM      2  C   UNL     1      46.672   6.178  12.215  0.00  0.00    +0.000 A 
ATOM      3  C   UNL     1      47.820   6.556  12.882  0.00  0.00    +0.000 A 
ATOM      4  N   UNL     1      48.176   6.082  14.096  0.00  0.00    +0.000 NA
ATOM      5  C   UNL     1      47.402   5.146  14.688  0.00  0.00    +0.000 A 
ATOM      6  N   UNL     1      47.795   4.674  15.920  0.00  0.00    +0.000 N 
ATOM      7  C   UNL     1      48.478   5.587  16.832  0.00  0.00    +0.000 C 
ATOM      8  C   UNL     1      49.763   4.945  17.343  0.00  0.00    +0.000 C 
ATOM      9  C   UNL     1      49.487   3.571  17.947  0.00  0.00    +0.000 C 
ATOM     10  C   UNL     1      48.745   2.678  16.954  0.00  0.00    +0.000 C 
ATOM     11  C   UNL     1      47.473   3.346  16.420  0.00  0.00    +0.000 C 
ATOM     12  C   UNL     1      46.235   4.708  14.062  0.00  0.00    +0.000 A 
ENDROOT
BRANCH   1  13
ATOM     13  C   UNL     1      44.519   4.867  12.208  0.00  0.00    +0.000 C 
BRANCH  13  14
ATOM     14  O   UNL     1      44.517   5.226  10.829  0.00  0.00    +0.000 OA
BRANCH  14  17
ATOM     15  C   UNL     1      45.082   2.026   9.090  0.00  0.00    +0.000 A 
ATOM     16  C   UNL     1      44.642   2.880  10.091  0.00  0.00    +0.000 A 
ATOM     17  C   UNL     1      44.877   4.244   9.944  0.00  0.00    +0.000 A 
ATOM     18  C   UNL     1      45.541   4.694   8.806  0.00  0.00    +0.000 A 
ATOM     19  C   UNL     1      45.942   3.764   7.862  0.00  0.00    +0.000 A 
ATOM     20  N   UNL     1      45.727   2.437   7.979  0.00  0.00    +0.000 NA
ENDBRANCH  14  17
ENDBRANCH  13  14
ENDBRANCH   1  13
TORSDOF 3
ENDMDL
MODEL 5
REMARK VINA RESULT:    -6.662      2.315      3.324
REMARK INTER + INTRA:          -8.354
REMARK INTER:                  -7.826
REMARK INTRA:                  -0.528
REMARK UNBOUND:                -0.524
REMARK  Name = 
REMARK  3 active torsions:
REMARK  status: ('A' for Active; 'I' for Inactive)
REMARK    1  A    between atoms: C_3  and  O_4
REMARK    2  A    between atoms: O_4  and  C_5
REMARK    3  A    between atoms: C_5  and  C_6
REMARK                            x       y       z     vdW  Elec       q    Type
REMARK                         _______ _______ _______ _____ _____    ______ ____
ROOT
ATOM      1  C   UNL     1      45.078   4.144  12.020  0.00  0.00    +0.000 A 
ATOM      2  C   UNL     1      45.926   3.697  13.027  0.00  0.00    +0.000 A 
ATOM      3  C   UNL     1      46.810   4.603  13.579  0.00  0.00    +0.000 A 
ATOM      4  N   UNL     1      46.898   5.895  13.196  0.00  0.00    +0.000 NA
ATOM      5  C   UNL     1      46.050   6.361  12.254  0.00  0.00    +0.000 A 
ATOM      6  N   UNL     1      46.156   7.684  11.892  0.00  0.00    +0.000 N 
ATOM      7  C   UNL     1      47.477   8.307  11.904  0.00  0.00    +0.000 C 
ATOM      8  C   UNL     1      47.427   9.613  12.690  0.00  0.00    +0.000 C 
ATOM      9  C   UNL     1      46.325  10.529  12.164  0.00  0.00    +0.000 C 
ATOM     10  C   UNL     1      44.979   9.806  12.149  0.00  0.00    +0.000 C 
ATOM     11  C   UNL     1      45.047   8.479  11.386  0.00  0.00    +0.000 C 
ATOM     12  C   UNL     1      45.121   5.501  11.665  0.00  0.00    +0.000 A 
ENDROOT
BRANCH   1  13
ATOM     13  C   UNL     1      44.158   3.189  11.305  0.00  0.00    +0.000 C 
BRANCH  13  14
ATOM     14  O   UNL     1      44.024   3.582   9.942  0.00  0.00    +0.000 OA
BRANCH  14  17
ATOM     15  C   UNL     1      46.424   1.557   8.012  0.00  0.00    +0.000 A 
ATOM     16  C   UNL     1      45.421   1.822   8.933  0.00  0.00    +0.000 A 
ATOM     17  C   UNL     1      44.995   3.139   9.082  0.00  0.00    +0.000 A 
ATOM     18  C   UNL     1      45.588   4.130   8.306  0.00  0.00    +0.000 A 
ATOM     19  C   UNL     1      46.582   3.767   7.413  0.00  0.00    +0.000 A 
ATOM     20  N   UNL     1      47.014   2.499   7.249  0.00  0.00    +0.000 NA
ENDBRANCH  14  17
ENDBRANCH  13  14
ENDBRANCH   1  13
TORSDOF 3
ENDMDL
MODEL 6
REMARK VINA RESULT:    -6.299      2.681      4.460
REMARK INTER + INTRA:          -7.927
REMARK INTER:                  -7.428
REMARK INTRA:                  -0.499
REMARK UNBOUND:                -0.524
REMARK  Name = 
REMARK  3 active torsions:
REMARK  status: ('A' for Active; 'I' for Inactive)
REMARK    1  A    between atoms: C_3  and  O_4
REMARK    2  A    between atoms: O_4  and  C_5
REMARK    3  A    between atoms: C_5  and  C_6
REMARK                            x       y       z     vdW  Elec       q    Type
REMARK                         _______ _______ _______ _____ _____    ______ ____
ROOT
ATOM      1  C   UNL     1      46.982   6.824  12.481  0.00  0.00    +0.000 A 
ATOM      2  C   UNL     1      48.179   7.413  12.087  0.00  0.00    +0.000 A 
ATOM      3  C   UNL     1      49.264   7.302  12.934  0.00  0.00    +0.000 A 
ATOM      4  N   UNL     1      49.229   6.657  14.120  0.00  0.00    +0.000 NA
ATOM      5  C   UNL     1      48.090   6.037  14.498  0.00  0.00    +0.000 A 
ATOM      6  N   UNL     1      48.087   5.380  15.706  0.00  0.00    +0.000 N 
ATOM      7  C   UNL     1      48.894   5.921  16.797  0.00  0.00    +0.000 C 
ATOM      8  C   UNL     1      49.768   4.821  17.391  0.00  0.00    +0.000 C 
ATOM      9  C   UNL     1      48.930   3.611  17.793  0.00  0.00    +0.000 C 
ATOM     10  C   UNL     1      48.090   3.116  16.617  0.00  0.00    +0.000 C 
ATOM     11  C   UNL     1      47.240   4.235  16.006  0.00  0.00    +0.000 C 
ATOM     12  C   UNL     1      46.959   6.097  13.682  0.00  0.00    +0.000 A 
ENDROOT
BRANCH   1  13
ATOM     13  C   UNL     1      45.733   6.988  11.656  0.00  0.00    +0.000 C 
BRANCH  13  14
ATOM     14  O   UNL     1      45.766   6.090  10.549  0.00  0.00    +0.000 OA
BRANCH  14  17
ATOM     15  C   UNL     1      44.191   2.788  10.099  0.00  0.00    +0.000 A 
ATOM     16  C   UNL     1      45.072   3.831   9.854  0.00  0.00    +0.000 A 
ATOM     17  C   UNL     1      44.984   4.969  10.651  0.00  0.00    +0.000 A 
ATOM     18  C   UNL     1      44.020   5.015  11.655  0.00  0.00    +0.000 A 
ATOM     19  C   UNL     1      43.186   3.924  11.823  0.00  0.00    +0.000 A 
ATOM     20  N   UNL     1      43.250   2.809  11.065  0.00  0.00    +0.000 NA
ENDBRANCH  14  17
ENDBRANCH  13  14
ENDBRANCH   1  13
TORSDOF 3
ENDMDL
MODEL 7
REMARK VINA RESULT:    -5.883      2.585      6.524
REMARK INTER + INTRA:          -7.439
REMARK INTER:                  -6.952
REMARK INTRA:                  -0.487
REMARK UNBOUND:                -0.524
REMARK  Name = 
REMARK  3 active torsions:
REMARK  status: ('A' for Active; 'I' for Inactive)
REMARK    1  A    between atoms: C_3  and  O_4
REMARK    2  A    between atoms: O_4  and  C_5
REMARK    3  A    between atoms: C_5  and  C_6
REMARK                            x       y       z     vdW  Elec       q    Type
REMARK                         _______ _______ _______ _____ _____    ______ ____
ROOT
ATOM      1  C   UNL     1      45.161   6.605  12.160  0.00  0.00    +0.000 A 
ATOM      2  C   UNL     1      45.165   5.759  13.265  0.00  0.00    +0.000 A 
ATOM      3  C   UNL     1      45.164   4.398  13.036  0.00  0.00    +0.000 A 
ATOM      4  N   UNL     1      45.157   3.842  11.805  0.00  0.00    +0.000 NA
ATOM      5  C   UNL     1      45.201   4.646  10.720  0.00  0.00    +0.000 A 
ATOM      6  N   UNL     1      45.203   4.051   9.480  0.00  0.00    +0.000 N 
ATOM      7  C   UNL     1      44.462   2.805   9.302  0.00  0.00    +0.000 C 
ATOM      8  C   UNL     1      45.357   1.758   8.646  0.00  0.00    +0.000 C 
ATOM      9  C   UNL     1      45.972   2.293   7.356  0.00  0.00    +0.000 C 
ATOM     10  C   UNL     1      46.704   3.611   7.607  0.00  0.00    +0.000 C 
ATOM     11  C   UNL     1      45.807   4.644   8.296  0.00  0.00    +0.000 C 
ATOM     12  C   UNL     1      45.220   6.032  10.880  0.00  0.00    +0.000 A 
ENDROOT
BRANCH   1  13
ATOM     13  C   UNL     1      45.063   8.099  12.333  0.00  0.00    +0.000 C 
BRANCH  13  14
ATOM     14  O   UNL     1      46.247   8.718  11.836  0.00  0.00    +0.000 OA
BRANCH  14  17
ATOM     15  C   UNL     1      49.625   7.520  12.696  0.00  0.00    +0.000 A 
ATOM     16  C   UNL     1      48.523   7.778  11.894  0.00  0.00    +0.000 A 
ATOM     17  C   UNL     1      47.417   8.394  12.473  0.00  0.00    +0.000 A 
ATOM     18  C   UNL     1      47.460   8.723  13.825  0.00  0.00    +0.000 A 
ATOM     19  C   UNL     1      48.605   8.425  14.542  0.00  0.00    +0.000 A 
ATOM     20  N   UNL     1      49.691   7.830  14.007  0.00  0.00    +0.000 NA
ENDBRANCH  14  17
ENDBRANCH  13  14
ENDBRANCH   1  13
TORSDOF 3
ENDMDL
MODEL 8
REMARK VINA RESULT:    -5.759      3.568      7.605
REMARK INTER + INTRA:          -7.293
REMARK INTER:                  -6.744
REMARK INTRA:                  -0.549
REMARK UNBOUND:                -0.524
REMARK  Name = 
REMARK  3 active torsions:
REMARK  status: ('A' for Active; 'I' for Inactive)
REMARK    1  A    between atoms: C_3  and  O_4
REMARK    2  A    between atoms: O_4  and  C_5
REMARK    3  A    between atoms: C_5  and  C_6
REMARK                            x       y       z     vdW  Elec       q    Type
REMARK                         _______ _______ _______ _____ _____    ______ ____
ROOT
ATOM      1  C   UNL     1      47.811   7.342  13.778  0.00  0.00    +0.000 A 
ATOM      2  C   UNL     1      47.155   8.555  13.597  0.00  0.00    +0.000 A 
ATOM      3  C   UNL     1      45.995   8.559  12.850  0.00  0.00    +0.000 A 
ATOM      4  N   UNL     1      45.462   7.455  12.283  0.00  0.00    +0.000 NA
ATOM      5  C   UNL     1      46.057   6.259  12.487  0.00  0.00    +0.000 A 
ATOM      6  N   UNL     1      45.486   5.150  11.906  0.00  0.00    +0.000 N 
ATOM      7  C   UNL     1      44.820   5.304  10.614  0.00  0.00    +0.000 C 
ATOM      8  C   UNL     1      43.423   4.695  10.676  0.00  0.00    +0.000 C 
ATOM      9  C   UNL     1      43.475   3.251  11.169  0.00  0.00    +0.000 C 
ATOM     10  C   UNL     1      44.210   3.158  12.505  0.00  0.00    +0.000 C 
ATOM     11  C   UNL     1      45.599   3.803  12.443  0.00  0.00    +0.000 C 
ATOM     12  C   UNL     1      47.226   6.182  13.246  0.00  0.00    +0.000 A 
ENDROOT
BRANCH   1  13
ATOM     13  C   UNL     1      49.132   7.278  14.497  0.00  0.00    +0.000 C 
BRANCH  13  14
ATOM     14  O   UNL     1      49.251   6.029  15.174  0.00  0.00    +0.000 OA
BRANCH  14  17
ATOM     15  C   UNL     1      48.128   6.675  18.625  0.00  0.00    +0.000 A 
ATOM     16  C   UNL     1      48.764   6.923  17.417  0.00  0.00    +0.000 A 
ATOM     17  C   UNL     1      48.684   5.955  16.420  0.00  0.00    +0.000 A 
ATOM     18  C   UNL     1      47.974   4.785  16.673  0.00  0.00    +0.000 A 
ATOM     19  C   UNL     1      47.373   4.629  17.910  0.00  0.00    +0.000 A 
ATOM     20  N   UNL     1      47.434   5.551  18.894  0.00  0.00    +0.000 NA
ENDBRANCH  14  17
ENDBRANCH  13  14
ENDBRANCH   1  13
TORSDOF 3
ENDMDL
MODEL 9
REMARK VINA RESULT:    -5.576      2.180      3.596
REMARK INTER + INTRA:          -7.078
REMARK INTER:                  -6.672
REMARK INTRA:                  -0.406
REMARK UNBOUND:                -0.524
REMARK  Name = 
REMARK  3 active torsions:
REMARK  status: ('A' for Active; 'I' for Inactive)
REMARK    1  A    between atoms: C_3  and  O_4
REMARK    2  A    between atoms: O_4  and  C_5
REMARK    3  A    between atoms: C_5  and  C_6
REMARK                            x       y       z     vdW  Elec       q    Type
REMARK                         _______ _______ _______ _____ _____    ______ ____
ROOT
ATOM      1  C   UNL     1      46.475   5.858  12.803  0.00  0.00    +0.000 A 
ATOM      2  C   UNL     1      46.276   4.673  13.504  0.00  0.00    +0.000 A 
ATOM      3  C   UNL     1      47.014   4.470  14.653  0.00  0.00    +0.000 A 
ATOM      4  N   UNL     1      47.916   5.352  15.133  0.00  0.00    +0.000 NA
ATOM      5  C   UNL     1      48.089   6.530  14.494  0.00  0.00    +0.000 A 
ATOM      6  N   UNL     1      49.007   7.413  15.012  0.00  0.00    +0.000 N 
ATOM      7  C   UNL     1      50.199   6.878  15.664  0.00  0.00    +0.000 C 
ATOM      8  C   UNL     1      50.372   7.521  17.036  0.00  0.00    +0.000 C 
ATOM      9  C   UNL     1      50.363   9.044  16.934  0.00  0.00    +0.000 C 
ATOM     10  C   UNL     1      49.107   9.534  16.215  0.00  0.00    +0.000 C 
ATOM     11  C   UNL     1      48.924   8.857  14.852  0.00  0.00    +0.000 C 
ATOM     12  C   UNL     1      47.363   6.806  13.333  0.00  0.00    +0.000 A 
ENDROOT
BRANCH   1  13
ATOM     13  C   UNL     1      45.779   6.104  11.490  0.00  0.00    +0.000 C 
BRANCH  13  14
ATOM     14  O   UNL     1      44.730   5.155  11.317  0.00  0.00    +0.000 OA
BRANCH  14  17
ATOM     15  C   UNL     1      44.650   2.208   9.104  0.00  0.00    +0.000 A 
ATOM     16  C   UNL     1      44.411   2.960  10.245  0.00  0.00    +0.000 A 
ATOM     17  C   UNL     1      44.872   4.273  10.277  0.00  0.00    +0.000 A 
ATOM     18  C   UNL     1      45.552   4.775   9.171  0.00  0.00    +0.000 A 
ATOM     19  C   UNL     1      45.742   3.946   8.078  0.00  0.00    +0.000 A 
ATOM     20  N   UNL     1      45.305   2.671   8.020  0.00  0.00    +0.000 NA
ENDBRANCH  14  17
ENDBRANCH  13  14
ENDBRANCH   1  13
TORSDOF 3
ENDMDL
