MODEL 1
REMARK VINA RESULT:    -8.172      0.000      0.000
REMARK INTER + INTRA:         -13.518
REMARK INTER:                 -12.471
REMARK INTRA:                  -1.047
REMARK UNBOUND:                -1.047
REMARK  Name = 
REMARK  9 active torsions:
REMARK  status: ('A' for Active; 'I' for Inactive)
REMARK    1  A    between atoms: C_2  and  C_3
REMARK    2  A    between atoms: C_3  and  C_4
REMARK    3  A    between atoms: C_3  and  N_11
REMARK    4  A    between atoms: C_4  and  C_5
REMARK    5  A    between atoms: N_11  and  C_12
REMARK    6  A    between atoms: C_12  and  C_13
REMARK    7  A    between atoms: C_16  and  C_17
REMARK    8  A    between atoms: C_17  and  N_18
REMARK    9  A    between atoms: C_19  and  C_21
REMARK                            x       y       z     vdW  Elec       q    Type
REMARK                         _______ _______ _______ _____ _____    ______ ____
ROOT
ATOM      1  C   UNL     1      45.816   6.180  12.218  0.00  0.00    +0.000 A 
ATOM      2  C   UNL     1      46.259   5.401  13.295  0.00  0.00    +0.000 A 
ATOM      3  C   UNL     1      47.443   5.717  13.958  0.00  0.00    +0.000 A 
ATOM      4  C   UNL     1      48.205   6.823  13.558  0.00  0.00    +0.000 A 
ATOM      5  C   UNL     1      47.791   7.568  12.446  0.00  0.00    +0.000 A 
ATOM      6  C   UNL     1      46.604   7.254  11.783  0.00  0.00    +0.000 A 
ENDROOT
BRANCH   1   7
ATOM      7  C   UNL     1      44.469   5.913  11.594  0.00  0.00    +0.000 C 
BRANCH   7   8
ATOM      8  N   UNL     1      44.574   5.556  10.172  0.00  0.00    +0.000 NA
ATOM      9  H   UNL     1      43.699   5.798   9.709  0.00  0.00    +0.000 HD
BRANCH   8  10
ATOM     10  C   UNL     1      44.869   4.117   9.949  0.00  0.00    +0.000 C 
BRANCH  10  12
ATOM     11  N   UNL     1      43.145   2.517  11.434  0.00  0.00    +0.000 NA
ATOM     12  C   UNL     1      43.927   3.242  10.760  0.00  0.00    +0.000 C 
ENDBRANCH  10  12
BRANCH  10  13
ATOM     13  C   UNL     1      44.701   3.744   8.457  0.00  0.00    +0.000 C 
BRANCH  13  14
ATOM     14  C   UNL     1      45.808   2.884   7.892  0.00  0.00    +0.000 A 
ATOM     15  C   UNL     1      45.926   1.534   8.231  0.00  0.00    +0.000 A 
ATOM     16  C   UNL     1      46.966   0.798   7.684  0.00  0.00    +0.000 A 
ATOM     17  N   UNL     1      47.878   1.306   6.827  0.00  0.00    +0.000 NA
ATOM     18  C   UNL     1      47.742   2.609   6.505  0.00  0.00    +0.000 A 
ATOM     19  C   UNL     1      46.738   3.427   7.001  0.00  0.00    +0.000 A 
ENDBRANCH  13  14
ENDBRANCH  10  13
ENDBRANCH   8  10
ENDBRANCH   7   8
ENDBRANCH   1   7
BRANCH   4  20
ATOM     20  C   UNL     1      49.486   7.170  14.267  0.00  0.00    +0.000 C 
BRANCH  20  21
ATOM     21  N   UNL     1      49.255   7.273  15.681  0.00  0.00    +0.000 N 
ATOM     22  C   UNL     1      50.076   6.672  16.597  0.00  0.00    +0.000 C 
ATOM     23  O   UNL     1      51.083   6.054  16.267  0.00  0.00    +0.000 OA
ATOM     24  H   UNL     1      48.326   7.567  15.965  0.00  0.00    +0.000 HD
BRANCH  22  25
ATOM     25  C   UNL     1      49.717   6.876  18.005  0.00  0.00    +0.000 A 
ATOM     26  C   UNL     1      49.758   8.152  18.551  0.00  0.00    +0.000 A 
ATOM     27  S   UNL     1      49.219   8.219  20.168  0.00  0.00    +0.000 S 
ATOM     28  C   UNL     1      48.966   6.536  20.213  0.00  0.00    +0.000 A 
ATOM     29  N   UNL     1      48.504   5.927  21.337  0.00  0.00    +0.000 NA
ATOM     30  C   UNL     1      48.384   4.645  21.238  0.00  0.00    +0.000 A 
ATOM     31  N   UNL     1      48.686   3.915  20.117  0.00  0.00    +0.000 N 
ATOM     32  C   UNL     1      49.146   4.489  18.958  0.00  0.00    +0.000 A 
ATOM     33  O   UNL     1      49.398   3.806  17.970  0.00  0.00    +0.000 OA
ATOM     34  C   UNL     1      49.287   5.933  19.011  0.00  0.00    +0.000 A 
ATOM     35  H   UNL     1      48.574   2.913  20.106  0.00  0.00    +0.000 HD
ENDBRANCH  22  25
ENDBRANCH  20  21
ENDBRANCH   4  20
TORSDOF 9
ENDMDL
MODEL 2
REMARK VINA RESULT:    -8.113      1.403      2.086
REMARK INTER + INTRA:         -13.429
REMARK INTER:                 -12.395
REMARK INTRA:                  -1.034
REMARK UNBOUND:                -1.047
REMARK  Name = 
REMARK  9 active torsions:
REMARK  status: ('A' for Active; 'I' for Inactive)
REMARK    1  A    between atoms: C_2  and  C_3
REMARK    2  A    between atoms: C_3  and  C_4
REMARK    3  A    between atoms: C_3  and  N_11
REMARK    4  A    between atoms: C_4  and  C_5
REMARK    5  A    between atoms: N_11  and  C_12
REMARK    6  A    between atoms: C_12  and  C_13
REMARK    7  A    between atoms: C_16  and  C_17
REMARK    8  A    between atoms: C_17  and  N_18
REMARK    9  A    between atoms: C_19  and  C_21
REMARK                            x       y       z     vdW  Elec       q    Type
REMARK                         _______ _______ _______ _____ _____    ______ ____
ROOT
ATOM      1  C   UNL     1      45.508   6.075  12.315  0.00  0.00    +0.000 A 
ATOM      2  C   UNL     1      45.977   5.118  13.224  0.00  0.00    +0.000 A 
ATOM      3  C   UNL     1      47.083   5.387  14.029  0.00  0.00    +0.000 A 
ATOM      4  C   UNL     1      47.737   6.622  13.941  0.00  0.00    +0.000 A 
ATOM      5  C   UNL     1      47.303   7.557  12.992  0.00  0.00    +0.000 A 
ATOM      6  C   UNL     1      46.195   7.290  12.189  0.00  0.00    +0.000 A 
ENDROOT
BRANCH   1   7
ATOM      7  C   UNL     1      44.233   5.829  11.547  0.00  0.00    +0.000 C 
BRANCH   7   8
ATOM      8  N   UNL     1      44.485   5.510  10.135  0.00  0.00    +0.000 NA
ATOM      9  H   UNL     1      43.655   5.748   9.592  0.00  0.00    +0.000 HD
BRANCH   8  10
ATOM     10  C   UNL     1      44.830   4.083   9.908  0.00  0.00    +0.000 C 
BRANCH  10  12
ATOM     11  N   UNL     1      43.142   2.418  11.361  0.00  0.00    +0.000 NA
ATOM     12  C   UNL     1      43.907   3.173  10.702  0.00  0.00    +0.000 C 
ENDBRANCH  10  12
BRANCH  10  13
ATOM     13  C   UNL     1      44.696   3.713   8.412  0.00  0.00    +0.000 C 
BRANCH  13  14
ATOM     14  C   UNL     1      45.832   2.883   7.862  0.00  0.00    +0.000 A 
ATOM     15  C   UNL     1      46.816   3.446   7.045  0.00  0.00    +0.000 A 
ATOM     16  C   UNL     1      47.831   2.630   6.566  0.00  0.00    +0.000 A 
ATOM     17  N   UNL     1      47.935   1.314   6.849  0.00  0.00    +0.000 NA
ATOM     18  C   UNL     1      46.980   0.791   7.645  0.00  0.00    +0.000 A 
ATOM     19  C   UNL     1      45.926   1.523   8.171  0.00  0.00    +0.000 A 
ENDBRANCH  13  14
ENDBRANCH  10  13
ENDBRANCH   8  10
ENDBRANCH   7   8
ENDBRANCH   1   7
BRANCH   4  20
ATOM     20  C   UNL     1      48.934   6.921  14.805  0.00  0.00    +0.000 C 
BRANCH  20  21
ATOM     21  N   UNL     1      48.617   6.681  16.185  0.00  0.00    +0.000 N 
ATOM     22  C   UNL     1      49.441   5.955  17.003  0.00  0.00    +0.000 C 
ATOM     23  O   UNL     1      50.518   5.511  16.620  0.00  0.00    +0.000 OA
ATOM     24  H   UNL     1      47.651   6.827  16.457  0.00  0.00    +0.000 HD
BRANCH  22  25
ATOM     25  C   UNL     1      48.988   5.805  18.391  0.00  0.00    +0.000 A 
ATOM     26  C   UNL     1      49.127   4.583  19.034  0.00  0.00    +0.000 A 
ATOM     27  S   UNL     1      48.639   4.613  20.668  0.00  0.00    +0.000 S 
ATOM     28  C   UNL     1      48.173   6.246  20.557  0.00  0.00    +0.000 A 
ATOM     29  N   UNL     1      47.654   6.900  21.630  0.00  0.00    +0.000 NA
ATOM     30  C   UNL     1      47.319   8.126  21.396  0.00  0.00    +0.000 A 
ATOM     31  N   UNL     1      47.454   8.757  20.186  0.00  0.00    +0.000 N 
ATOM     32  C   UNL     1      47.982   8.137  19.081  0.00  0.00    +0.000 A 
ATOM     33  O   UNL     1      48.098   8.736  18.015  0.00  0.00    +0.000 OA
ATOM     34  C   UNL     1      48.387   6.760  19.292  0.00  0.00    +0.000 A 
ATOM     35  H   UNL     1      47.169   9.717  20.068  0.00  0.00    +0.000 HD
ENDBRANCH  22  25
ENDBRANCH  20  21
ENDBRANCH   4  20
TORSDOF 9
ENDMDL
MODEL 3
REMARK VINA RESULT:    -7.886      2.216      2.758
REMARK INTER + INTRA:         -13.082
REMARK INTER:                 -11.948
REMARK INTRA:                  -1.134
REMARK UNBOUND:                -1.047
REMARK  Name = 
REMARK  9 active torsions:
REMARK  status: ('A' for Active; 'I' for Inactive)
REMARK    1  A    between atoms: C_2  and  C_3
REMARK    2  A    between atoms: C_3  and  C_4
REMARK    3  A    between atoms: C_3  and  N_11
REMARK    4  A    between atoms: C_4  and  C_5
REMARK    5  A    between atoms: N_11  and  C_12
REMARK    6  A    between atoms: C_12  and  C_13
REMARK    7  A    between atoms: C_16  and  C_17
REMARK    8  A    between atoms: C_17  and  N_18
REMARK    9  A    between atoms: C_19  and  C_21
REMARK                            x       y       z     vdW  Elec       q    Type
REMARK                         _______ _______ _______ _____ _____    ______ ____
ROOT
ATOM      1  C   UNL     1      46.806   6.410  12.121  0.00  0.00    +0.000 A 
ATOM      2  C   UNL     1      47.207   7.736  12.330  0.00  0.00    +0.000 A 
ATOM      3  C   UNL     1      47.852   8.104  13.510  0.00  0.00    +0.000 A 
ATOM      4  C   UNL     1      48.112   7.148  14.501  0.00  0.00    +0.000 A 
ATOM      5  C   UNL     1      47.661   5.835  14.315  0.00  0.00    +0.000 A 
ATOM      6  C   UNL     1      47.018   5.465  13.135  0.00  0.00    +0.000 A 
ENDROOT
BRANCH   1   7
ATOM      7  C   UNL     1      46.232   5.994  10.790  0.00  0.00    +0.000 C 
BRANCH   7   8
ATOM      8  N   UNL     1      44.965   5.262  10.933  0.00  0.00    +0.000 NA
ATOM      9  H   UNL     1      44.702   5.253  11.918  0.00  0.00    +0.000 HD
BRANCH   8  10
ATOM     10  C   UNL     1      45.033   3.867  10.427  0.00  0.00    +0.000 C 
BRANCH  10  12
ATOM     11  N   UNL     1      43.003   2.319  11.531  0.00  0.00    +0.000 NA
ATOM     12  C   UNL     1      43.923   3.021  11.030  0.00  0.00    +0.000 C 
ENDBRANCH  10  12
BRANCH  10  13
ATOM     13  C   UNL     1      44.879   3.830   8.888  0.00  0.00    +0.000 C 
BRANCH  13  14
ATOM     14  C   UNL     1      45.894   2.970   8.172  0.00  0.00    +0.000 A 
ATOM     15  C   UNL     1      45.959   1.590   8.385  0.00  0.00    +0.000 A 
ATOM     16  C   UNL     1      46.917   0.855   7.701  0.00  0.00    +0.000 A 
ATOM     17  N   UNL     1      47.794   1.391   6.826  0.00  0.00    +0.000 NA
ATOM     18  C   UNL     1      47.710   2.723   6.628  0.00  0.00    +0.000 A 
ATOM     19  C   UNL     1      46.790   3.543   7.265  0.00  0.00    +0.000 A 
ENDBRANCH  13  14
ENDBRANCH  10  13
ENDBRANCH   8  10
ENDBRANCH   7   8
ENDBRANCH   1   7
BRANCH   4  20
ATOM     20  C   UNL     1      48.807   7.537  15.779  0.00  0.00    +0.000 C 
BRANCH  20  21
ATOM     21  N   UNL     1      49.800   6.556  16.117  0.00  0.00    +0.000 N 
ATOM     22  C   UNL     1      50.214   6.358  17.407  0.00  0.00    +0.000 C 
ATOM     23  O   UNL     1      49.727   6.969  18.353  0.00  0.00    +0.000 OA
ATOM     24  H   UNL     1      50.374   6.216  15.354  0.00  0.00    +0.000 HD
BRANCH  22  25
ATOM     25  C   UNL     1      51.228   5.314  17.597  0.00  0.00    +0.000 A 
ATOM     26  C   UNL     1      52.525   5.664  17.945  0.00  0.00    +0.000 A 
ATOM     27  S   UNL     1      53.543   4.324  18.219  0.00  0.00    +0.000 S 
ATOM     28  C   UNL     1      52.301   3.229  17.828  0.00  0.00    +0.000 A 
ATOM     29  N   UNL     1      52.516   1.886  17.858  0.00  0.00    +0.000 NA
ATOM     30  C   UNL     1      51.494   1.175  17.513  0.00  0.00    +0.000 A 
ATOM     31  N   UNL     1      50.277   1.684  17.138  0.00  0.00    +0.000 N 
ATOM     32  C   UNL     1      50.014   3.031  17.102  0.00  0.00    +0.000 A 
ATOM     33  O   UNL     1      48.909   3.451  16.770  0.00  0.00    +0.000 OA
ATOM     34  C   UNL     1      51.126   3.877  17.493  0.00  0.00    +0.000 A 
ATOM     35  H   UNL     1      49.519   1.072  16.875  0.00  0.00    +0.000 HD
ENDBRANCH  22  25
ENDBRANCH  20  21
ENDBRANCH   4  20
TORSDOF 9
ENDMDL
MODEL 4
REMARK VINA RESULT:    -7.880      2.064      3.186
REMARK INTER + INTRA:         -13.073
REMARK INTER:                 -12.338
REMARK INTRA:                  -0.734
REMARK UNBOUND:                -1.047
REMARK  Name = 
REMARK  9 active torsions:
REMARK  status: ('A' for Active; 'I' for Inactive)
REMARK    1  A    between atoms: C_2  and  C_3
REMARK    2  A    between atoms: C_3  and  C_4
REMARK    3  A    between atoms: C_3  and  N_11
REMARK    4  A    between atoms: C_4  and  C_5
REMARK    5  A    between atoms: N_11  and  C_12
REMARK    6  A    between atoms: C_12  and  C_13
REMARK    7  A    between atoms: C_16  and  C_17
REMARK    8  A    between atoms: C_17  and  N_18
REMARK    9  A    between atoms: C_19  and  C_21
REMARK                            x       y       z     vdW  Elec       q    Type
REMARK                         _______ _______ _______ _____ _____    ______ ____
ROOT
ATOM      1  C   UNL     1      46.422   5.901  12.166  0.00  0.00    +0.000 A 
ATOM      2  C   UNL     1      47.506   6.645  12.652  0.00  0.00    +0.000 A 
ATOM      3  C   UNL     1      48.057   6.360  13.900  0.00  0.00    +0.000 A 
ATOM      4  C   UNL     1      47.537   5.322  14.683  0.00  0.00    +0.000 A 
ATOM      5  C   UNL     1      46.418   4.616  14.222  0.00  0.00    +0.000 A 
ATOM      6  C   UNL     1      45.867   4.898  12.972  0.00  0.00    +0.000 A 
ENDROOT
BRANCH   1   7
ATOM      7  C   UNL     1      45.919   6.125  10.762  0.00  0.00    +0.000 C 
BRANCH   7   8
ATOM      8  N   UNL     1      44.671   5.396  10.494  0.00  0.00    +0.000 NA
ATOM      9  H   UNL     1      44.075   5.454  11.319  0.00  0.00    +0.000 HD
BRANCH   8  10
ATOM     10  C   UNL     1      44.888   3.970  10.141  0.00  0.00    +0.000 C 
BRANCH  10  12
ATOM     11  N   UNL     1      43.054   2.339  11.450  0.00  0.00    +0.000 NA
ATOM     12  C   UNL     1      43.885   3.079  10.856  0.00  0.00    +0.000 C 
ENDBRANCH  10  12
BRANCH  10  13
ATOM     13  C   UNL     1      44.725   3.747   8.619  0.00  0.00    +0.000 C 
BRANCH  13  14
ATOM     14  C   UNL     1      45.810   2.910   7.983  0.00  0.00    +0.000 A 
ATOM     15  C   UNL     1      46.745   3.470   7.109  0.00  0.00    +0.000 A 
ATOM     16  C   UNL     1      47.714   2.648   6.553  0.00  0.00    +0.000 A 
ATOM     17  N   UNL     1      47.819   1.327   6.811  0.00  0.00    +0.000 NA
ATOM     18  C   UNL     1      46.912   0.806   7.663  0.00  0.00    +0.000 A 
ATOM     19  C   UNL     1      45.906   1.544   8.268  0.00  0.00    +0.000 A 
ENDBRANCH  13  14
ENDBRANCH  10  13
ENDBRANCH   8  10
ENDBRANCH   7   8
ENDBRANCH   1   7
BRANCH   4  20
ATOM     20  C   UNL     1      48.125   5.009  16.033  0.00  0.00    +0.000 C 
BRANCH  20  21
ATOM     21  N   UNL     1      47.789   6.046  16.969  0.00  0.00    +0.000 N 
ATOM     22  C   UNL     1      48.662   6.459  17.939  0.00  0.00    +0.000 C 
ATOM     23  O   UNL     1      49.799   6.005  18.033  0.00  0.00    +0.000 OA
ATOM     24  H   UNL     1      46.803   6.264  17.064  0.00  0.00    +0.000 HD
BRANCH  22  25
ATOM     25  C   UNL     1      48.181   7.534  18.814  0.00  0.00    +0.000 A 
ATOM     26  C   UNL     1      47.930   7.274  20.154  0.00  0.00    +0.000 A 
ATOM     27  S   UNL     1      47.470   8.656  21.042  0.00  0.00    +0.000 S 
ATOM     28  C   UNL     1      47.535   9.639  19.654  0.00  0.00    +0.000 A 
ATOM     29  N   UNL     1      47.242  10.965  19.720  0.00  0.00    +0.000 NA
ATOM     30  C   UNL     1      47.306  11.583  18.587  0.00  0.00    +0.000 A 
ATOM     31  N   UNL     1      47.635  10.995  17.393  0.00  0.00    +0.000 N 
ATOM     32  C   UNL     1      47.948   9.663  17.282  0.00  0.00    +0.000 A 
ATOM     33  O   UNL     1      48.248   9.171  16.198  0.00  0.00    +0.000 OA
ATOM     34  C   UNL     1      47.903   8.923  18.530  0.00  0.00    +0.000 A 
ATOM     35  H   UNL     1      47.664  11.534  16.541  0.00  0.00    +0.000 HD
ENDBRANCH  22  25
ENDBRANCH  20  21
ENDBRANCH   4  20
TORSDOF 9
ENDMDL
MODEL 5
REMARK VINA RESULT:    -7.462      3.450      9.088
REMARK INTER + INTRA:         -12.435
REMARK INTER:                 -10.515
REMARK INTRA:                  -1.920
REMARK UNBOUND:                -1.047
REMARK  Name = 
REMARK  9 active torsions:
REMARK  status: ('A' for Active; 'I' for Inactive)
REMARK    1  A    between atoms: C_2  and  C_3
REMARK    2  A    between atoms: C_3  and  C_4
REMARK    3  A    between atoms: C_3  and  N_11
REMARK    4  A    between atoms: C_4  and  C_5
REMARK    5  A    between atoms: N_11  and  C_12
REMARK    6  A    between atoms: C_12  and  C_13
REMARK    7  A    between atoms: C_16  and  C_17
REMARK    8  A    between atoms: C_17  and  N_18
REMARK    9  A    between atoms: C_19  and  C_21
REMARK                            x       y       z     vdW  Elec       q    Type
REMARK                         _______ _______ _______ _____ _____    ______ ____
ROOT
ATOM      1  C   UNL     1      48.820   8.049  16.108  0.00  0.00    +0.000 A 
ATOM      2  C   UNL     1      48.087   9.070  15.488  0.00  0.00    +0.000 A 
ATOM      3  C   UNL     1      47.723   8.967  14.147  0.00  0.00    +0.000 A 
ATOM      4  C   UNL     1      48.082   7.837  13.401  0.00  0.00    +0.000 A 
ATOM      5  C   UNL     1      48.863   6.842  14.006  0.00  0.00    +0.000 A 
ATOM      6  C   UNL     1      49.225   6.943  15.348  0.00  0.00    +0.000 A 
ENDROOT
BRANCH   1   7
ATOM      7  C   UNL     1      49.092   8.105  17.590  0.00  0.00    +0.000 C 
BRANCH   7   8
ATOM      8  N   UNL     1      47.965   7.594  18.383  0.00  0.00    +0.000 NA
ATOM      9  H   UNL     1      47.784   8.243  19.149  0.00  0.00    +0.000 HD
BRANCH   8  10
ATOM     10  C   UNL     1      48.202   6.235  18.934  0.00  0.00    +0.000 C 
BRANCH  10  12
ATOM     11  N   UNL     1      47.206   6.032  21.523  0.00  0.00    +0.000 NA
ATOM     12  C   UNL     1      47.658   6.124  20.349  0.00  0.00    +0.000 C 
ENDBRANCH  10  12
BRANCH  10  13
ATOM     13  C   UNL     1      47.506   5.160  18.067  0.00  0.00    +0.000 C 
BRANCH  13  14
ATOM     14  C   UNL     1      48.416   4.062  17.569  0.00  0.00    +0.000 A 
ATOM     15  C   UNL     1      47.940   3.037  16.747  0.00  0.00    +0.000 A 
ATOM     16  C   UNL     1      48.825   2.055  16.327  0.00  0.00    +0.000 A 
ATOM     17  N   UNL     1      50.134   2.031  16.655  0.00  0.00    +0.000 NA
ATOM     18  C   UNL     1      50.577   3.033  17.443  0.00  0.00    +0.000 A 
ATOM     19  C   UNL     1      49.771   4.058  17.915  0.00  0.00    +0.000 A 
ENDBRANCH  13  14
ENDBRANCH  10  13
ENDBRANCH   8  10
ENDBRANCH   7   8
ENDBRANCH   1   7
BRANCH   4  20
ATOM     20  C   UNL     1      47.695   7.718  11.951  0.00  0.00    +0.000 C 
BRANCH  20  21
ATOM     21  N   UNL     1      46.971   6.497  11.733  0.00  0.00    +0.000 N 
ATOM     22  C   UNL     1      45.604   6.445  11.786  0.00  0.00    +0.000 C 
ATOM     23  O   UNL     1      44.917   7.445  11.972  0.00  0.00    +0.000 OA
ATOM     24  H   UNL     1      47.503   5.638  11.812  0.00  0.00    +0.000 HD
BRANCH  22  25
ATOM     25  C   UNL     1      45.006   5.130  11.531  0.00  0.00    +0.000 A 
ATOM     26  C   UNL     1      44.326   4.471  12.546  0.00  0.00    +0.000 A 
ATOM     27  S   UNL     1      43.615   3.002  12.049  0.00  0.00    +0.000 S 
ATOM     28  C   UNL     1      44.238   3.168  10.474  0.00  0.00    +0.000 A 
ATOM     29  N   UNL     1      43.998   2.226   9.524  0.00  0.00    +0.000 NA
ATOM     30  C   UNL     1      44.554   2.467   8.383  0.00  0.00    +0.000 A 
ATOM     31  N   UNL     1      45.329   3.563   8.106  0.00  0.00    +0.000 N 
ATOM     32  C   UNL     1      45.590   4.542   9.032  0.00  0.00    +0.000 A 
ATOM     33  O   UNL     1      46.281   5.516   8.747  0.00  0.00    +0.000 OA
ATOM     34  C   UNL     1      44.978   4.327  10.330  0.00  0.00    +0.000 A 
ATOM     35  H   UNL     1      45.739   3.691   7.193  0.00  0.00    +0.000 HD
ENDBRANCH  22  25
ENDBRANCH  20  21
ENDBRANCH   4  20
TORSDOF 9
ENDMDL
MODEL 6
REMARK VINA RESULT:    -7.420      4.040      5.518
REMARK INTER + INTRA:         -12.370
REMARK INTER:                 -11.076
REMARK INTRA:                  -1.295
REMARK UNBOUND:                -1.047
REMARK  Name = 
REMARK  9 active torsions:
REMARK  status: ('A' for Active; 'I' for Inactive)
REMARK    1  A    between atoms: C_2  and  C_3
REMARK    2  A    between atoms: C_3  and  C_4
REMARK    3  A    between atoms: C_3  and  N_11
REMARK    4  A    between atoms: C_4  and  C_5
REMARK    5  A    between atoms: N_11  and  C_12
REMARK    6  A    between atoms: C_12  and  C_13
REMARK    7  A    between atoms: C_16  and  C_17
REMARK    8  A    between atoms: C_17  and  N_18
REMARK    9  A    between atoms: C_19  and  C_21
REMARK                            x       y       z     vdW  Elec       q    Type
REMARK                         _______ _______ _______ _____ _____    ______ ____
ROOT
ATOM      1  C   UNL     1      45.560   6.724  12.198  0.00  0.00    +0.000 A 
ATOM      2  C   UNL     1      46.660   6.051  12.748  0.00  0.00    +0.000 A 
ATOM      3  C   UNL     1      47.575   6.728  13.551  0.00  0.00    +0.000 A 
ATOM      4  C   UNL     1      47.404   8.092  13.824  0.00  0.00    +0.000 A 
ATOM      5  C   UNL     1      46.336   8.777  13.229  0.00  0.00    +0.000 A 
ATOM      6  C   UNL     1      45.418   8.100  12.426  0.00  0.00    +0.000 A 
ENDROOT
BRANCH   1   7
ATOM      7  C   UNL     1      44.504   5.957  11.443  0.00  0.00    +0.000 C 
BRANCH   7   8
ATOM      8  N   UNL     1      44.928   5.621  10.076  0.00  0.00    +0.000 NA
ATOM      9  H   UNL     1      44.253   6.011   9.419  0.00  0.00    +0.000 HD
BRANCH   8  10
ATOM     10  C   UNL     1      45.055   4.159   9.844  0.00  0.00    +0.000 C 
BRANCH  10  12
ATOM     11  N   UNL     1      43.167   2.758  11.331  0.00  0.00    +0.000 NA
ATOM     12  C   UNL     1      44.023   3.393  10.656  0.00  0.00    +0.000 C 
ENDBRANCH  10  12
BRANCH  10  13
ATOM     13  C   UNL     1      44.839   3.817   8.352  0.00  0.00    +0.000 C 
BRANCH  13  14
ATOM     14  C   UNL     1      45.883   2.901   7.755  0.00  0.00    +0.000 A 
ATOM     15  C   UNL     1      46.045   1.589   8.207  0.00  0.00    +0.000 A 
ATOM     16  C   UNL     1      47.025   0.800   7.623  0.00  0.00    +0.000 A 
ATOM     17  N   UNL     1      47.836   1.220   6.628  0.00  0.00    +0.000 NA
ATOM     18  C   UNL     1      47.659   2.487   6.200  0.00  0.00    +0.000 A 
ATOM     19  C   UNL     1      46.709   3.353   6.721  0.00  0.00    +0.000 A 
ENDBRANCH  13  14
ENDBRANCH  10  13
ENDBRANCH   8  10
ENDBRANCH   7   8
ENDBRANCH   1   7
BRANCH   4  20
ATOM     20  C   UNL     1      48.389   8.831  14.690  0.00  0.00    +0.000 C 
BRANCH  20  21
ATOM     21  N   UNL     1      49.683   8.842  14.065  0.00  0.00    +0.000 N 
ATOM     22  C   UNL     1      50.085   9.864  13.248  0.00  0.00    +0.000 C 
ATOM     23  O   UNL     1      49.386  10.851  13.040  0.00  0.00    +0.000 OA
ATOM     24  H   UNL     1      50.171   7.954  14.027  0.00  0.00    +0.000 HD
BRANCH  22  25
ATOM     25  C   UNL     1      51.438   9.740  12.692  0.00  0.00    +0.000 A 
ATOM     26  C   UNL     1      52.416  10.660  13.042  0.00  0.00    +0.000 A 
ATOM     27  S   UNL     1      53.949  10.309  12.381  0.00  0.00    +0.000 S 
ATOM     28  C   UNL     1      53.346   8.947  11.558  0.00  0.00    +0.000 A 
ATOM     29  N   UNL     1      54.158   8.181  10.783  0.00  0.00    +0.000 NA
ATOM     30  C   UNL     1      53.562   7.196  10.198  0.00  0.00    +0.000 A 
ATOM     31  N   UNL     1      52.227   6.908  10.315  0.00  0.00    +0.000 N 
ATOM     32  C   UNL     1      51.373   7.649  11.093  0.00  0.00    +0.000 A 
ATOM     33  O   UNL     1      50.183   7.357  11.183  0.00  0.00    +0.000 OA
ATOM     34  C   UNL     1      51.994   8.762  11.785  0.00  0.00    +0.000 A 
ATOM     35  H   UNL     1      51.821   6.124   9.826  0.00  0.00    +0.000 HD
ENDBRANCH  22  25
ENDBRANCH  20  21
ENDBRANCH   4  20
TORSDOF 9
ENDMDL
MODEL 7
REMARK VINA RESULT:    -7.214      2.872      3.873
REMARK INTER + INTRA:         -12.057
REMARK INTER:                 -11.011
REMARK INTRA:                  -1.046
REMARK UNBOUND:                -1.047
REMARK  Name = 
REMARK  9 active torsions:
REMARK  status: ('A' for Active; 'I' for Inactive)
REMARK    1  A    between atoms: C_2  and  C_3
REMARK    2  A    between atoms: C_3  and  C_4
REMARK    3  A    between atoms: C_3  and  N_11
REMARK    4  A    between atoms: C_4  and  C_5
REMARK    5  A    between atoms: N_11  and  C_12
REMARK    6  A    between atoms: C_12  and  C_13
REMARK    7  A    between atoms: C_16  and  C_17
REMARK    8  A    between atoms: C_17  and  N_18
REMARK    9  A    between atoms: C_19  and  C_21
REMARK                            x       y       z     vdW  Elec       q    Type
REMARK                         _______ _______ _______ _____ _____    ______ ____
ROOT
ATOM      1  C   UNL     1      46.724   4.672  13.968  0.00  0.00    +0.000 A 
ATOM      2  C   UNL     1      47.367   5.860  13.594  0.00  0.00    +0.000 A 
ATOM      3  C   UNL     1      48.241   6.498  14.471  0.00  0.00    +0.000 A 
ATOM      4  C   UNL     1      48.494   5.957  15.738  0.00  0.00    +0.000 A 
ATOM      5  C   UNL     1      47.808   4.799  16.133  0.00  0.00    +0.000 A 
ATOM      6  C   UNL     1      46.935   4.158  15.255  0.00  0.00    +0.000 A 
ENDROOT
BRANCH   1   7
ATOM      7  C   UNL     1      45.886   3.917  12.967  0.00  0.00    +0.000 C 
BRANCH   7   8
ATOM      8  N   UNL     1      45.722   4.657  11.707  0.00  0.00    +0.000 NA
ATOM      9  H   UNL     1      46.410   5.409  11.678  0.00  0.00    +0.000 HD
BRANCH   8  10
ATOM     10  C   UNL     1      44.361   5.226  11.534  0.00  0.00    +0.000 C 
BRANCH  10  12
ATOM     11  N   UNL     1      44.464   8.001  11.387  0.00  0.00    +0.000 NA
ATOM     12  C   UNL     1      44.417   6.743  11.454  0.00  0.00    +0.000 C 
ENDBRANCH  10  12
BRANCH  10  13
ATOM     13  C   UNL     1      43.705   4.703  10.235  0.00  0.00    +0.000 C 
BRANCH  13  14
ATOM     14  C   UNL     1      44.603   3.844   9.375  0.00  0.00    +0.000 A 
ATOM     15  C   UNL     1      45.430   4.405   8.399  0.00  0.00    +0.000 A 
ATOM     16  C   UNL     1      46.228   3.563   7.638  0.00  0.00    +0.000 A 
ATOM     17  N   UNL     1      46.265   2.222   7.788  0.00  0.00    +0.000 NA
ATOM     18  C   UNL     1      45.465   1.699   8.741  0.00  0.00    +0.000 A 
ATOM     19  C   UNL     1      44.631   2.457   9.550  0.00  0.00    +0.000 A 
ENDBRANCH  13  14
ENDBRANCH  10  13
ENDBRANCH   8  10
ENDBRANCH   7   8
ENDBRANCH   1   7
BRANCH   4  20
ATOM     20  C   UNL     1      49.436   6.640  16.693  0.00  0.00    +0.000 C 
BRANCH  20  21
ATOM     21  N   UNL     1      50.505   5.751  17.051  0.00  0.00    +0.000 N 
ATOM     22  C   UNL     1      50.689   5.317  18.336  0.00  0.00    +0.000 C 
ATOM     23  O   UNL     1      49.923   5.622  19.246  0.00  0.00    +0.000 OA
ATOM     24  H   UNL     1      51.269   5.677  16.389  0.00  0.00    +0.000 HD
BRANCH  22  25
ATOM     25  C   UNL     1      51.818   4.404  18.546  0.00  0.00    +0.000 A 
ATOM     26  C   UNL     1      52.939   4.838  19.239  0.00  0.00    +0.000 A 
ATOM     27  S   UNL     1      54.110   3.620  19.472  0.00  0.00    +0.000 S 
ATOM     28  C   UNL     1      53.185   2.485  18.605  0.00  0.00    +0.000 A 
ATOM     29  N   UNL     1      53.628   1.213  18.423  0.00  0.00    +0.000 NA
ATOM     30  C   UNL     1      52.837   0.468  17.724  0.00  0.00    +0.000 A 
ATOM     31  N   UNL     1      51.644   0.879  17.189  0.00  0.00    +0.000 N 
ATOM     32  C   UNL     1      51.155   2.151  17.355  0.00  0.00    +0.000 A 
ATOM     33  O   UNL     1      50.077   2.483  16.870  0.00  0.00    +0.000 OA
ATOM     34  C   UNL     1      51.999   3.028  18.145  0.00  0.00    +0.000 A 
ATOM     35  H   UNL     1      51.074   0.248  16.648  0.00  0.00    +0.000 HD
ENDBRANCH  22  25
ENDBRANCH  20  21
ENDBRANCH   4  20
TORSDOF 9
ENDMDL
MODEL 8
REMARK VINA RESULT:    -6.949      2.905      3.703
REMARK INTER + INTRA:         -11.652
REMARK INTER:                 -10.979
REMARK INTRA:                  -0.673
REMARK UNBOUND:                -1.047
REMARK  Name = 
REMARK  9 active torsions:
REMARK  status: ('A' for Active; 'I' for Inactive)
REMARK    1  A    between atoms: C_2  and  C_3
REMARK    2  A    between atoms: C_3  and  C_4
REMARK    3  A    between atoms: C_3  and  N_11
REMARK    4  A    between atoms: C_4  and  C_5
REMARK    5  A    between atoms: N_11  and  C_12
REMARK    6  A    between atoms: C_12  and  C_13
REMARK    7  A    between atoms: C_16  and  C_17
REMARK    8  A    between atoms: C_17  and  N_18
REMARK    9  A    between atoms: C_19  and  C_21
REMARK                            x       y       z     vdW  Elec       q    Type
REMARK                         _______ _______ _______ _____ _____    ______ ____
ROOT
ATOM      1  C   UNL     1      46.687   5.707  12.576  0.00  0.00    +0.000 A 
ATOM      2  C   UNL     1      47.612   6.563  13.190  0.00  0.00    +0.000 A 
ATOM      3  C   UNL     1      47.980   6.371  14.520  0.00  0.00    +0.000 A 
ATOM      4  C   UNL     1      47.433   5.314  15.260  0.00  0.00    +0.000 A 
ATOM      5  C   UNL     1      46.467   4.493  14.662  0.00  0.00    +0.000 A 
ATOM      6  C   UNL     1      46.100   4.683  13.331  0.00  0.00    +0.000 A 
ENDROOT
BRANCH   1   7
ATOM      7  C   UNL     1      46.397   5.839  11.102  0.00  0.00    +0.000 C 
BRANCH   7   8
ATOM      8  N   UNL     1      45.063   5.333  10.748  0.00  0.00    +0.000 NA
ATOM      9  H   UNL     1      44.459   5.406  11.566  0.00  0.00    +0.000 HD
BRANCH   8  10
ATOM     10  C   UNL     1      45.077   3.928  10.267  0.00  0.00    +0.000 C 
BRANCH  10  12
ATOM     11  N   UNL     1      43.039   2.458  11.461  0.00  0.00    +0.000 NA
ATOM     12  C   UNL     1      43.963   3.125  10.919  0.00  0.00    +0.000 C 
ENDBRANCH  10  12
BRANCH  10  13
ATOM     13  C   UNL     1      44.876   3.867   8.735  0.00  0.00    +0.000 C 
BRANCH  13  14
ATOM     14  C   UNL     1      45.848   2.970   8.005  0.00  0.00    +0.000 A 
ATOM     15  C   UNL     1      46.002   1.626   8.355  0.00  0.00    +0.000 A 
ATOM     16  C   UNL     1      46.915   0.855   7.650  0.00  0.00    +0.000 A 
ATOM     17  N   UNL     1      47.665   1.322   6.629  0.00  0.00    +0.000 NA
ATOM     18  C   UNL     1      47.497   2.620   6.301  0.00  0.00    +0.000 A 
ATOM     19  C   UNL     1      46.612   3.471   6.947  0.00  0.00    +0.000 A 
ENDBRANCH  13  14
ENDBRANCH  10  13
ENDBRANCH   8  10
ENDBRANCH   7   8
ENDBRANCH   1   7
BRANCH   4  20
ATOM     20  C   UNL     1      47.823   5.100  16.698  0.00  0.00    +0.000 C 
BRANCH  20  21
ATOM     21  N   UNL     1      49.075   4.400  16.770  0.00  0.00    +0.000 N 
ATOM     22  C   UNL     1      49.428   3.654  17.862  0.00  0.00    +0.000 C 
ATOM     23  O   UNL     1      48.677   3.500  18.820  0.00  0.00    +0.000 OA
ATOM     24  H   UNL     1      49.793   4.694  16.117  0.00  0.00    +0.000 HD
BRANCH  22  25
ATOM     25  C   UNL     1      50.733   2.988  17.784  0.00  0.00    +0.000 A 
ATOM     26  C   UNL     1      50.801   1.635  17.483  0.00  0.00    +0.000 A 
ATOM     27  S   UNL     1      52.397   1.048  17.339  0.00  0.00    +0.000 S 
ATOM     28  C   UNL     1      53.051   2.569  17.731  0.00  0.00    +0.000 A 
ATOM     29  N   UNL     1      54.396   2.758  17.790  0.00  0.00    +0.000 NA
ATOM     30  C   UNL     1      54.752   3.955  18.124  0.00  0.00    +0.000 A 
ATOM     31  N   UNL     1      53.886   4.979  18.407  0.00  0.00    +0.000 N 
ATOM     32  C   UNL     1      52.522   4.834  18.351  0.00  0.00    +0.000 A 
ATOM     33  O   UNL     1      51.774   5.776  18.602  0.00  0.00    +0.000 OA
ATOM     34  C   UNL     1      52.067   3.511  17.967  0.00  0.00    +0.000 A 
ATOM     35  H   UNL     1      54.229   5.891  18.667  0.00  0.00    +0.000 HD
ENDBRANCH  22  25
ENDBRANCH  20  21
ENDBRANCH   4  20
TORSDOF 9
ENDMDL
MODEL 9
REMARK VINA RESULT:    -6.809      5.150      6.819
REMARK INTER + INTRA:         -11.439
REMARK INTER:                 -10.425
REMARK INTRA:                  -1.014
REMARK UNBOUND:                -1.047
REMARK  Name = 
REMARK  9 active torsions:
REMARK  status: ('A' for Active; 'I' for Inactive)
REMARK    1  A    between atoms: C_2  and  C_3
REMARK    2  A    between atoms: C_3  and  C_4
REMARK    3  A    between atoms: C_3  and  N_11
REMARK    4  A    between atoms: C_4  and  C_5
REMARK    5  A    between atoms: N_11  and  C_12
REMARK    6  A    between atoms: C_12  and  C_13
REMARK    7  A    between atoms: C_16  and  C_17
REMARK    8  A    between atoms: C_17  and  N_18
REMARK    9  A    between atoms: C_19  and  C_21
REMARK                            x       y       z     vdW  Elec       q    Type
REMARK                         _______ _______ _______ _____ _____    ______ ____
ROOT
ATOM      1  C   UNL     1      45.444   6.933  11.663  0.00  0.00    +0.000 A 
ATOM      2  C   UNL     1      45.118   8.274  11.910  0.00  0.00    +0.000 A 
ATOM      3  C   UNL     1      46.107   9.187  12.273  0.00  0.00    +0.000 A 
ATOM      4  C   UNL     1      47.441   8.777  12.390  0.00  0.00    +0.000 A 
ATOM      5  C   UNL     1      47.757   7.425  12.198  0.00  0.00    +0.000 A 
ATOM      6  C   UNL     1      46.769   6.510  11.832  0.00  0.00    +0.000 A 
ENDROOT
BRANCH   1   7
ATOM      7  C   UNL     1      44.395   5.984  11.141  0.00  0.00    +0.000 C 
BRANCH   7   8
ATOM      8  N   UNL     1      44.818   5.311   9.904  0.00  0.00    +0.000 NA
ATOM      9  H   UNL     1      44.136   5.512   9.173  0.00  0.00    +0.000 HD
BRANCH   8  10
ATOM     10  C   UNL     1      44.960   3.840  10.055  0.00  0.00    +0.000 C 
BRANCH  10  12
ATOM     11  N   UNL     1      43.246   2.880  12.023  0.00  0.00    +0.000 NA
ATOM     12  C   UNL     1      44.023   3.316  11.130  0.00  0.00    +0.000 C 
ENDBRANCH  10  12
BRANCH  10  13
ATOM     13  C   UNL     1      44.623   3.115   8.731  0.00  0.00    +0.000 C 
BRANCH  13  14
ATOM     14  C   UNL     1      45.816   2.535   8.006  0.00  0.00    +0.000 A 
ATOM     15  C   UNL     1      46.647   3.333   7.217  0.00  0.00    +0.000 A 
ATOM     16  C   UNL     1      47.723   2.741   6.573  0.00  0.00    +0.000 A 
ATOM     17  N   UNL     1      48.029   1.429   6.668  0.00  0.00    +0.000 NA
ATOM     18  C   UNL     1      47.219   0.676   7.441  0.00  0.00    +0.000 A 
ATOM     19  C   UNL     1      46.119   1.175   8.123  0.00  0.00    +0.000 A 
ENDBRANCH  13  14
ENDBRANCH  10  13
ENDBRANCH   8  10
ENDBRANCH   7   8
ENDBRANCH   1   7
BRANCH   4  20
ATOM     20  C   UNL     1      48.514   9.756  12.783  0.00  0.00    +0.000 C 
BRANCH  20  21
ATOM     21  N   UNL     1      49.420   9.960  11.688  0.00  0.00    +0.000 N 
ATOM     22  C   UNL     1      50.759   9.696  11.794  0.00  0.00    +0.000 C 
ATOM     23  O   UNL     1      51.254   9.224  12.813  0.00  0.00    +0.000 OA
ATOM     24  H   UNL     1      49.091  10.556  10.936  0.00  0.00    +0.000 HD
BRANCH  22  25
ATOM     25  C   UNL     1      51.556   9.943  10.587  0.00  0.00    +0.000 A 
ATOM     26  C   UNL     1      51.734  11.242  10.131  0.00  0.00    +0.000 A 
ATOM     27  S   UNL     1      52.763  11.353   8.775  0.00  0.00    +0.000 S 
ATOM     28  C   UNL     1      52.962   9.664   8.717  0.00  0.00    +0.000 A 
ATOM     29  N   UNL     1      53.740   9.083   7.765  0.00  0.00    +0.000 NA
ATOM     30  C   UNL     1      53.780   7.793   7.824  0.00  0.00    +0.000 A 
ATOM     31  N   UNL     1      53.111   7.030   8.747  0.00  0.00    +0.000 N 
ATOM     32  C   UNL     1      52.323   7.575   9.730  0.00  0.00    +0.000 A 
ATOM     33  O   UNL     1      51.746   6.863  10.547  0.00  0.00    +0.000 OA
ATOM     34  C   UNL     1      52.254   9.025   9.718  0.00  0.00    +0.000 A 
ATOM     35  H   UNL     1      53.181   6.024   8.736  0.00  0.00    +0.000 HD
ENDBRANCH  22  25
ENDBRANCH  20  21
ENDBRANCH   4  20
TORSDOF 9
ENDMDL
