MODEL 1
REMARK VINA RESULT:    -7.590      0.000      0.000
REMARK INTER + INTRA:         -11.093
REMARK INTER:                 -10.474
REMARK INTRA:                  -0.619
REMARK UNBOUND:                -0.619
REMARK  Name = 
REMARK  7 active torsions:
REMARK  status: ('A' for Active; 'I' for Inactive)
REMARK    1  A    between atoms: N_1  and  C_2
REMARK    2  A    between atoms: C_2  and  C_3
REMARK    3  A    between atoms: C_7  and  C_8
REMARK    4  A    between atoms: C_8  and  C_9
REMARK    5  A    between atoms: C_9  and  O_10
REMARK    6  A    between atoms: O_10  and  C_11
REMARK    7  A    between atoms: C_15  and  C_16
REMARK                            x       y       z     vdW  Elec       q    Type
REMARK                         _______ _______ _______ _____ _____    ______ ____
ROOT
ATOM      1  C   UNL     1      43.164   3.994  11.371  0.00  0.00    +0.000 C 
ENDROOT
BRANCH   1   2
ATOM      2  C   UNL     1      43.697   4.045  12.802  0.00  0.00    +0.000 C 
BRANCH   2   7
ATOM      3  C   UNL     1      45.803   7.228  12.579  0.00  0.00    +0.000 A 
ATOM      4  C   UNL     1      46.991   6.803  13.186  0.00  0.00    +0.000 A 
ATOM      5  C   UNL     1      47.122   5.490  13.642  0.00  0.00    +0.000 A 
ATOM      6  C   UNL     1      46.067   4.588  13.497  0.00  0.00    +0.000 A 
ATOM      7  C   UNL     1      44.872   4.989  12.890  0.00  0.00    +0.000 A 
ATOM      8  C   UNL     1      44.751   6.309  12.433  0.00  0.00    +0.000 A 
BRANCH   3   9
ATOM      9  C   UNL     1      45.658   8.642  12.077  0.00  0.00    +0.000 C 
BRANCH   9  10
ATOM     10  N   UNL     1      44.705   9.404  12.877  0.00  0.00    +0.000 NA
ATOM     11  H   UNL     1      43.839   9.508  12.354  0.00  0.00    +0.000 HD
ATOM     12  H   UNL     1      45.073  10.344  13.014  0.00  0.00    +0.000 HD
ENDBRANCH   9  10
ENDBRANCH   3   9
ENDBRANCH   2   7
ENDBRANCH   1   2
BRANCH   1  13
ATOM     13  O   UNL     1      43.587   2.785  10.728  0.00  0.00    +0.000 OA
BRANCH  13  14
ATOM     14  C   UNL     1      44.469   2.954   9.693  0.00  0.00    +0.000 A 
ATOM     15  C   UNL     1      44.571   4.228   9.147  0.00  0.00    +0.000 A 
ATOM     16  N   UNL     1      45.399   4.558   8.124  0.00  0.00    +0.000 NA
ATOM     17  C   UNL     1      46.166   3.559   7.618  0.00  0.00    +0.000 A 
ATOM     18  C   UNL     1      46.145   2.254   8.084  0.00  0.00    +0.000 A 
ATOM     19  C   UNL     1      45.275   1.961   9.141  0.00  0.00    +0.000 A 
BRANCH  18  20
ATOM     20  C   UNL     1      46.982   1.156   7.542  0.00  0.00    +0.000 C 
ATOM     21  N   UNL     1      48.033   1.453   6.725  0.00  0.00    +0.000 N 
ATOM     22  O   UNL     1      46.743  -0.015   7.817  0.00  0.00    +0.000 OA
ATOM     23  H   UNL     1      48.315   2.374   6.427  0.00  0.00    +0.000 HD
ATOM     24  H   UNL     1      48.568   0.665   6.383  0.00  0.00    +0.000 HD
ENDBRANCH  18  20
ENDBRANCH  13  14
ENDBRANCH   1  13
TORSDOF 7
ENDMDL
MODEL 2
REMARK VINA RESULT:    -7.549      2.032      6.557
REMARK INTER + INTRA:         -11.037
REMARK INTER:                 -10.298
REMARK INTRA:                  -0.738
REMARK UNBOUND:                -0.619
REMARK  Name = 
REMARK  7 active torsions:
REMARK  status: ('A' for Active; 'I' for Inactive)
REMARK    1  A    between atoms: N_1  and  C_2
REMARK    2  A    between atoms: C_2  and  C_3
REMARK    3  A    between atoms: C_7  and  C_8
REMARK    4  A    between atoms: C_8  and  C_9
REMARK    5  A    between atoms: C_9  and  O_10
REMARK    6  A    between atoms: O_10  and  C_11
REMARK    7  A    between atoms: C_15  and  C_16
REMARK                            x       y       z     vdW  Elec       q    Type
REMARK                         _______ _______ _______ _____ _____    ______ ____
ROOT
ATOM      1  C   UNL     1      43.614   3.338  11.451  0.00  0.00    +0.000 C 
ENDROOT
BRANCH   1   2
ATOM      2  C   UNL     1      43.956   2.222  10.466  0.00  0.00    +0.000 C 
BRANCH   2   7
ATOM      3  C   UNL     1      46.520   2.250   7.630  0.00  0.00    +0.000 A 
ATOM      4  C   UNL     1      46.618   3.624   7.376  0.00  0.00    +0.000 A 
ATOM      5  C   UNL     1      45.881   4.539   8.130  0.00  0.00    +0.000 A 
ATOM      6  C   UNL     1      45.037   4.090   9.147  0.00  0.00    +0.000 A 
ATOM      7  C   UNL     1      44.926   2.723   9.423  0.00  0.00    +0.000 A 
ATOM      8  C   UNL     1      45.673   1.813   8.661  0.00  0.00    +0.000 A 
BRANCH   3   9
ATOM      9  C   UNL     1      47.320   1.259   6.824  0.00  0.00    +0.000 C 
BRANCH   9  10
ATOM     10  N   UNL     1      48.466   1.889   6.179  0.00  0.00    +0.000 NA
ATOM     11  H   UNL     1      48.348   1.840   5.169  0.00  0.00    +0.000 HD
ATOM     12  H   UNL     1      49.302   1.348   6.397  0.00  0.00    +0.000 HD
ENDBRANCH   9  10
ENDBRANCH   3   9
ENDBRANCH   2   7
ENDBRANCH   1   2
BRANCH   1  13
ATOM     13  O   UNL     1      44.370   3.183  12.658  0.00  0.00    +0.000 OA
BRANCH  13  14
ATOM     14  C   UNL     1      45.279   4.178  12.908  0.00  0.00    +0.000 A 
ATOM     15  C   UNL     1      46.523   3.794  13.393  0.00  0.00    +0.000 A 
ATOM     16  N   UNL     1      47.529   4.657  13.685  0.00  0.00    +0.000 NA
ATOM     17  C   UNL     1      47.277   5.975  13.483  0.00  0.00    +0.000 A 
ATOM     18  C   UNL     1      46.073   6.468  13.005  0.00  0.00    +0.000 A 
ATOM     19  C   UNL     1      45.064   5.541  12.718  0.00  0.00    +0.000 A 
BRANCH  18  20
ATOM     20  C   UNL     1      45.788   7.906  12.776  0.00  0.00    +0.000 C 
ATOM     21  N   UNL     1      46.268   8.834  13.653  0.00  0.00    +0.000 N 
ATOM     22  O   UNL     1      45.128   8.273  11.809  0.00  0.00    +0.000 OA
ATOM     23  H   UNL     1      46.811   8.647  14.481  0.00  0.00    +0.000 HD
ATOM     24  H   UNL     1      46.041   9.799  13.449  0.00  0.00    +0.000 HD
ENDBRANCH  18  20
ENDBRANCH  13  14
ENDBRANCH   1  13
TORSDOF 7
ENDMDL
MODEL 3
REMARK VINA RESULT:    -7.420      1.531      2.046
REMARK INTER + INTRA:         -10.859
REMARK INTER:                 -10.255
REMARK INTRA:                  -0.604
REMARK UNBOUND:                -0.619
REMARK  Name = 
REMARK  7 active torsions:
REMARK  status: ('A' for Active; 'I' for Inactive)
REMARK    1  A    between atoms: N_1  and  C_2
REMARK    2  A    between atoms: C_2  and  C_3
REMARK    3  A    between atoms: C_7  and  C_8
REMARK    4  A    between atoms: C_8  and  C_9
REMARK    5  A    between atoms: C_9  and  O_10
REMARK    6  A    between atoms: O_10  and  C_11
REMARK    7  A    between atoms: C_15  and  C_16
REMARK                            x       y       z     vdW  Elec       q    Type
REMARK                         _______ _______ _______ _____ _____    ______ ____
ROOT
ATOM      1  C   UNL     1      44.159   2.858  11.787  0.00  0.00    +0.000 C 
ENDROOT
BRANCH   1   2
ATOM      2  C   UNL     1      43.561   3.986  12.626  0.00  0.00    +0.000 C 
BRANCH   2   7
ATOM      3  C   UNL     1      46.570   6.313  13.010  0.00  0.00    +0.000 A 
ATOM      4  C   UNL     1      46.134   7.431  12.288  0.00  0.00    +0.000 A 
ATOM      5  C   UNL     1      44.867   7.445  11.702  0.00  0.00    +0.000 A 
ATOM      6  C   UNL     1      44.022   6.342  11.829  0.00  0.00    +0.000 A 
ATOM      7  C   UNL     1      44.434   5.215  12.550  0.00  0.00    +0.000 A 
ATOM      8  C   UNL     1      45.708   5.212  13.137  0.00  0.00    +0.000 A 
BRANCH   3   9
ATOM      9  C   UNL     1      47.934   6.295  13.653  0.00  0.00    +0.000 C 
BRANCH   9  10
ATOM     10  N   UNL     1      47.889   5.726  14.996  0.00  0.00    +0.000 NA
ATOM     11  H   UNL     1      47.973   6.476  15.678  0.00  0.00    +0.000 HD
ATOM     12  H   UNL     1      48.705   5.128  15.123  0.00  0.00    +0.000 HD
ENDBRANCH   9  10
ENDBRANCH   3   9
ENDBRANCH   2   7
ENDBRANCH   1   2
BRANCH   1  13
ATOM     13  O   UNL     1      43.642   2.906  10.451  0.00  0.00    +0.000 OA
BRANCH  13  14
ATOM     14  C   UNL     1      44.585   3.037   9.466  0.00  0.00    +0.000 A 
ATOM     15  C   UNL     1      44.802   4.313   8.960  0.00  0.00    +0.000 A 
ATOM     16  N   UNL     1      45.702   4.607   7.988  0.00  0.00    +0.000 NA
ATOM     17  C   UNL     1      46.423   3.569   7.493  0.00  0.00    +0.000 A 
ATOM     18  C   UNL     1      46.288   2.258   7.923  0.00  0.00    +0.000 A 
ATOM     19  C   UNL     1      45.347   2.002   8.927  0.00  0.00    +0.000 A 
BRANCH  18  20
ATOM     20  C   UNL     1      47.073   1.117   7.393  0.00  0.00    +0.000 C 
ATOM     21  N   UNL     1      46.684  -0.159   7.681  0.00  0.00    +0.000 N 
ATOM     22  O   UNL     1      48.067   1.303   6.698  0.00  0.00    +0.000 OA
ATOM     23  H   UNL     1      45.894  -0.427   8.245  0.00  0.00    +0.000 HD
ATOM     24  H   UNL     1      47.258  -0.897   7.295  0.00  0.00    +0.000 HD
ENDBRANCH  18  20
ENDBRANCH  13  14
ENDBRANCH   1  13
TORSDOF 7
ENDMDL
MODEL 4
REMARK VINA RESULT:    -7.042      2.113      2.737
REMARK INTER + INTRA:         -10.337
REMARK INTER:                  -9.780
REMARK INTRA:                  -0.557
REMARK UNBOUND:                -0.619
REMARK  Name = 
REMARK  7 active torsions:
REMARK  status: ('A' for Active; 'I' for Inactive)
REMARK    1  A    between atoms: N_1  and  C_2
REMARK    2  A    between atoms: C_2  and  C_3
REMARK    3  A    between atoms: C_7  and  C_8
REMARK    4  A    between atoms: C_8  and  C_9
REMARK    5  A    between atoms: C_9  and  O_10
REMARK    6  A    between atoms: O_10  and  C_11
REMARK    7  A    between atoms: C_15  and  C_16
REMARK                            x       y       z     vdW  Elec       q    Type
REMARK                         _______ _______ _______ _____ _____    ______ ____
ROOT
ATOM      1  C   UNL     1      43.516   4.371  10.527  0.00  0.00    +0.000 C 
ENDROOT
BRANCH   1   2
ATOM      2  C   UNL     1      43.466   5.722  11.239  0.00  0.00    +0.000 C 
BRANCH   2   7
ATOM      3  C   UNL     1      46.495   5.366  13.544  0.00  0.00    +0.000 A 
ATOM      4  C   UNL     1      47.297   6.421  13.092  0.00  0.00    +0.000 A 
ATOM      5  C   UNL     1      46.854   7.258  12.066  0.00  0.00    +0.000 A 
ATOM      6  C   UNL     1      45.605   7.050  11.480  0.00  0.00    +0.000 A 
ATOM      7  C   UNL     1      44.783   6.005  11.919  0.00  0.00    +0.000 A 
ATOM      8  C   UNL     1      45.237   5.172  12.952  0.00  0.00    +0.000 A 
BRANCH   3   9
ATOM      9  C   UNL     1      46.964   4.464  14.657  0.00  0.00    +0.000 C 
BRANCH   9  10
ATOM     10  N   UNL     1      47.829   5.171  15.595  0.00  0.00    +0.000 NA
ATOM     11  H   UNL     1      47.313   5.353  16.453  0.00  0.00    +0.000 HD
ATOM     12  H   UNL     1      48.061   6.082  15.201  0.00  0.00    +0.000 HD
ENDBRANCH   9  10
ENDBRANCH   3   9
ENDBRANCH   2   7
ENDBRANCH   1   2
BRANCH   1  13
ATOM     13  O   UNL     1      43.964   4.539   9.177  0.00  0.00    +0.000 OA
BRANCH  13  14
ATOM     14  C   UNL     1      44.773   3.539   8.704  0.00  0.00    +0.000 A 
ATOM     15  C   UNL     1      44.665   2.293   9.311  0.00  0.00    +0.000 A 
ATOM     16  N   UNL     1      45.390   1.203   8.955  0.00  0.00    +0.000 NA
ATOM     17  C   UNL     1      46.274   1.368   7.938  0.00  0.00    +0.000 A 
ATOM     18  C   UNL     1      46.464   2.563   7.263  0.00  0.00    +0.000 A 
ATOM     19  C   UNL     1      45.694   3.661   7.665  0.00  0.00    +0.000 A 
BRANCH  18  20
ATOM     20  C   UNL     1      47.423   2.753   6.148  0.00  0.00    +0.000 C 
ATOM     21  N   UNL     1      48.761   2.613   6.380  0.00  0.00    +0.000 N 
ATOM     22  O   UNL     1      47.032   3.033   5.019  0.00  0.00    +0.000 OA
ATOM     23  H   UNL     1      49.192   2.394   7.263  0.00  0.00    +0.000 HD
ATOM     24  H   UNL     1      49.368   2.755   5.583  0.00  0.00    +0.000 HD
ENDBRANCH  18  20
ENDBRANCH  13  14
ENDBRANCH   1  13
TORSDOF 7
ENDMDL
MODEL 5
REMARK VINA RESULT:    -6.828      2.608      6.726
REMARK INTER + INTRA:         -10.041
REMARK INTER:                  -9.610
REMARK INTRA:                  -0.432
REMARK UNBOUND:                -0.619
REMARK  Name = 
REMARK  7 active torsions:
REMARK  status: ('A' for Active; 'I' for Inactive)
REMARK    1  A    between atoms: N_1  and  C_2
REMARK    2  A    between atoms: C_2  and  C_3
REMARK    3  A    between atoms: C_7  and  C_8
REMARK    4  A    between atoms: C_8  and  C_9
REMARK    5  A    between atoms: C_9  and  O_10
REMARK    6  A    between atoms: O_10  and  C_11
REMARK    7  A    between atoms: C_15  and  C_16
REMARK                            x       y       z     vdW  Elec       q    Type
REMARK                         _______ _______ _______ _____ _____    ______ ____
ROOT
ATOM      1  C   UNL     1      44.916   5.272  10.246  0.00  0.00    +0.000 C 
ENDROOT
BRANCH   1   2
ATOM      2  C   UNL     1      44.149   4.553   9.138  0.00  0.00    +0.000 C 
BRANCH   2   7
ATOM      3  C   UNL     1      46.843   2.669   7.186  0.00  0.00    +0.000 A 
ATOM      4  C   UNL     1      46.630   1.360   7.636  0.00  0.00    +0.000 A 
ATOM      5  C   UNL     1      45.607   1.082   8.545  0.00  0.00    +0.000 A 
ATOM      6  C   UNL     1      44.787   2.109   9.014  0.00  0.00    +0.000 A 
ATOM      7  C   UNL     1      44.978   3.423   8.575  0.00  0.00    +0.000 A 
ATOM      8  C   UNL     1      46.006   3.692   7.660  0.00  0.00    +0.000 A 
BRANCH   3   9
ATOM      9  C   UNL     1      47.940   2.975   6.198  0.00  0.00    +0.000 C 
BRANCH   9  10
ATOM     10  N   UNL     1      48.559   1.757   5.686  0.00  0.00    +0.000 NA
ATOM     11  H   UNL     1      49.539   1.942   5.483  0.00  0.00    +0.000 HD
ATOM     12  H   UNL     1      48.121   1.518   4.797  0.00  0.00    +0.000 HD
ENDBRANCH   9  10
ENDBRANCH   3   9
ENDBRANCH   2   7
ENDBRANCH   1   2
BRANCH   1  13
ATOM     13  O   UNL     1      44.993   4.444  11.413  0.00  0.00    +0.000 OA
BRANCH  13  14
ATOM     14  C   UNL     1      45.867   4.875  12.376  0.00  0.00    +0.000 A 
ATOM     15  C   UNL     1      46.470   6.112  12.178  0.00  0.00    +0.000 A 
ATOM     16  N   UNL     1      47.352   6.679  13.039  0.00  0.00    +0.000 NA
ATOM     17  C   UNL     1      47.650   5.969  14.158  0.00  0.00    +0.000 A 
ATOM     18  C   UNL     1      47.109   4.728  14.455  0.00  0.00    +0.000 A 
ATOM     19  C   UNL     1      46.204   4.183  13.537  0.00  0.00    +0.000 A 
BRANCH  18  20
ATOM     20  C   UNL     1      47.424   3.947  15.676  0.00  0.00    +0.000 C 
ATOM     21  N   UNL     1      46.965   4.379  16.887  0.00  0.00    +0.000 N 
ATOM     22  O   UNL     1      48.090   2.919  15.614  0.00  0.00    +0.000 OA
ATOM     23  H   UNL     1      46.419   5.208  17.056  0.00  0.00    +0.000 HD
ATOM     24  H   UNL     1      47.212   3.808  17.685  0.00  0.00    +0.000 HD
ENDBRANCH  18  20
ENDBRANCH  13  14
ENDBRANCH   1  13
TORSDOF 7
ENDMDL
MODEL 6
REMARK VINA RESULT:    -6.524      4.986      6.729
REMARK INTER + INTRA:          -9.622
REMARK INTER:                  -9.252
REMARK INTRA:                  -0.370
REMARK UNBOUND:                -0.619
REMARK  Name = 
REMARK  7 active torsions:
REMARK  status: ('A' for Active; 'I' for Inactive)
REMARK    1  A    between atoms: N_1  and  C_2
REMARK    2  A    between atoms: C_2  and  C_3
REMARK    3  A    between atoms: C_7  and  C_8
REMARK    4  A    between atoms: C_8  and  C_9
REMARK    5  A    between atoms: C_9  and  O_10
REMARK    6  A    between atoms: O_10  and  C_11
REMARK    7  A    between atoms: C_15  and  C_16
REMARK                            x       y       z     vdW  Elec       q    Type
REMARK                         _______ _______ _______ _____ _____    ______ ____
ROOT
ATOM      1  C   UNL     1      47.339   4.001  15.827  0.00  0.00    +0.000 C 
ENDROOT
BRANCH   1   2
ATOM      2  C   UNL     1      47.781   3.078  16.961  0.00  0.00    +0.000 C 
BRANCH   2   7
ATOM      3  C   UNL     1      51.498   2.461  17.610  0.00  0.00    +0.000 A 
ATOM      4  C   UNL     1      51.960   3.773  17.777  0.00  0.00    +0.000 A 
ATOM      5  C   UNL     1      51.073   4.849  17.707  0.00  0.00    +0.000 A 
ATOM      6  C   UNL     1      49.716   4.626  17.467  0.00  0.00    +0.000 A 
ATOM      7  C   UNL     1      49.232   3.324  17.301  0.00  0.00    +0.000 A 
ATOM      8  C   UNL     1      50.130   2.250  17.376  0.00  0.00    +0.000 A 
BRANCH   3   9
ATOM      9  C   UNL     1      52.449   1.294  17.693  0.00  0.00    +0.000 C 
BRANCH   9  10
ATOM     10  N   UNL     1      51.778   0.085  18.160  0.00  0.00    +0.000 NA
ATOM     11  H   UNL     1      52.472  -0.645  18.307  0.00  0.00    +0.000 HD
ATOM     12  H   UNL     1      51.161  -0.250  17.421  0.00  0.00    +0.000 HD
ENDBRANCH   9  10
ENDBRANCH   3   9
ENDBRANCH   2   7
ENDBRANCH   1   2
BRANCH   1  13
ATOM     13  O   UNL     1      47.451   3.328  14.568  0.00  0.00    +0.000 OA
BRANCH  13  14
ATOM     14  C   UNL     1      46.732   3.885  13.543  0.00  0.00    +0.000 A 
ATOM     15  C   UNL     1      46.968   5.224  13.256  0.00  0.00    +0.000 A 
ATOM     16  N   UNL     1      46.342   5.917  12.272  0.00  0.00    +0.000 NA
ATOM     17  C   UNL     1      45.427   5.235  11.537  0.00  0.00    +0.000 A 
ATOM     18  C   UNL     1      45.113   3.901  11.737  0.00  0.00    +0.000 A 
ATOM     19  C   UNL     1      45.784   3.226  12.763  0.00  0.00    +0.000 A 
BRANCH  18  20
ATOM     20  C   UNL     1      44.119   3.145  10.936  0.00  0.00    +0.000 C 
ATOM     21  N   UNL     1      44.550   2.258   9.992  0.00  0.00    +0.000 N 
ATOM     22  O   UNL     1      42.915   3.303  11.110  0.00  0.00    +0.000 OA
ATOM     23  H   UNL     1      45.509   2.055   9.760  0.00  0.00    +0.000 HD
ATOM     24  H   UNL     1      43.829   1.772   9.475  0.00  0.00    +0.000 HD
ENDBRANCH  18  20
ENDBRANCH  13  14
ENDBRANCH   1  13
TORSDOF 7
ENDMDL
MODEL 7
REMARK VINA RESULT:    -6.350      3.457      6.847
REMARK INTER + INTRA:          -9.382
REMARK INTER:                  -8.877
REMARK INTRA:                  -0.506
REMARK UNBOUND:                -0.619
REMARK  Name = 
REMARK  7 active torsions:
REMARK  status: ('A' for Active; 'I' for Inactive)
REMARK    1  A    between atoms: N_1  and  C_2
REMARK    2  A    between atoms: C_2  and  C_3
REMARK    3  A    between atoms: C_7  and  C_8
REMARK    4  A    between atoms: C_8  and  C_9
REMARK    5  A    between atoms: C_9  and  O_10
REMARK    6  A    between atoms: O_10  and  C_11
REMARK    7  A    between atoms: C_15  and  C_16
REMARK                            x       y       z     vdW  Elec       q    Type
REMARK                         _______ _______ _______ _____ _____    ______ ____
ROOT
ATOM      1  C   UNL     1      45.663   6.465  12.521  0.00  0.00    +0.000 C 
ENDROOT
BRANCH   1   2
ATOM      2  C   UNL     1      45.240   6.587  11.058  0.00  0.00    +0.000 C 
BRANCH   2   7
ATOM      3  C   UNL     1      45.281   3.610   8.660  0.00  0.00    +0.000 A 
ATOM      4  C   UNL     1      44.630   2.639   9.431  0.00  0.00    +0.000 A 
ATOM      5  C   UNL     1      44.157   2.949  10.708  0.00  0.00    +0.000 A 
ATOM      6  C   UNL     1      44.332   4.232  11.228  0.00  0.00    +0.000 A 
ATOM      7  C   UNL     1      44.975   5.220  10.474  0.00  0.00    +0.000 A 
ATOM      8  C   UNL     1      45.444   4.899   9.192  0.00  0.00    +0.000 A 
BRANCH   3   9
ATOM      9  C   UNL     1      45.786   3.284   7.277  0.00  0.00    +0.000 C 
BRANCH   9  10
ATOM     10  N   UNL     1      46.861   4.182   6.870  0.00  0.00    +0.000 NA
ATOM     11  H   UNL     1      47.279   3.833   6.010  0.00  0.00    +0.000 HD
ATOM     12  H   UNL     1      47.594   4.154   7.578  0.00  0.00    +0.000 HD
ENDBRANCH   9  10
ENDBRANCH   3   9
ENDBRANCH   2   7
ENDBRANCH   1   2
BRANCH   1  13
ATOM     13  O   UNL     1      47.013   5.995  12.610  0.00  0.00    +0.000 OA
BRANCH  13  14
ATOM     14  C   UNL     1      47.482   5.807  13.883  0.00  0.00    +0.000 A 
ATOM     15  C   UNL     1      48.220   6.840  14.447  0.00  0.00    +0.000 A 
ATOM     16  N   UNL     1      48.748   6.809  15.697  0.00  0.00    +0.000 NA
ATOM     17  C   UNL     1      48.527   5.683  16.422  0.00  0.00    +0.000 A 
ATOM     18  C   UNL     1      47.807   4.593  15.959  0.00  0.00    +0.000 A 
ATOM     19  C   UNL     1      47.282   4.670  14.664  0.00  0.00    +0.000 A 
BRANCH  18  20
ATOM     20  C   UNL     1      47.556   3.360  16.743  0.00  0.00    +0.000 C 
ATOM     21  N   UNL     1      48.512   2.386  16.790  0.00  0.00    +0.000 N 
ATOM     22  O   UNL     1      46.503   3.202  17.352  0.00  0.00    +0.000 OA
ATOM     23  H   UNL     1      49.405   2.405  16.324  0.00  0.00    +0.000 HD
ATOM     24  H   UNL     1      48.285   1.566  17.338  0.00  0.00    +0.000 HD
ENDBRANCH  18  20
ENDBRANCH  13  14
ENDBRANCH   1  13
TORSDOF 7
ENDMDL
MODEL 8
REMARK VINA RESULT:    -6.124      2.302      3.032
REMARK INTER + INTRA:          -9.070
REMARK INTER:                  -8.460
REMARK INTRA:                  -0.610
REMARK UNBOUND:                -0.619
REMARK  Name = 
REMARK  7 active torsions:
REMARK  status: ('A' for Active; 'I' for Inactive)
REMARK    1  A    between atoms: N_1  and  C_2
REMARK    2  A    between atoms: C_2  and  C_3
REMARK    3  A    between atoms: C_7  and  C_8
REMARK    4  A    between atoms: C_8  and  C_9
REMARK    5  A    between atoms: C_9  and  O_10
REMARK    6  A    between atoms: O_10  and  C_11
REMARK    7  A    between atoms: C_15  and  C_16
REMARK                            x       y       z     vdW  Elec       q    Type
REMARK                         _______ _______ _______ _____ _____    ______ ____
ROOT
ATOM      1  C   UNL     1      44.090   5.627  12.182  0.00  0.00    +0.000 C 
ENDROOT
BRANCH   1   2
ATOM      2  C   UNL     1      45.390   5.668  12.984  0.00  0.00    +0.000 C 
BRANCH   2   7
ATOM      3  C   UNL     1      48.132   8.114  11.928  0.00  0.00    +0.000 A 
ATOM      4  C   UNL     1      47.467   9.337  12.076  0.00  0.00    +0.000 A 
ATOM      5  C   UNL     1      46.150   9.376  12.538  0.00  0.00    +0.000 A 
ATOM      6  C   UNL     1      45.483   8.192  12.856  0.00  0.00    +0.000 A 
ATOM      7  C   UNL     1      46.128   6.958  12.721  0.00  0.00    +0.000 A 
ATOM      8  C   UNL     1      47.452   6.931  12.258  0.00  0.00    +0.000 A 
BRANCH   3   9
ATOM      9  C   UNL     1      49.557   8.066  11.437  0.00  0.00    +0.000 C 
BRANCH   9  10
ATOM     10  N   UNL     1      50.379   7.183  12.258  0.00  0.00    +0.000 NA
ATOM     11  H   UNL     1      51.280   7.050  11.803  0.00  0.00    +0.000 HD
ATOM     12  H   UNL     1      49.937   6.266  12.293  0.00  0.00    +0.000 HD
ENDBRANCH   9  10
ENDBRANCH   3   9
ENDBRANCH   2   7
ENDBRANCH   1   2
BRANCH   1  13
ATOM     13  O   UNL     1      44.366   5.780  10.784  0.00  0.00    +0.000 OA
BRANCH  13  14
ATOM     14  C   UNL     1      44.596   4.612  10.106  0.00  0.00    +0.000 A 
ATOM     15  C   UNL     1      43.910   3.482  10.536  0.00  0.00    +0.000 A 
ATOM     16  N   UNL     1      44.026   2.256   9.967  0.00  0.00    +0.000 NA
ATOM     17  C   UNL     1      44.874   2.152   8.912  0.00  0.00    +0.000 A 
ATOM     18  C   UNL     1      45.607   3.212   8.402  0.00  0.00    +0.000 A 
ATOM     19  C   UNL     1      45.456   4.458   9.021  0.00  0.00    +0.000 A 
BRANCH  18  20
ATOM     20  C   UNL     1      46.533   3.112   7.247  0.00  0.00    +0.000 C 
ATOM     21  N   UNL     1      47.396   2.057   7.167  0.00  0.00    +0.000 N 
ATOM     22  O   UNL     1      46.534   3.961   6.363  0.00  0.00    +0.000 OA
ATOM     23  H   UNL     1      47.487   1.310   7.837  0.00  0.00    +0.000 HD
ATOM     24  H   UNL     1      48.005   2.041   6.360  0.00  0.00    +0.000 HD
ENDBRANCH  18  20
ENDBRANCH  13  14
ENDBRANCH   1  13
TORSDOF 7
ENDMDL
MODEL 9
REMARK VINA RESULT:    -6.012      2.112      2.959
REMARK INTER + INTRA:          -8.916
REMARK INTER:                  -8.589
REMARK INTRA:                  -0.328
REMARK UNBOUND:                -0.619
REMARK  Name = 
REMARK  7 active torsions:
REMARK  status: ('A' for Active; 'I' for Inactive)
REMARK    1  A    between atoms: N_1  and  C_2
REMARK    2  A    between atoms: C_2  and  C_3
REMARK    3  A    between atoms: C_7  and  C_8
REMARK    4  A    between atoms: C_8  and  C_9
REMARK    5  A    between atoms: C_9  and  O_10
REMARK    6  A    between atoms: O_10  and  C_11
REMARK    7  A    between atoms: C_15  and  C_16
REMARK                            x       y       z     vdW  Elec       q    Type
REMARK                         _______ _______ _______ _____ _____    ______ ____
ROOT
ATOM      1  C   UNL     1      45.805   5.761  10.500  0.00  0.00    +0.000 C 
ENDROOT
BRANCH   1   2
ATOM      2  C   UNL     1      44.978   6.401  11.614  0.00  0.00    +0.000 C 
BRANCH   2   7
ATOM      3  C   UNL     1      44.444  10.185  11.500  0.00  0.00    +0.000 A 
ATOM      4  C   UNL     1      45.687  10.642  11.955  0.00  0.00    +0.000 A 
ATOM      5  C   UNL     1      46.701   9.736  12.273  0.00  0.00    +0.000 A 
ATOM      6  C   UNL     1      46.483   8.364  12.141  0.00  0.00    +0.000 A 
ATOM      7  C   UNL     1      45.251   7.884  11.683  0.00  0.00    +0.000 A 
ATOM      8  C   UNL     1      44.240   8.802  11.364  0.00  0.00    +0.000 A 
BRANCH   3   9
ATOM      9  C   UNL     1      43.348  11.158  11.147  0.00  0.00    +0.000 C 
BRANCH   9  10
ATOM     10  N   UNL     1      42.263  11.125  12.121  0.00  0.00    +0.000 NA
ATOM     11  H   UNL     1      42.279  10.230  12.607  0.00  0.00    +0.000 HD
ATOM     12  H   UNL     1      41.375  11.165  11.622  0.00  0.00    +0.000 HD
ENDBRANCH   9  10
ENDBRANCH   3   9
ENDBRANCH   2   7
ENDBRANCH   1   2
BRANCH   1  13
ATOM     13  O   UNL     1      44.945   5.248   9.476  0.00  0.00    +0.000 OA
BRANCH  13  14
ATOM     14  C   UNL     1      45.312   4.030   8.964  0.00  0.00    +0.000 A 
ATOM     15  C   UNL     1      44.688   2.906   9.493  0.00  0.00    +0.000 A 
ATOM     16  N   UNL     1      44.937   1.634   9.091  0.00  0.00    +0.000 NA
ATOM     17  C   UNL     1      45.861   1.478   8.109  0.00  0.00    +0.000 A 
ATOM     18  C   UNL     1      46.543   2.527   7.512  0.00  0.00    +0.000 A 
ATOM     19  C   UNL     1      46.254   3.821   7.960  0.00  0.00    +0.000 A 
BRANCH  18  20
ATOM     20  C   UNL     1      47.551   2.367   6.436  0.00  0.00    +0.000 C 
ATOM     21  N   UNL     1      47.413   3.074   5.276  0.00  0.00    +0.000 N 
ATOM     22  O   UNL     1      48.507   1.611   6.572  0.00  0.00    +0.000 OA
ATOM     23  H   UNL     1      46.667   3.713   5.053  0.00  0.00    +0.000 HD
ATOM     24  H   UNL     1      48.128   2.924   4.576  0.00  0.00    +0.000 HD
ENDBRANCH  18  20
ENDBRANCH  13  14
ENDBRANCH   1  13
TORSDOF 7
ENDMDL
