MODEL 1
REMARK VINA RESULT:    -8.516      0.000      0.000
REMARK INTER + INTRA:         -11.977
REMARK INTER:                 -11.006
REMARK INTRA:                  -0.971
REMARK UNBOUND:                -0.971
REMARK  Name = 
REMARK  5 active torsions:
REMARK  status: ('A' for Active; 'I' for Inactive)
REMARK    1  A    between atoms: C_4  and  C_5
REMARK    2  A    between atoms: C_9  and  C_10
REMARK    3  A    between atoms: C_10  and  O_11
REMARK    4  A    between atoms: O_11  and  C_12
REMARK    5  A    between atoms: C_21  and  C_22
REMARK                            x       y       z     vdW  Elec       q    Type
REMARK                         _______ _______ _______ _____ _____    ______ ____
ROOT
ATOM      1  C   UNL     1      46.364   5.526  13.248  0.00  0.00    +0.000 A 
ATOM      2  C   UNL     1      46.045   6.756  12.644  0.00  0.00    +0.000 A 
ATOM      3  C   UNL     1      45.223   6.826  11.515  0.00  0.00    +0.000 A 
ATOM      4  C   UNL     1      44.726   5.661  10.940  0.00  0.00    +0.000 A 
ATOM      5  C   UNL     1      45.048   4.417  11.490  0.00  0.00    +0.000 A 
ATOM      6  C   UNL     1      45.831   4.365  12.656  0.00  0.00    +0.000 A 
ENDROOT
BRANCH   1  10
ATOM      7  F   UNL     1      49.749   7.438  16.199  0.00  0.00    +0.000 F 
ATOM      8  C   UNL     1      48.927   6.420  15.909  0.00  0.00    +0.000 A 
ATOM      9  C   UNL     1      48.105   6.504  14.789  0.00  0.00    +0.000 A 
ATOM     10  C   UNL     1      47.241   5.451  14.443  0.00  0.00    +0.000 A 
ATOM     11  C   UNL     1      47.241   4.320  15.287  0.00  0.00    +0.000 A 
ATOM     12  C   UNL     1      48.057   4.237  16.432  0.00  0.00    +0.000 A 
ATOM     13  C   UNL     1      48.911   5.304  16.731  0.00  0.00    +0.000 A 
BRANCH  12  14
ATOM     14  C   UNL     1      48.022   3.026  17.327  0.00  0.00    +0.000 C 
ATOM     15  F   UNL     1      48.648   3.213  18.522  0.00  0.00    +0.000 F 
ATOM     16  F   UNL     1      46.753   2.636  17.626  0.00  0.00    +0.000 F 
ATOM     17  F   UNL     1      48.622   1.944  16.759  0.00  0.00    +0.000 F 
ENDBRANCH  12  14
ENDBRANCH   1  10
BRANCH   5  18
ATOM     18  C   UNL     1      44.599   3.143  10.816  0.00  0.00    +0.000 C 
BRANCH  18  19
ATOM     19  O   UNL     1      44.288   3.395   9.446  0.00  0.00    +0.000 OA
BRANCH  19  20
ATOM     20  C   UNL     1      45.270   2.909   8.604  0.00  0.00    +0.000 A 
ATOM     21  C   UNL     1      45.957   3.838   7.836  0.00  0.00    +0.000 A 
ATOM     22  C   UNL     1      46.966   3.384   6.992  0.00  0.00    +0.000 A 
ATOM     23  C   UNL     1      47.254   2.023   6.945  0.00  0.00    +0.000 A 
ATOM     24  C   UNL     1      46.507   1.181   7.748  0.00  0.00    +0.000 A 
ATOM     25 CL   UNL     1      46.790  -0.512   7.763  0.00  0.00    +0.000 Cl
ATOM     26  N   UNL     1      45.524   1.585   8.574  0.00  0.00    +0.000 NA
ENDBRANCH  19  20
ENDBRANCH  18  19
ENDBRANCH   5  18
TORSDOF 5
ENDMDL
MODEL 2
REMARK VINA RESULT:    -8.137      3.908      5.806
REMARK INTER + INTRA:         -11.487
REMARK INTER:                 -10.488
REMARK INTRA:                  -0.999
REMARK UNBOUND:                -0.971
REMARK  Name = 
REMARK  5 active torsions:
REMARK  status: ('A' for Active; 'I' for Inactive)
REMARK    1  A    between atoms: C_4  and  C_5
REMARK    2  A    between atoms: C_9  and  C_10
REMARK    3  A    between atoms: C_10  and  O_11
REMARK    4  A    between atoms: O_11  and  C_12
REMARK    5  A    between atoms: C_21  and  C_22
REMARK                            x       y       z     vdW  Elec       q    Type
REMARK                         _______ _______ _______ _____ _____    ______ ____
ROOT
ATOM      1  C   UNL     1      45.514   6.202  12.092  0.00  0.00    +0.000 A 
ATOM      2  C   UNL     1      46.019   5.643  13.279  0.00  0.00    +0.000 A 
ATOM      3  C   UNL     1      46.077   4.258  13.470  0.00  0.00    +0.000 A 
ATOM      4  C   UNL     1      45.599   3.398  12.487  0.00  0.00    +0.000 A 
ATOM      5  C   UNL     1      45.058   3.916  11.306  0.00  0.00    +0.000 A 
ATOM      6  C   UNL     1      45.055   5.307  11.107  0.00  0.00    +0.000 A 
ENDROOT
BRANCH   1  10
ATOM      7  F   UNL     1      47.414  10.675  12.549  0.00  0.00    +0.000 F 
ATOM      8  C   UNL     1      46.410   9.897  12.123  0.00  0.00    +0.000 A 
ATOM      9  C   UNL     1      46.486   8.519  12.310  0.00  0.00    +0.000 A 
ATOM     10  C   UNL     1      45.447   7.671  11.891  0.00  0.00    +0.000 A 
ATOM     11  C   UNL     1      44.338   8.280  11.266  0.00  0.00    +0.000 A 
ATOM     12  C   UNL     1      44.264   9.671  11.056  0.00  0.00    +0.000 A 
ATOM     13  C   UNL     1      45.316  10.478  11.502  0.00  0.00    +0.000 A 
BRANCH  12  14
ATOM     14  C   UNL     1      43.077  10.292  10.367  0.00  0.00    +0.000 C 
ATOM     15  F   UNL     1      42.812  11.563  10.778  0.00  0.00    +0.000 F 
ATOM     16  F   UNL     1      43.236  10.361   9.017  0.00  0.00    +0.000 F 
ATOM     17  F   UNL     1      41.930   9.588  10.574  0.00  0.00    +0.000 F 
ENDBRANCH  12  14
ENDBRANCH   1  10
BRANCH   5  18
ATOM     18  C   UNL     1      44.444   2.997  10.279  0.00  0.00    +0.000 C 
BRANCH  18  19
ATOM     19  O   UNL     1      44.588   3.553   8.973  0.00  0.00    +0.000 OA
BRANCH  19  20
ATOM     20  C   UNL     1      45.578   2.912   8.253  0.00  0.00    +0.000 A 
ATOM     21  C   UNL     1      46.424   3.710   7.497  0.00  0.00    +0.000 A 
ATOM     22  C   UNL     1      47.445   3.096   6.776  0.00  0.00    +0.000 A 
ATOM     23  C   UNL     1      47.585   1.714   6.836  0.00  0.00    +0.000 A 
ATOM     24  C   UNL     1      46.686   1.011   7.616  0.00  0.00    +0.000 A 
ATOM     25 CL   UNL     1      46.780  -0.698   7.756  0.00  0.00    +0.000 Cl
ATOM     26  N   UNL     1      45.687   1.569   8.325  0.00  0.00    +0.000 NA
ENDBRANCH  19  20
ENDBRANCH  18  19
ENDBRANCH   5  18
TORSDOF 5
ENDMDL
MODEL 3
REMARK VINA RESULT:    -8.115      3.628      4.785
REMARK INTER + INTRA:         -11.459
REMARK INTER:                 -10.599
REMARK INTRA:                  -0.860
REMARK UNBOUND:                -0.971
REMARK  Name = 
REMARK  5 active torsions:
REMARK  status: ('A' for Active; 'I' for Inactive)
REMARK    1  A    between atoms: C_4  and  C_5
REMARK    2  A    between atoms: C_9  and  C_10
REMARK    3  A    between atoms: C_10  and  O_11
REMARK    4  A    between atoms: O_11  and  C_12
REMARK    5  A    between atoms: C_21  and  C_22
REMARK                            x       y       z     vdW  Elec       q    Type
REMARK                         _______ _______ _______ _____ _____    ______ ____
ROOT
ATOM      1  C   UNL     1      46.659   6.382  12.203  0.00  0.00    +0.000 A 
ATOM      2  C   UNL     1      46.623   5.670  13.416  0.00  0.00    +0.000 A 
ATOM      3  C   UNL     1      45.802   4.551  13.584  0.00  0.00    +0.000 A 
ATOM      4  C   UNL     1      44.970   4.133  12.551  0.00  0.00    +0.000 A 
ATOM      5  C   UNL     1      44.951   4.834  11.342  0.00  0.00    +0.000 A 
ATOM      6  C   UNL     1      45.819   5.925  11.168  0.00  0.00    +0.000 A 
ENDROOT
BRANCH   1  10
ATOM      7  F   UNL     1      47.334  11.215  12.174  0.00  0.00    +0.000 F 
ATOM      8  C   UNL     1      47.847   9.988  12.019  0.00  0.00    +0.000 A 
ATOM      9  C   UNL     1      47.027   8.877  12.194  0.00  0.00    +0.000 A 
ATOM     10  C   UNL     1      47.525   7.574  12.025  0.00  0.00    +0.000 A 
ATOM     11  C   UNL     1      48.888   7.450  11.684  0.00  0.00    +0.000 A 
ATOM     12  C   UNL     1      49.728   8.569  11.524  0.00  0.00    +0.000 A 
ATOM     13  C   UNL     1      49.186   9.848  11.689  0.00  0.00    +0.000 A 
BRANCH  12  14
ATOM     14  C   UNL     1      51.185   8.406  11.179  0.00  0.00    +0.000 C 
ATOM     15  F   UNL     1      51.459   7.259  10.497  0.00  0.00    +0.000 F 
ATOM     16  F   UNL     1      51.654   9.423  10.405  0.00  0.00    +0.000 F 
ATOM     17  F   UNL     1      51.980   8.379  12.284  0.00  0.00    +0.000 F 
ENDBRANCH  12  14
ENDBRANCH   1  10
BRANCH   5  18
ATOM     18  C   UNL     1      43.978   4.454  10.253  0.00  0.00    +0.000 C 
BRANCH  18  19
ATOM     19  O   UNL     1      44.055   3.052   9.993  0.00  0.00    +0.000 OA
BRANCH  19  20
ATOM     20  C   UNL     1      44.970   2.769   8.997  0.00  0.00    +0.000 A 
ATOM     21  C   UNL     1      45.393   3.830   8.211  0.00  0.00    +0.000 A 
ATOM     22  C   UNL     1      46.331   3.582   7.211  0.00  0.00    +0.000 A 
ATOM     23  C   UNL     1      46.811   2.289   7.034  0.00  0.00    +0.000 A 
ATOM     24  C   UNL     1      46.320   1.302   7.869  0.00  0.00    +0.000 A 
ATOM     25 CL   UNL     1      46.854  -0.324   7.730  0.00  0.00    +0.000 Cl
ATOM     26  N   UNL     1      45.414   1.504   8.843  0.00  0.00    +0.000 NA
ENDBRANCH  19  20
ENDBRANCH  18  19
ENDBRANCH   5  18
TORSDOF 5
ENDMDL
MODEL 4
REMARK VINA RESULT:    -7.874      4.858      8.044
REMARK INTER + INTRA:         -11.147
REMARK INTER:                 -10.156
REMARK INTRA:                  -0.991
REMARK UNBOUND:                -0.971
REMARK  Name = 
REMARK  5 active torsions:
REMARK  status: ('A' for Active; 'I' for Inactive)
REMARK    1  A    between atoms: C_4  and  C_5
REMARK    2  A    between atoms: C_9  and  C_10
REMARK    3  A    between atoms: C_10  and  O_11
REMARK    4  A    between atoms: O_11  and  C_12
REMARK    5  A    between atoms: C_21  and  C_22
REMARK                            x       y       z     vdW  Elec       q    Type
REMARK                         _______ _______ _______ _____ _____    ______ ____
ROOT
ATOM      1  C   UNL     1      45.558   6.521  11.564  0.00  0.00    +0.000 A 
ATOM      2  C   UNL     1      44.763   7.677  11.455  0.00  0.00    +0.000 A 
ATOM      3  C   UNL     1      45.115   8.871  12.093  0.00  0.00    +0.000 A 
ATOM      4  C   UNL     1      46.257   8.929  12.884  0.00  0.00    +0.000 A 
ATOM      5  C   UNL     1      47.055   7.793  13.046  0.00  0.00    +0.000 A 
ATOM      6  C   UNL     1      46.718   6.615  12.357  0.00  0.00    +0.000 A 
ENDROOT
BRANCH   1  10
ATOM      7  F   UNL     1      43.055   2.334  11.422  0.00  0.00    +0.000 F 
ATOM      8  C   UNL     1      43.923   3.168  10.834  0.00  0.00    +0.000 A 
ATOM      9  C   UNL     1      44.263   4.359  11.470  0.00  0.00    +0.000 A 
ATOM     10  C   UNL     1      45.182   5.253  10.893  0.00  0.00    +0.000 A 
ATOM     11  C   UNL     1      45.726   4.891   9.643  0.00  0.00    +0.000 A 
ATOM     12  C   UNL     1      45.371   3.696   8.985  0.00  0.00    +0.000 A 
ATOM     13  C   UNL     1      44.463   2.830   9.603  0.00  0.00    +0.000 A 
BRANCH  12  14
ATOM     14  C   UNL     1      45.953   3.345   7.641  0.00  0.00    +0.000 C 
ATOM     15  F   UNL     1      46.660   2.181   7.641  0.00  0.00    +0.000 F 
ATOM     16  F   UNL     1      44.998   3.204   6.681  0.00  0.00    +0.000 F 
ATOM     17  F   UNL     1      46.809   4.299   7.181  0.00  0.00    +0.000 F 
ENDBRANCH  12  14
ENDBRANCH   1  10
BRANCH   5  18
ATOM     18  C   UNL     1      48.237   7.815  13.983  0.00  0.00    +0.000 C 
BRANCH  18  19
ATOM     19  O   UNL     1      48.706   6.487  14.216  0.00  0.00    +0.000 OA
BRANCH  19  20
ATOM     20  C   UNL     1      48.534   6.112  15.535  0.00  0.00    +0.000 A 
ATOM     21  C   UNL     1      48.866   7.047  16.504  0.00  0.00    +0.000 A 
ATOM     22  C   UNL     1      48.686   6.708  17.842  0.00  0.00    +0.000 A 
ATOM     23  C   UNL     1      48.182   5.452  18.164  0.00  0.00    +0.000 A 
ATOM     24  C   UNL     1      47.888   4.592  17.122  0.00  0.00    +0.000 A 
ATOM     25 CL   UNL     1      47.259   3.022  17.419  0.00  0.00    +0.000 Cl
ATOM     26  N   UNL     1      48.050   4.885  15.819  0.00  0.00    +0.000 NA
ENDBRANCH  19  20
ENDBRANCH  18  19
ENDBRANCH   5  18
TORSDOF 5
ENDMDL
MODEL 5
REMARK VINA RESULT:    -7.524      6.055      8.636
REMARK INTER + INTRA:         -10.694
REMARK INTER:                  -9.769
REMARK INTRA:                  -0.925
REMARK UNBOUND:                -0.971
REMARK  Name = 
REMARK  5 active torsions:
REMARK  status: ('A' for Active; 'I' for Inactive)
REMARK    1  A    between atoms: C_4  and  C_5
REMARK    2  A    between atoms: C_9  and  C_10
REMARK    3  A    between atoms: C_10  and  O_11
REMARK    4  A    between atoms: O_11  and  C_12
REMARK    5  A    between atoms: C_21  and  C_22
REMARK                            x       y       z     vdW  Elec       q    Type
REMARK                         _______ _______ _______ _____ _____    ______ ____
ROOT
ATOM      1  C   UNL     1      45.124   6.808  11.488  0.00  0.00    +0.000 A 
ATOM      2  C   UNL     1      46.130   7.032  12.446  0.00  0.00    +0.000 A 
ATOM      3  C   UNL     1      46.342   8.297  13.003  0.00  0.00    +0.000 A 
ATOM      4  C   UNL     1      45.572   9.379  12.590  0.00  0.00    +0.000 A 
ATOM      5  C   UNL     1      44.585   9.205  11.615  0.00  0.00    +0.000 A 
ATOM      6  C   UNL     1      44.348   7.918  11.103  0.00  0.00    +0.000 A 
ENDROOT
BRANCH   1  10
ATOM      7  F   UNL     1      43.021   2.404  11.524  0.00  0.00    +0.000 F 
ATOM      8  C   UNL     1      43.842   3.274  10.922  0.00  0.00    +0.000 A 
ATOM      9  C   UNL     1      44.038   4.532  11.486  0.00  0.00    +0.000 A 
ATOM     10  C   UNL     1      44.903   5.467  10.892  0.00  0.00    +0.000 A 
ATOM     11  C   UNL     1      45.548   5.074   9.701  0.00  0.00    +0.000 A 
ATOM     12  C   UNL     1      45.340   3.810   9.115  0.00  0.00    +0.000 A 
ATOM     13  C   UNL     1      44.480   2.906   9.747  0.00  0.00    +0.000 A 
BRANCH  12  14
ATOM     14  C   UNL     1      46.026   3.425   7.830  0.00  0.00    +0.000 C 
ATOM     15  F   UNL     1      46.947   4.336   7.410  0.00  0.00    +0.000 F 
ATOM     16  F   UNL     1      46.690   2.241   7.930  0.00  0.00    +0.000 F 
ATOM     17  F   UNL     1      45.151   3.279   6.798  0.00  0.00    +0.000 F 
ENDBRANCH  12  14
ENDBRANCH   1  10
BRANCH   5  18
ATOM     18  C   UNL     1      43.815  10.389  11.086  0.00  0.00    +0.000 C 
BRANCH  18  19
ATOM     19  O   UNL     1      42.581   9.958  10.514  0.00  0.00    +0.000 OA
BRANCH  19  20
ATOM     20  C   UNL     1      41.497  10.516  11.164  0.00  0.00    +0.000 A 
ATOM     21  C   UNL     1      41.705  11.726  11.810  0.00  0.00    +0.000 A 
ATOM     22  C   UNL     1      40.628  12.325  12.458  0.00  0.00    +0.000 A 
ATOM     23  C   UNL     1      39.386  11.698  12.437  0.00  0.00    +0.000 A 
ATOM     24  C   UNL     1      39.288  10.491  11.769  0.00  0.00    +0.000 A 
ATOM     25 CL   UNL     1      37.797   9.644  11.685  0.00  0.00    +0.000 Cl
ATOM     26  N   UNL     1      40.306   9.883  11.134  0.00  0.00    +0.000 NA
ENDBRANCH  19  20
ENDBRANCH  18  19
ENDBRANCH   5  18
TORSDOF 5
ENDMDL
MODEL 6
REMARK VINA RESULT:    -7.366      1.846      3.194
REMARK INTER + INTRA:         -10.490
REMARK INTER:                  -9.543
REMARK INTRA:                  -0.946
REMARK UNBOUND:                -0.971
REMARK  Name = 
REMARK  5 active torsions:
REMARK  status: ('A' for Active; 'I' for Inactive)
REMARK    1  A    between atoms: C_4  and  C_5
REMARK    2  A    between atoms: C_9  and  C_10
REMARK    3  A    between atoms: C_10  and  O_11
REMARK    4  A    between atoms: O_11  and  C_12
REMARK    5  A    between atoms: C_21  and  C_22
REMARK                            x       y       z     vdW  Elec       q    Type
REMARK                         _______ _______ _______ _____ _____    ______ ____
ROOT
ATOM      1  C   UNL     1      47.589   5.688  14.442  0.00  0.00    +0.000 A 
ATOM      2  C   UNL     1      48.487   6.605  13.865  0.00  0.00    +0.000 A 
ATOM      3  C   UNL     1      48.222   7.215  12.635  0.00  0.00    +0.000 A 
ATOM      4  C   UNL     1      47.065   6.896  11.933  0.00  0.00    +0.000 A 
ATOM      5  C   UNL     1      46.164   5.964  12.455  0.00  0.00    +0.000 A 
ATOM      6  C   UNL     1      46.417   5.399  13.717  0.00  0.00    +0.000 A 
ENDROOT
BRANCH   1  10
ATOM      7  F   UNL     1      46.696   2.253  17.791  0.00  0.00    +0.000 F 
ATOM      8  C   UNL     1      47.418   3.313  17.405  0.00  0.00    +0.000 A 
ATOM      9  C   UNL     1      47.148   3.913  16.178  0.00  0.00    +0.000 A 
ATOM     10  C   UNL     1      47.872   5.037  15.744  0.00  0.00    +0.000 A 
ATOM     11  C   UNL     1      48.885   5.514  16.603  0.00  0.00    +0.000 A 
ATOM     12  C   UNL     1      49.175   4.900  17.837  0.00  0.00    +0.000 A 
ATOM     13  C   UNL     1      48.420   3.792  18.234  0.00  0.00    +0.000 A 
BRANCH  12  14
ATOM     14  C   UNL     1      50.276   5.419  18.724  0.00  0.00    +0.000 C 
ATOM     15  F   UNL     1      51.511   5.356  18.153  0.00  0.00    +0.000 F 
ATOM     16  F   UNL     1      50.092   6.722  19.075  0.00  0.00    +0.000 F 
ATOM     17  F   UNL     1      50.372   4.726  19.892  0.00  0.00    +0.000 F 
ENDBRANCH  12  14
ENDBRANCH   1  10
BRANCH   5  18
ATOM     18  C   UNL     1      44.959   5.534  11.656  0.00  0.00    +0.000 C 
BRANCH  18  19
ATOM     19  O   UNL     1      45.184   5.762  10.265  0.00  0.00    +0.000 OA
BRANCH  19  20
ATOM     20  C   UNL     1      45.278   4.575   9.563  0.00  0.00    +0.000 A 
ATOM     21  C   UNL     1      44.729   3.448  10.156  0.00  0.00    +0.000 A 
ATOM     22  C   UNL     1      44.789   2.240   9.467  0.00  0.00    +0.000 A 
ATOM     23  C   UNL     1      45.393   2.201   8.214  0.00  0.00    +0.000 A 
ATOM     24  C   UNL     1      45.914   3.381   7.715  0.00  0.00    +0.000 A 
ATOM     25 CL   UNL     1      46.675   3.433   6.177  0.00  0.00    +0.000 Cl
ATOM     26  N   UNL     1      45.875   4.564   8.353  0.00  0.00    +0.000 NA
ENDBRANCH  19  20
ENDBRANCH  18  19
ENDBRANCH   5  18
TORSDOF 5
ENDMDL
MODEL 7
REMARK VINA RESULT:    -7.181      5.024      7.867
REMARK INTER + INTRA:         -10.251
REMARK INTER:                  -9.307
REMARK INTRA:                  -0.944
REMARK UNBOUND:                -0.971
REMARK  Name = 
REMARK  5 active torsions:
REMARK  status: ('A' for Active; 'I' for Inactive)
REMARK    1  A    between atoms: C_4  and  C_5
REMARK    2  A    between atoms: C_9  and  C_10
REMARK    3  A    between atoms: C_10  and  O_11
REMARK    4  A    between atoms: O_11  and  C_12
REMARK    5  A    between atoms: C_21  and  C_22
REMARK                            x       y       z     vdW  Elec       q    Type
REMARK                         _______ _______ _______ _____ _____    ______ ____
ROOT
ATOM      1  C   UNL     1      47.152   6.835  12.522  0.00  0.00    +0.000 A 
ATOM      2  C   UNL     1      47.664   7.956  11.844  0.00  0.00    +0.000 A 
ATOM      3  C   UNL     1      48.778   8.655  12.320  0.00  0.00    +0.000 A 
ATOM      4  C   UNL     1      49.390   8.267  13.508  0.00  0.00    +0.000 A 
ATOM      5  C   UNL     1      48.890   7.178  14.229  0.00  0.00    +0.000 A 
ATOM      6  C   UNL     1      47.803   6.454  13.712  0.00  0.00    +0.000 A 
ENDROOT
BRANCH   1  10
ATOM      7  F   UNL     1      42.546   5.297  13.014  0.00  0.00    +0.000 F 
ATOM      8  C   UNL     1      43.665   5.341  12.278  0.00  0.00    +0.000 A 
ATOM      9  C   UNL     1      44.769   6.041  12.756  0.00  0.00    +0.000 A 
ATOM     10  C   UNL     1      45.966   6.097  12.021  0.00  0.00    +0.000 A 
ATOM     11  C   UNL     1      45.987   5.424  10.781  0.00  0.00    +0.000 A 
ATOM     12  C   UNL     1      44.866   4.730  10.284  0.00  0.00    +0.000 A 
ATOM     13  C   UNL     1      43.700   4.689  11.055  0.00  0.00    +0.000 A 
BRANCH  12  14
ATOM     14  C   UNL     1      44.911   4.037   8.947  0.00  0.00    +0.000 C 
ATOM     15  F   UNL     1      45.989   4.382   8.190  0.00  0.00    +0.000 F 
ATOM     16  F   UNL     1      44.954   2.681   9.064  0.00  0.00    +0.000 F 
ATOM     17  F   UNL     1      43.818   4.312   8.183  0.00  0.00    +0.000 F 
ENDBRANCH  12  14
ENDBRANCH   1  10
BRANCH   5  18
ATOM     18  C   UNL     1      49.481   6.813  15.569  0.00  0.00    +0.000 C 
BRANCH  18  19
ATOM     19  O   UNL     1      48.446   6.437  16.477  0.00  0.00    +0.000 OA
BRANCH  19  20
ATOM     20  C   UNL     1      48.574   5.121  16.878  0.00  0.00    +0.000 A 
ATOM     21  C   UNL     1      47.403   4.400  17.054  0.00  0.00    +0.000 A 
ATOM     22  C   UNL     1      47.498   3.065  17.438  0.00  0.00    +0.000 A 
ATOM     23  C   UNL     1      48.754   2.500  17.632  0.00  0.00    +0.000 A 
ATOM     24  C   UNL     1      49.859   3.308  17.434  0.00  0.00    +0.000 A 
ATOM     25 CL   UNL     1      51.451   2.701  17.646  0.00  0.00    +0.000 Cl
ATOM     26  N   UNL     1      49.805   4.600  17.065  0.00  0.00    +0.000 NA
ENDBRANCH  19  20
ENDBRANCH  18  19
ENDBRANCH   5  18
TORSDOF 5
ENDMDL
MODEL 8
REMARK VINA RESULT:    -7.174      3.911      5.115
REMARK INTER + INTRA:         -10.242
REMARK INTER:                  -9.324
REMARK INTRA:                  -0.918
REMARK UNBOUND:                -0.971
REMARK  Name = 
REMARK  5 active torsions:
REMARK  status: ('A' for Active; 'I' for Inactive)
REMARK    1  A    between atoms: C_4  and  C_5
REMARK    2  A    between atoms: C_9  and  C_10
REMARK    3  A    between atoms: C_10  and  O_11
REMARK    4  A    between atoms: O_11  and  C_12
REMARK    5  A    between atoms: C_21  and  C_22
REMARK                            x       y       z     vdW  Elec       q    Type
REMARK                         _______ _______ _______ _____ _____    ______ ____
ROOT
ATOM      1  C   UNL     1      45.950   6.557  12.006  0.00  0.00    +0.000 A 
ATOM      2  C   UNL     1      44.843   6.748  12.853  0.00  0.00    +0.000 A 
ATOM      3  C   UNL     1      43.808   5.811  12.928  0.00  0.00    +0.000 A 
ATOM      4  C   UNL     1      43.839   4.672  12.132  0.00  0.00    +0.000 A 
ATOM      5  C   UNL     1      44.905   4.461  11.252  0.00  0.00    +0.000 A 
ATOM      6  C   UNL     1      45.964   5.385  11.225  0.00  0.00    +0.000 A 
ENDROOT
BRANCH   1  10
ATOM      7  F   UNL     1      50.686   7.693  11.684  0.00  0.00    +0.000 F 
ATOM      8  C   UNL     1      49.413   8.105  11.756  0.00  0.00    +0.000 A 
ATOM      9  C   UNL     1      48.393   7.161  11.829  0.00  0.00    +0.000 A 
ATOM     10  C   UNL     1      47.046   7.554  11.922  0.00  0.00    +0.000 A 
ATOM     11  C   UNL     1      46.784   8.940  11.925  0.00  0.00    +0.000 A 
ATOM     12  C   UNL     1      47.811   9.900  11.832  0.00  0.00    +0.000 A 
ATOM     13  C   UNL     1      49.137   9.464  11.755  0.00  0.00    +0.000 A 
BRANCH  12  14
ATOM     14  C   UNL     1      47.499  11.374  11.818  0.00  0.00    +0.000 C 
ATOM     15  F   UNL     1      47.623  11.944  10.587  0.00  0.00    +0.000 F 
ATOM     16  F   UNL     1      46.230  11.642  12.228  0.00  0.00    +0.000 F 
ATOM     17  F   UNL     1      48.318  12.085  12.640  0.00  0.00    +0.000 F 
ENDBRANCH  12  14
ENDBRANCH   1  10
BRANCH   5  18
ATOM     18  C   UNL     1      44.898   3.283  10.310  0.00  0.00    +0.000 C 
BRANCH  18  19
ATOM     19  O   UNL     1      44.907   3.735   8.956  0.00  0.00    +0.000 OA
BRANCH  19  20
ATOM     20  C   UNL     1      45.800   3.016   8.185  0.00  0.00    +0.000 A 
ATOM     21  C   UNL     1      46.623   3.740   7.336  0.00  0.00    +0.000 A 
ATOM     22  C   UNL     1      47.549   3.047   6.560  0.00  0.00    +0.000 A 
ATOM     23  C   UNL     1      47.619   1.661   6.660  0.00  0.00    +0.000 A 
ATOM     24  C   UNL     1      46.750   1.036   7.535  0.00  0.00    +0.000 A 
ATOM     25 CL   UNL     1      46.764  -0.670   7.730  0.00  0.00    +0.000 Cl
ATOM     26  N   UNL     1      45.843   1.672   8.298  0.00  0.00    +0.000 NA
ENDBRANCH  19  20
ENDBRANCH  18  19
ENDBRANCH   5  18
TORSDOF 5
ENDMDL
MODEL 9
REMARK VINA RESULT:    -7.166      1.667      2.382
REMARK INTER + INTRA:         -10.232
REMARK INTER:                  -9.336
REMARK INTRA:                  -0.896
REMARK UNBOUND:                -0.971
REMARK  Name = 
REMARK  5 active torsions:
REMARK  status: ('A' for Active; 'I' for Inactive)
REMARK    1  A    between atoms: C_4  and  C_5
REMARK    2  A    between atoms: C_9  and  C_10
REMARK    3  A    between atoms: C_10  and  O_11
REMARK    4  A    between atoms: O_11  and  C_12
REMARK    5  A    between atoms: C_21  and  C_22
REMARK                            x       y       z     vdW  Elec       q    Type
REMARK                         _______ _______ _______ _____ _____    ______ ____
ROOT
ATOM      1  C   UNL     1      48.026   6.422  14.111  0.00  0.00    +0.000 A 
ATOM      2  C   UNL     1      48.831   7.198  13.257  0.00  0.00    +0.000 A 
ATOM      3  C   UNL     1      48.451   7.470  11.939  0.00  0.00    +0.000 A 
ATOM      4  C   UNL     1      47.269   6.944  11.430  0.00  0.00    +0.000 A 
ATOM      5  C   UNL     1      46.457   6.139  12.236  0.00  0.00    +0.000 A 
ATOM      6  C   UNL     1      46.825   5.918  13.574  0.00  0.00    +0.000 A 
ENDROOT
BRANCH   1  10
ATOM      7  F   UNL     1      50.028   7.758  18.356  0.00  0.00    +0.000 F 
ATOM      8  C   UNL     1      49.429   6.811  17.622  0.00  0.00    +0.000 A 
ATOM      9  C   UNL     1      49.048   7.100  16.315  0.00  0.00    +0.000 A 
ATOM     10  C   UNL     1      48.431   6.128  15.508  0.00  0.00    +0.000 A 
ATOM     11  C   UNL     1      48.209   4.862  16.089  0.00  0.00    +0.000 A 
ATOM     12  C   UNL     1      48.576   4.570  17.417  0.00  0.00    +0.000 A 
ATOM     13  C   UNL     1      49.199   5.563  18.179  0.00  0.00    +0.000 A 
BRANCH  12  14
ATOM     14  C   UNL     1      48.308   3.215  18.018  0.00  0.00    +0.000 C 
ATOM     15  F   UNL     1      49.185   2.256  17.612  0.00  0.00    +0.000 F 
ATOM     16  F   UNL     1      48.371   3.227  19.378  0.00  0.00    +0.000 F 
ATOM     17  F   UNL     1      47.070   2.743  17.704  0.00  0.00    +0.000 F 
ENDBRANCH  12  14
ENDBRANCH   1  10
BRANCH   5  18
ATOM     18  C   UNL     1      45.227   5.478  11.665  0.00  0.00    +0.000 C 
BRANCH  18  19
ATOM     19  O   UNL     1      45.152   5.710  10.259  0.00  0.00    +0.000 OA
BRANCH  19  20
ATOM     20  C   UNL     1      45.280   4.535   9.542  0.00  0.00    +0.000 A 
ATOM     21  C   UNL     1      44.768   3.385  10.123  0.00  0.00    +0.000 A 
ATOM     22  C   UNL     1      44.862   2.188   9.419  0.00  0.00    +0.000 A 
ATOM     23  C   UNL     1      45.462   2.182   8.163  0.00  0.00    +0.000 A 
ATOM     24  C   UNL     1      45.945   3.384   7.677  0.00  0.00    +0.000 A 
ATOM     25 CL   UNL     1      46.698   3.478   6.138  0.00  0.00    +0.000 Cl
ATOM     26  N   UNL     1      45.872   4.558   8.330  0.00  0.00    +0.000 NA
ENDBRANCH  19  20
ENDBRANCH  18  19
ENDBRANCH   5  18
TORSDOF 5
ENDMDL
