MODEL 1
REMARK VINA RESULT:    -7.169      0.000      0.000
REMARK INTER + INTRA:         -10.843
REMARK INTER:                  -9.684
REMARK INTRA:                  -1.160
REMARK UNBOUND:                -1.160
REMARK  Name = 
REMARK  6 active torsions:
REMARK  status: ('A' for Active; 'I' for Inactive)
REMARK    1  A    between atoms: C_2  and  C_3
REMARK    2  A    between atoms: C_5  and  C_6
REMARK    3  A    between atoms: C_9  and  O_10
REMARK    4  A    between atoms: O_10  and  C_11
REMARK    5  A    between atoms: C_11  and  C_12
REMARK    6  A    between atoms: C_16  and  C_17
REMARK                            x       y       z     vdW  Elec       q    Type
REMARK                         _______ _______ _______ _____ _____    ______ ____
ROOT
ATOM      1  C   UNL     1      46.350   7.284  12.432  0.00  0.00    +0.000 C 
ATOM      2  C   UNL     1      46.425   8.713  11.881  0.00  0.00    +0.000 C 
ATOM      3  C   UNL     1      45.724   8.456  13.169  0.00  0.00    +0.000 C 
ENDROOT
BRANCH   1   4
ATOM      4  C   UNL     1      45.393   6.300  11.765  0.00  0.00    +0.000 A 
ATOM      5  C   UNL     1      44.006   6.398  11.949  0.00  0.00    +0.000 A 
ATOM      6  C   UNL     1      43.120   5.609  11.213  0.00  0.00    +0.000 A 
ATOM      7  C   UNL     1      43.610   4.712  10.262  0.00  0.00    +0.000 A 
ATOM      8  C   UNL     1      44.988   4.554  10.055  0.00  0.00    +0.000 A 
ATOM      9  C   UNL     1      45.854   5.332  10.849  0.00  0.00    +0.000 A 
BRANCH   8  10
ATOM     10  C   UNL     1      45.504   3.689   8.974  0.00  0.00    +0.000 A 
ATOM     11  C   UNL     1      45.525   2.296   9.058  0.00  0.00    +0.000 A 
ATOM     12  C   UNL     1      46.127   1.559   8.040  0.00  0.00    +0.000 A 
ATOM     13  C   UNL     1      46.690   2.225   6.960  0.00  0.00    +0.000 A 
ATOM     14  C   UNL     1      46.613   3.605   6.936  0.00  0.00    +0.000 A 
ATOM     15  N   UNL     1      46.033   4.342   7.907  0.00  0.00    +0.000 NA
ENDBRANCH   8  10
ENDBRANCH   1   4
BRANCH   1  16
ATOM     16  O   UNL     1      47.692   6.824  12.708  0.00  0.00    +0.000 OA
BRANCH  16  21
ATOM     17  C   UNL     1      47.810   5.104  15.985  0.00  0.00    +0.000 A 
ATOM     18  C   UNL     1      48.706   5.952  16.645  0.00  0.00    +0.000 A 
ATOM     19  C   UNL     1      49.294   7.017  15.957  0.00  0.00    +0.000 A 
ATOM     20  C   UNL     1      48.967   7.234  14.614  0.00  0.00    +0.000 A 
ATOM     21  C   UNL     1      48.063   6.394  13.952  0.00  0.00    +0.000 A 
ATOM     22  C   UNL     1      47.494   5.324  14.635  0.00  0.00    +0.000 A 
BRANCH  17  24
ATOM     23  N   UNL     1      46.672   3.173  17.292  0.00  0.00    +0.000 NA
ATOM     24  C   UNL     1      47.177   4.033  16.703  0.00  0.00    +0.000 C 
ENDBRANCH  17  24
BRANCH  19  25
ATOM     25  C   UNL     1      50.194   7.905  16.633  0.00  0.00    +0.000 C 
ATOM     26  N   UNL     1      50.921   8.620  17.187  0.00  0.00    +0.000 NA
ENDBRANCH  19  25
ENDBRANCH  16  21
ENDBRANCH   1  16
TORSDOF 6
ENDMDL
MODEL 2
REMARK VINA RESULT:    -7.033      0.278      2.539
REMARK INTER + INTRA:         -10.659
REMARK INTER:                  -9.604
REMARK INTRA:                  -1.055
REMARK UNBOUND:                -1.160
REMARK  Name = 
REMARK  6 active torsions:
REMARK  status: ('A' for Active; 'I' for Inactive)
REMARK    1  A    between atoms: C_2  and  C_3
REMARK    2  A    between atoms: C_5  and  C_6
REMARK    3  A    between atoms: C_9  and  O_10
REMARK    4  A    between atoms: O_10  and  C_11
REMARK    5  A    between atoms: C_11  and  C_12
REMARK    6  A    between atoms: C_16  and  C_17
REMARK                            x       y       z     vdW  Elec       q    Type
REMARK                         _______ _______ _______ _____ _____    ______ ____
ROOT
ATOM      1  C   UNL     1      46.372   7.237  12.421  0.00  0.00    +0.000 C 
ATOM      2  C   UNL     1      46.506   8.649  11.837  0.00  0.00    +0.000 C 
ATOM      3  C   UNL     1      45.757   8.446  13.108  0.00  0.00    +0.000 C 
ENDROOT
BRANCH   1   4
ATOM      4  C   UNL     1      45.407   6.265  11.748  0.00  0.00    +0.000 A 
ATOM      5  C   UNL     1      44.021   6.376  11.929  0.00  0.00    +0.000 A 
ATOM      6  C   UNL     1      43.129   5.596  11.188  0.00  0.00    +0.000 A 
ATOM      7  C   UNL     1      43.613   4.698  10.236  0.00  0.00    +0.000 A 
ATOM      8  C   UNL     1      44.990   4.528  10.032  0.00  0.00    +0.000 A 
ATOM      9  C   UNL     1      45.861   5.295  10.831  0.00  0.00    +0.000 A 
BRANCH   8  10
ATOM     10  C   UNL     1      45.501   3.661   8.951  0.00  0.00    +0.000 A 
ATOM     11  C   UNL     1      45.487   2.267   9.020  0.00  0.00    +0.000 A 
ATOM     12  C   UNL     1      46.085   1.526   8.003  0.00  0.00    +0.000 A 
ATOM     13  C   UNL     1      46.681   2.188   6.939  0.00  0.00    +0.000 A 
ATOM     14  C   UNL     1      46.638   3.570   6.928  0.00  0.00    +0.000 A 
ATOM     15  N   UNL     1      46.062   4.311   7.898  0.00  0.00    +0.000 NA
ENDBRANCH   8  10
ENDBRANCH   1   4
BRANCH   1  16
ATOM     16  O   UNL     1      47.690   6.746  12.751  0.00  0.00    +0.000 OA
BRANCH  16  21
ATOM     17  C   UNL     1      49.606   6.820  15.919  0.00  0.00    +0.000 A 
ATOM     18  C   UNL     1      48.964   5.771  16.588  0.00  0.00    +0.000 A 
ATOM     19  C   UNL     1      47.873   5.129  15.994  0.00  0.00    +0.000 A 
ATOM     20  C   UNL     1      47.443   5.534  14.725  0.00  0.00    +0.000 A 
ATOM     21  C   UNL     1      48.089   6.576  14.049  0.00  0.00    +0.000 A 
ATOM     22  C   UNL     1      49.162   7.225  14.651  0.00  0.00    +0.000 A 
BRANCH  17  24
ATOM     23  N   UNL     1      51.675   7.969  16.982  0.00  0.00    +0.000 NA
ATOM     24  C   UNL     1      50.750   7.453  16.513  0.00  0.00    +0.000 C 
ENDBRANCH  17  24
BRANCH  19  25
ATOM     25  C   UNL     1      47.226   4.038  16.661  0.00  0.00    +0.000 C 
ATOM     26  N   UNL     1      46.696   3.158  17.199  0.00  0.00    +0.000 NA
ENDBRANCH  19  25
ENDBRANCH  16  21
ENDBRANCH   1  16
TORSDOF 6
ENDMDL
MODEL 3
REMARK VINA RESULT:    -6.668      3.092      5.279
REMARK INTER + INTRA:         -10.166
REMARK INTER:                  -9.130
REMARK INTRA:                  -1.037
REMARK UNBOUND:                -1.160
REMARK  Name = 
REMARK  6 active torsions:
REMARK  status: ('A' for Active; 'I' for Inactive)
REMARK    1  A    between atoms: C_2  and  C_3
REMARK    2  A    between atoms: C_5  and  C_6
REMARK    3  A    between atoms: C_9  and  O_10
REMARK    4  A    between atoms: O_10  and  C_11
REMARK    5  A    between atoms: C_11  and  C_12
REMARK    6  A    between atoms: C_16  and  C_17
REMARK                            x       y       z     vdW  Elec       q    Type
REMARK                         _______ _______ _______ _____ _____    ______ ____
ROOT
ATOM      1  C   UNL     1      46.272   7.403  12.450  0.00  0.00    +0.000 C 
ATOM      2  C   UNL     1      47.321   6.914  13.456  0.00  0.00    +0.000 C 
ATOM      3  C   UNL     1      47.744   7.308  12.084  0.00  0.00    +0.000 C 
ENDROOT
BRANCH   1   4
ATOM      4  C   UNL     1      45.339   6.373  11.821  0.00  0.00    +0.000 A 
ATOM      5  C   UNL     1      43.956   6.408  12.053  0.00  0.00    +0.000 A 
ATOM      6  C   UNL     1      43.083   5.574  11.351  0.00  0.00    +0.000 A 
ATOM      7  C   UNL     1      43.580   4.696  10.387  0.00  0.00    +0.000 A 
ATOM      8  C   UNL     1      44.956   4.600  10.133  0.00  0.00    +0.000 A 
ATOM      9  C   UNL     1      45.812   5.421  10.893  0.00  0.00    +0.000 A 
BRANCH   8  10
ATOM     10  C   UNL     1      45.473   3.754   9.039  0.00  0.00    +0.000 A 
ATOM     11  C   UNL     1      45.478   2.359   9.091  0.00  0.00    +0.000 A 
ATOM     12  C   UNL     1      46.082   1.638   8.063  0.00  0.00    +0.000 A 
ATOM     13  C   UNL     1      46.664   2.322   7.004  0.00  0.00    +0.000 A 
ATOM     14  C   UNL     1      46.604   3.703   7.011  0.00  0.00    +0.000 A 
ATOM     15  N   UNL     1      46.021   4.424   7.992  0.00  0.00    +0.000 NA
ENDBRANCH   8  10
ENDBRANCH   1   4
BRANCH   1  16
ATOM     16  O   UNL     1      45.678   8.619  12.956  0.00  0.00    +0.000 OA
BRANCH  16  21
ATOM     17  C   UNL     1      44.246  10.990  10.497  0.00  0.00    +0.000 A 
ATOM     18  C   UNL     1      45.387  11.761  10.247  0.00  0.00    +0.000 A 
ATOM     19  C   UNL     1      46.566  11.513  10.956  0.00  0.00    +0.000 A 
ATOM     20  C   UNL     1      46.597  10.482  11.902  0.00  0.00    +0.000 A 
ATOM     21  C   UNL     1      45.461   9.702  12.149  0.00  0.00    +0.000 A 
ATOM     22  C   UNL     1      44.284   9.963  11.454  0.00  0.00    +0.000 A 
BRANCH  17  24
ATOM     23  N   UNL     1      42.084  11.415   9.128  0.00  0.00    +0.000 NA
ATOM     24  C   UNL     1      43.047  11.219   9.741  0.00  0.00    +0.000 C 
ENDBRANCH  17  24
BRANCH  19  25
ATOM     25  C   UNL     1      47.746  12.282  10.688  0.00  0.00    +0.000 C 
ATOM     26  N   UNL     1      48.704  12.901  10.477  0.00  0.00    +0.000 NA
ENDBRANCH  19  25
ENDBRANCH  16  21
ENDBRANCH   1  16
TORSDOF 6
ENDMDL
MODEL 4
REMARK VINA RESULT:    -6.628      1.438      3.345
REMARK INTER + INTRA:         -10.112
REMARK INTER:                  -8.850
REMARK INTRA:                  -1.262
REMARK UNBOUND:                -1.160
REMARK  Name = 
REMARK  6 active torsions:
REMARK  status: ('A' for Active; 'I' for Inactive)
REMARK    1  A    between atoms: C_2  and  C_3
REMARK    2  A    between atoms: C_5  and  C_6
REMARK    3  A    between atoms: C_9  and  O_10
REMARK    4  A    between atoms: O_10  and  C_11
REMARK    5  A    between atoms: C_11  and  C_12
REMARK    6  A    between atoms: C_16  and  C_17
REMARK                            x       y       z     vdW  Elec       q    Type
REMARK                         _______ _______ _______ _____ _____    ______ ____
ROOT
ATOM      1  C   UNL     1      48.705   7.628  13.004  0.00  0.00    +0.000 C 
ATOM      2  C   UNL     1      49.772   7.950  11.952  0.00  0.00    +0.000 C 
ATOM      3  C   UNL     1      49.307   9.017  12.880  0.00  0.00    +0.000 C 
ENDROOT
BRANCH   1   4
ATOM      4  C   UNL     1      47.261   7.460  12.542  0.00  0.00    +0.000 A 
ATOM      5  C   UNL     1      46.334   8.506  12.660  0.00  0.00    +0.000 A 
ATOM      6  C   UNL     1      45.062   8.415  12.091  0.00  0.00    +0.000 A 
ATOM      7  C   UNL     1      44.698   7.274  11.374  0.00  0.00    +0.000 A 
ATOM      8  C   UNL     1      45.576   6.187  11.247  0.00  0.00    +0.000 A 
ATOM      9  C   UNL     1      46.832   6.293  11.875  0.00  0.00    +0.000 A 
BRANCH   8  10
ATOM     10  C   UNL     1      45.236   5.027  10.399  0.00  0.00    +0.000 A 
ATOM     11  C   UNL     1      44.650   3.863  10.898  0.00  0.00    +0.000 A 
ATOM     12  C   UNL     1      44.460   2.774  10.049  0.00  0.00    +0.000 A 
ATOM     13  C   UNL     1      44.854   2.870   8.722  0.00  0.00    +0.000 A 
ATOM     14  C   UNL     1      45.409   4.062   8.293  0.00  0.00    +0.000 A 
ATOM     15  N   UNL     1      45.600   5.132   9.094  0.00  0.00    +0.000 NA
ENDBRANCH   8  10
ENDBRANCH   1   4
BRANCH   1  16
ATOM     16  O   UNL     1      49.234   6.633  13.910  0.00  0.00    +0.000 OA
BRANCH  16  21
ATOM     17  C   UNL     1      48.885   7.184  17.555  0.00  0.00    +0.000 A 
ATOM     18  C   UNL     1      48.222   5.999  17.894  0.00  0.00    +0.000 A 
ATOM     19  C   UNL     1      47.850   5.097  16.891  0.00  0.00    +0.000 A 
ATOM     20  C   UNL     1      48.160   5.384  15.557  0.00  0.00    +0.000 A 
ATOM     21  C   UNL     1      48.832   6.564  15.216  0.00  0.00    +0.000 A 
ATOM     22  C   UNL     1      49.184   7.467  16.214  0.00  0.00    +0.000 A 
BRANCH  17  24
ATOM     23  N   UNL     1      49.644   8.813  19.426  0.00  0.00    +0.000 NA
ATOM     24  C   UNL     1      49.301   8.090  18.589  0.00  0.00    +0.000 C 
ENDBRANCH  17  24
BRANCH  19  25
ATOM     25  C   UNL     1      47.193   3.870  17.231  0.00  0.00    +0.000 C 
ATOM     26  N   UNL     1      46.663   2.877  17.514  0.00  0.00    +0.000 NA
ENDBRANCH  19  25
ENDBRANCH  16  21
ENDBRANCH   1  16
TORSDOF 6
ENDMDL
MODEL 5
REMARK VINA RESULT:    -6.511      2.063      3.872
REMARK INTER + INTRA:          -9.955
REMARK INTER:                  -9.189
REMARK INTRA:                  -0.766
REMARK UNBOUND:                -1.160
REMARK  Name = 
REMARK  6 active torsions:
REMARK  status: ('A' for Active; 'I' for Inactive)
REMARK    1  A    between atoms: C_2  and  C_3
REMARK    2  A    between atoms: C_5  and  C_6
REMARK    3  A    between atoms: C_9  and  O_10
REMARK    4  A    between atoms: O_10  and  C_11
REMARK    5  A    between atoms: C_11  and  C_12
REMARK    6  A    between atoms: C_16  and  C_17
REMARK                            x       y       z     vdW  Elec       q    Type
REMARK                         _______ _______ _______ _____ _____    ______ ____
ROOT
ATOM      1  C   UNL     1      43.787   5.453  11.681  0.00  0.00    +0.000 C 
ATOM      2  C   UNL     1      42.397   6.072  11.500  0.00  0.00    +0.000 C 
ATOM      3  C   UNL     1      42.794   5.531  12.829  0.00  0.00    +0.000 C 
ENDROOT
BRANCH   1   4
ATOM      4  C   UNL     1      44.046   4.071  11.089  0.00  0.00    +0.000 A 
ATOM      5  C   UNL     1      43.294   2.957  11.490  0.00  0.00    +0.000 A 
ATOM      6  C   UNL     1      43.413   1.729  10.835  0.00  0.00    +0.000 A 
ATOM      7  C   UNL     1      44.282   1.598   9.751  0.00  0.00    +0.000 A 
ATOM      8  C   UNL     1      45.078   2.671   9.325  0.00  0.00    +0.000 A 
ATOM      9  C   UNL     1      44.967   3.881  10.038  0.00  0.00    +0.000 A 
BRANCH   8  10
ATOM     10  C   UNL     1      45.914   2.567   8.112  0.00  0.00    +0.000 A 
ATOM     11  C   UNL     1      45.964   3.561   7.133  0.00  0.00    +0.000 A 
ATOM     12  C   UNL     1      46.694   3.338   5.968  0.00  0.00    +0.000 A 
ATOM     13  C   UNL     1      47.362   2.132   5.805  0.00  0.00    +0.000 A 
ATOM     14  C   UNL     1      47.284   1.203   6.825  0.00  0.00    +0.000 A 
ATOM     15  N   UNL     1      46.586   1.396   7.965  0.00  0.00    +0.000 NA
ENDBRANCH   8  10
ENDBRANCH   1   4
BRANCH   1  16
ATOM     16  O   UNL     1      44.783   6.474  11.448  0.00  0.00    +0.000 OA
BRANCH  16  21
ATOM     17  C   UNL     1      48.294   7.028  12.484  0.00  0.00    +0.000 A 
ATOM     18  C   UNL     1      48.352   6.127  13.553  0.00  0.00    +0.000 A 
ATOM     19  C   UNL     1      47.205   5.425  13.936  0.00  0.00    +0.000 A 
ATOM     20  C   UNL     1      46.011   5.621  13.234  0.00  0.00    +0.000 A 
ATOM     21  C   UNL     1      45.951   6.514  12.158  0.00  0.00    +0.000 A 
ATOM     22  C   UNL     1      47.090   7.225  11.791  0.00  0.00    +0.000 A 
BRANCH  17  24
ATOM     23  N   UNL     1      50.443   8.277  11.741  0.00  0.00    +0.000 NA
ATOM     24  C   UNL     1      49.482   7.719  12.066  0.00  0.00    +0.000 C 
ENDBRANCH  17  24
BRANCH  19  25
ATOM     25  C   UNL     1      47.262   4.482  15.014  0.00  0.00    +0.000 C 
ATOM     26  N   UNL     1      47.315   3.716  15.884  0.00  0.00    +0.000 NA
ENDBRANCH  19  25
ENDBRANCH  16  21
ENDBRANCH   1  16
TORSDOF 6
ENDMDL
MODEL 6
REMARK VINA RESULT:    -6.502      1.961      3.156
REMARK INTER + INTRA:          -9.943
REMARK INTER:                  -8.905
REMARK INTRA:                  -1.037
REMARK UNBOUND:                -1.160
REMARK  Name = 
REMARK  6 active torsions:
REMARK  status: ('A' for Active; 'I' for Inactive)
REMARK    1  A    between atoms: C_2  and  C_3
REMARK    2  A    between atoms: C_5  and  C_6
REMARK    3  A    between atoms: C_9  and  O_10
REMARK    4  A    between atoms: O_10  and  C_11
REMARK    5  A    between atoms: C_11  and  C_12
REMARK    6  A    between atoms: C_16  and  C_17
REMARK                            x       y       z     vdW  Elec       q    Type
REMARK                         _______ _______ _______ _____ _____    ______ ____
ROOT
ATOM      1  C   UNL     1      43.944   5.456  11.661  0.00  0.00    +0.000 C 
ATOM      2  C   UNL     1      42.576   6.116  11.447  0.00  0.00    +0.000 C 
ATOM      3  C   UNL     1      42.903   5.509  12.767  0.00  0.00    +0.000 C 
ENDROOT
BRANCH   1   4
ATOM      4  C   UNL     1      44.197   4.094  11.020  0.00  0.00    +0.000 A 
ATOM      5  C   UNL     1      43.433   2.972  11.372  0.00  0.00    +0.000 A 
ATOM      6  C   UNL     1      43.549   1.769  10.673  0.00  0.00    +0.000 A 
ATOM      7  C   UNL     1      44.426   1.671   9.592  0.00  0.00    +0.000 A 
ATOM      8  C   UNL     1      45.234   2.754   9.213  0.00  0.00    +0.000 A 
ATOM      9  C   UNL     1      45.126   3.937   9.970  0.00  0.00    +0.000 A 
BRANCH   8  10
ATOM     10  C   UNL     1      46.080   2.688   8.004  0.00  0.00    +0.000 A 
ATOM     11  C   UNL     1      46.141   3.715   7.061  0.00  0.00    +0.000 A 
ATOM     12  C   UNL     1      46.881   3.529   5.894  0.00  0.00    +0.000 A 
ATOM     13  C   UNL     1      47.546   2.327   5.696  0.00  0.00    +0.000 A 
ATOM     14  C   UNL     1      47.455   1.363   6.683  0.00  0.00    +0.000 A 
ATOM     15  N   UNL     1      46.749   1.520   7.823  0.00  0.00    +0.000 NA
ENDBRANCH   8  10
ENDBRANCH   1   4
BRANCH   1  16
ATOM     16  O   UNL     1      44.971   6.462  11.516  0.00  0.00    +0.000 OA
BRANCH  16  21
ATOM     17  C   UNL     1      47.610   5.777  14.021  0.00  0.00    +0.000 A 
ATOM     18  C   UNL     1      48.606   6.629  13.530  0.00  0.00    +0.000 A 
ATOM     19  C   UNL     1      48.391   7.342  12.346  0.00  0.00    +0.000 A 
ATOM     20  C   UNL     1      47.173   7.206  11.671  0.00  0.00    +0.000 A 
ATOM     21  C   UNL     1      46.171   6.362  12.165  0.00  0.00    +0.000 A 
ATOM     22  C   UNL     1      46.395   5.640  13.333  0.00  0.00    +0.000 A 
BRANCH  17  24
ATOM     23  N   UNL     1      47.974   4.502  16.251  0.00  0.00    +0.000 NA
ATOM     24  C   UNL     1      47.816   5.075  15.257  0.00  0.00    +0.000 C 
ENDBRANCH  17  24
BRANCH  19  25
ATOM     25  C   UNL     1      49.395   8.237  11.850  0.00  0.00    +0.000 C 
ATOM     26  N   UNL     1      50.209   8.963  11.455  0.00  0.00    +0.000 NA
ENDBRANCH  19  25
ENDBRANCH  16  21
ENDBRANCH   1  16
TORSDOF 6
ENDMDL
MODEL 7
REMARK VINA RESULT:    -6.030      1.965      7.258
REMARK INTER + INTRA:          -9.304
REMARK INTER:                  -8.219
REMARK INTRA:                  -1.086
REMARK UNBOUND:                -1.160
REMARK  Name = 
REMARK  6 active torsions:
REMARK  status: ('A' for Active; 'I' for Inactive)
REMARK    1  A    between atoms: C_2  and  C_3
REMARK    2  A    between atoms: C_5  and  C_6
REMARK    3  A    between atoms: C_9  and  O_10
REMARK    4  A    between atoms: O_10  and  C_11
REMARK    5  A    between atoms: C_11  and  C_12
REMARK    6  A    between atoms: C_16  and  C_17
REMARK                            x       y       z     vdW  Elec       q    Type
REMARK                         _______ _______ _______ _____ _____    ______ ____
ROOT
ATOM      1  C   UNL     1      48.135   8.029  12.414  0.00  0.00    +0.000 C 
ATOM      2  C   UNL     1      48.832   9.152  11.639  0.00  0.00    +0.000 C 
ATOM      3  C   UNL     1      49.300   7.748  11.480  0.00  0.00    +0.000 C 
ENDROOT
BRANCH   1   4
ATOM      4  C   UNL     1      48.408   7.905  13.910  0.00  0.00    +0.000 A 
ATOM      5  C   UNL     1      48.387   9.030  14.748  0.00  0.00    +0.000 A 
ATOM      6  C   UNL     1      48.471   8.902  16.136  0.00  0.00    +0.000 A 
ATOM      7  C   UNL     1      48.564   7.635  16.715  0.00  0.00    +0.000 A 
ATOM      8  C   UNL     1      48.616   6.478  15.924  0.00  0.00    +0.000 A 
ATOM      9  C   UNL     1      48.576   6.648  14.526  0.00  0.00    +0.000 A 
BRANCH   8  10
ATOM     10  C   UNL     1      48.601   5.134  16.536  0.00  0.00    +0.000 A 
ATOM     11  C   UNL     1      47.434   4.389  16.713  0.00  0.00    +0.000 A 
ATOM     12  C   UNL     1      47.493   3.176  17.397  0.00  0.00    +0.000 A 
ATOM     13  C   UNL     1      48.714   2.730  17.885  0.00  0.00    +0.000 A 
ATOM     14  C   UNL     1      49.831   3.511  17.654  0.00  0.00    +0.000 A 
ATOM     15  N   UNL     1      49.801   4.688  16.992  0.00  0.00    +0.000 NA
ENDBRANCH   8  10
ENDBRANCH   1   4
BRANCH   1  16
ATOM     16  O   UNL     1      46.759   7.952  11.980  0.00  0.00    +0.000 OA
BRANCH  16  21
ATOM     17  C   UNL     1      45.490   5.084  10.011  0.00  0.00    +0.000 A 
ATOM     18  C   UNL     1      44.610   4.542  10.955  0.00  0.00    +0.000 A 
ATOM     19  C   UNL     1      44.526   5.104  12.233  0.00  0.00    +0.000 A 
ATOM     20  C   UNL     1      45.314   6.215  12.550  0.00  0.00    +0.000 A 
ATOM     21  C   UNL     1      46.189   6.766  11.606  0.00  0.00    +0.000 A 
ATOM     22  C   UNL     1      46.283   6.193  10.341  0.00  0.00    +0.000 A 
BRANCH  17  24
ATOM     23  N   UNL     1      45.585   4.077   7.622  0.00  0.00    +0.000 NA
ATOM     24  C   UNL     1      45.547   4.530   8.687  0.00  0.00    +0.000 C 
ENDBRANCH  17  24
BRANCH  19  25
ATOM     25  C   UNL     1      43.609   4.571  13.197  0.00  0.00    +0.000 C 
ATOM     26  N   UNL     1      42.870   4.132  13.977  0.00  0.00    +0.000 NA
ENDBRANCH  19  25
ENDBRANCH  16  21
ENDBRANCH   1  16
TORSDOF 6
ENDMDL
MODEL 8
REMARK VINA RESULT:    -5.966      3.530      6.594
REMARK INTER + INTRA:          -9.218
REMARK INTER:                  -8.168
REMARK INTRA:                  -1.050
REMARK UNBOUND:                -1.160
REMARK  Name = 
REMARK  6 active torsions:
REMARK  status: ('A' for Active; 'I' for Inactive)
REMARK    1  A    between atoms: C_2  and  C_3
REMARK    2  A    between atoms: C_5  and  C_6
REMARK    3  A    between atoms: C_9  and  O_10
REMARK    4  A    between atoms: O_10  and  C_11
REMARK    5  A    between atoms: C_11  and  C_12
REMARK    6  A    between atoms: C_16  and  C_17
REMARK                            x       y       z     vdW  Elec       q    Type
REMARK                         _______ _______ _______ _____ _____    ______ ____
ROOT
ATOM      1  C   UNL     1      47.942   9.051  12.464  0.00  0.00    +0.000 C 
ATOM      2  C   UNL     1      49.334   9.346  13.035  0.00  0.00    +0.000 C 
ATOM      3  C   UNL     1      48.190   9.126  13.961  0.00  0.00    +0.000 C 
ENDROOT
BRANCH   1   4
ATOM      4  C   UNL     1      47.159  10.200  11.838  0.00  0.00    +0.000 A 
ATOM      5  C   UNL     1      47.787  11.141  11.009  0.00  0.00    +0.000 A 
ATOM      6  C   UNL     1      47.048  12.093  10.303  0.00  0.00    +0.000 A 
ATOM      7  C   UNL     1      45.657  12.111  10.404  0.00  0.00    +0.000 A 
ATOM      8  C   UNL     1      44.978  11.211  11.239  0.00  0.00    +0.000 A 
ATOM      9  C   UNL     1      45.758  10.296  11.972  0.00  0.00    +0.000 A 
BRANCH   8  10
ATOM     10  C   UNL     1      43.502  11.155  11.261  0.00  0.00    +0.000 A 
ATOM     11  C   UNL     1      42.770  10.108  10.699  0.00  0.00    +0.000 A 
ATOM     12  C   UNL     1      41.379  10.185  10.669  0.00  0.00    +0.000 A 
ATOM     13  C   UNL     1      40.748  11.301  11.202  0.00  0.00    +0.000 A 
ATOM     14  C   UNL     1      41.537  12.289  11.760  0.00  0.00    +0.000 A 
ATOM     15  N   UNL     1      42.886  12.237  11.806  0.00  0.00    +0.000 NA
ENDBRANCH   8  10
ENDBRANCH   1   4
BRANCH   1  16
ATOM     16  O   UNL     1      47.996   7.806  11.733  0.00  0.00    +0.000 OA
BRANCH  16  21
ATOM     17  C   UNL     1      44.931   5.751  12.040  0.00  0.00    +0.000 A 
ATOM     18  C   UNL     1      45.398   4.796  12.951  0.00  0.00    +0.000 A 
ATOM     19  C   UNL     1      46.731   4.826  13.371  0.00  0.00    +0.000 A 
ATOM     20  C   UNL     1      47.584   5.824  12.886  0.00  0.00    +0.000 A 
ATOM     21  C   UNL     1      47.119   6.787  11.982  0.00  0.00    +0.000 A 
ATOM     22  C   UNL     1      45.796   6.743  11.553  0.00  0.00    +0.000 A 
BRANCH  17  24
ATOM     23  N   UNL     1      42.443   5.731  11.305  0.00  0.00    +0.000 NA
ATOM     24  C   UNL     1      43.552   5.742  11.639  0.00  0.00    +0.000 C 
ENDBRANCH  17  24
BRANCH  19  25
ATOM     25  C   UNL     1      47.211   3.868  14.323  0.00  0.00    +0.000 C 
ATOM     26  N   UNL     1      47.606   3.094  15.092  0.00  0.00    +0.000 NA
ENDBRANCH  19  25
ENDBRANCH  16  21
ENDBRANCH   1  16
TORSDOF 6
ENDMDL
MODEL 9
REMARK VINA RESULT:    -5.834      3.034      4.984
REMARK INTER + INTRA:          -9.040
REMARK INTER:                  -7.877
REMARK INTRA:                  -1.163
REMARK UNBOUND:                -1.160
REMARK  Name = 
REMARK  6 active torsions:
REMARK  status: ('A' for Active; 'I' for Inactive)
REMARK    1  A    between atoms: C_2  and  C_3
REMARK    2  A    between atoms: C_5  and  C_6
REMARK    3  A    between atoms: C_9  and  O_10
REMARK    4  A    between atoms: O_10  and  C_11
REMARK    5  A    between atoms: C_11  and  C_12
REMARK    6  A    between atoms: C_16  and  C_17
REMARK                            x       y       z     vdW  Elec       q    Type
REMARK                         _______ _______ _______ _____ _____    ______ ____
ROOT
ATOM      1  C   UNL     1      49.591   8.081  16.182  0.00  0.00    +0.000 C 
ATOM      2  C   UNL     1      49.815   9.502  16.711  0.00  0.00    +0.000 C 
ATOM      3  C   UNL     1      48.522   8.813  16.976  0.00  0.00    +0.000 C 
ENDROOT
BRANCH   1   4
ATOM      4  C   UNL     1      49.334   7.897  14.690  0.00  0.00    +0.000 A 
ATOM      5  C   UNL     1      50.328   8.178  13.741  0.00  0.00    +0.000 A 
ATOM      6  C   UNL     1      50.155   7.856  12.393  0.00  0.00    +0.000 A 
ATOM      7  C   UNL     1      48.982   7.228  11.971  0.00  0.00    +0.000 A 
ATOM      8  C   UNL     1      47.944   6.947  12.872  0.00  0.00    +0.000 A 
ATOM      9  C   UNL     1      48.133   7.330  14.215  0.00  0.00    +0.000 A 
BRANCH   8  10
ATOM     10  C   UNL     1      46.752   6.185  12.449  0.00  0.00    +0.000 A 
ATOM     11  C   UNL     1      46.241   6.227  11.151  0.00  0.00    +0.000 A 
ATOM     12  C   UNL     1      45.051   5.562  10.863  0.00  0.00    +0.000 A 
ATOM     13  C   UNL     1      44.398   4.869  11.872  0.00  0.00    +0.000 A 
ATOM     14  C   UNL     1      44.973   4.855  13.129  0.00  0.00    +0.000 A 
ATOM     15  N   UNL     1      46.127   5.487  13.433  0.00  0.00    +0.000 NA
ENDBRANCH   8  10
ENDBRANCH   1   4
BRANCH   1  16
ATOM     16  O   UNL     1      50.550   7.198  16.806  0.00  0.00    +0.000 OA
BRANCH  16  21
ATOM     17  C   UNL     1      48.893   3.931  17.349  0.00  0.00    +0.000 A 
ATOM     18  C   UNL     1      50.015   3.172  17.700  0.00  0.00    +0.000 A 
ATOM     19  C   UNL     1      51.287   3.753  17.672  0.00  0.00    +0.000 A 
ATOM     20  C   UNL     1      51.423   5.097  17.306  0.00  0.00    +0.000 A 
ATOM     21  C   UNL     1      50.302   5.862  16.963  0.00  0.00    +0.000 A 
ATOM     22  C   UNL     1      49.040   5.276  16.975  0.00  0.00    +0.000 A 
BRANCH  17  24
ATOM     23  N   UNL     1      46.527   2.873  17.458  0.00  0.00    +0.000 NA
ATOM     24  C   UNL     1      47.584   3.345  17.416  0.00  0.00    +0.000 C 
ENDBRANCH  17  24
BRANCH  19  25
ATOM     25  C   UNL     1      52.438   2.990  18.055  0.00  0.00    +0.000 C 
ATOM     26  N   UNL     1      53.371   2.376  18.371  0.00  0.00    +0.000 NA
ENDBRANCH  19  25
ENDBRANCH  16  21
ENDBRANCH   1  16
TORSDOF 6
ENDMDL
