MODEL 1
REMARK VINA RESULT:    -7.749      0.000      0.000
REMARK INTER + INTRA:         -11.069
REMARK INTER:                 -10.013
REMARK INTRA:                  -1.056
REMARK UNBOUND:                -1.056
REMARK  Name = 
REMARK  5 active torsions:
REMARK  status: ('A' for Active; 'I' for Inactive)
REMARK    1  A    between atoms: C_2  and  C_19
REMARK    2  A    between atoms: N_3  and  C_4
REMARK    3  A    between atoms: C_4  and  C_5
REMARK    4  A    between atoms: C_8  and  C_9
REMARK    5  A    between atoms: C_9  and  C_10
REMARK                            x       y       z     vdW  Elec       q    Type
REMARK                         _______ _______ _______ _____ _____    ______ ____
ROOT
ATOM      1  O   UNL     1      49.951   7.014  14.224  0.00  0.00    +0.000 OA
ATOM      2  C   UNL     1      49.059   6.971  15.064  0.00  0.00    +0.000 C 
ATOM      3  N   UNL     1      47.820   7.520  14.858  0.00  0.00    +0.000 N 
ATOM      4  H   UNL     1      47.186   7.617  15.642  0.00  0.00    +0.000 HD
ENDROOT
BRANCH   2   5
ATOM      5  C   UNL     1      49.239   6.260  16.337  0.00  0.00    +0.000 A 
ATOM      6  C   UNL     1      50.111   6.766  17.292  0.00  0.00    +0.000 A 
ATOM      7  S   UNL     1      50.206   5.814  18.704  0.00  0.00    +0.000 S 
ATOM      8  C   UNL     1      49.054   4.713  18.104  0.00  0.00    +0.000 A 
ATOM      9  N   UNL     1      48.649   3.651  18.850  0.00  0.00    +0.000 NA
ATOM     10  C   UNL     1      47.740   2.922  18.295  0.00  0.00    +0.000 A 
ATOM     11  N   UNL     1      47.209   3.151  17.053  0.00  0.00    +0.000 N 
ATOM     12  C   UNL     1      47.649   4.162  16.228  0.00  0.00    +0.000 A 
ATOM     13  O   UNL     1      47.263   4.243  15.067  0.00  0.00    +0.000 OA
ATOM     14  C   UNL     1      48.628   5.047  16.833  0.00  0.00    +0.000 A 
ATOM     15  H   UNL     1      46.527   2.523  16.655  0.00  0.00    +0.000 HD
ENDBRANCH   2   5
BRANCH   3  16
ATOM     16  C   UNL     1      47.507   8.316  13.702  0.00  0.00    +0.000 C 
BRANCH  16  17
ATOM     17  C   UNL     1      46.552   7.595  12.787  0.00  0.00    +0.000 A 
ATOM     18  C   UNL     1      46.884   6.341  12.264  0.00  0.00    +0.000 A 
ATOM     19  C   UNL     1      45.980   5.646  11.457  0.00  0.00    +0.000 A 
ATOM     20  C   UNL     1      44.736   6.205  11.136  0.00  0.00    +0.000 A 
ATOM     21  C   UNL     1      44.432   7.488  11.611  0.00  0.00    +0.000 A 
ATOM     22  C   UNL     1      45.329   8.176  12.430  0.00  0.00    +0.000 A 
BRANCH  20  23
ATOM     23  C   UNL     1      43.719   5.404  10.347  0.00  0.00    +0.000 C 
BRANCH  23  24
ATOM     24  C   UNL     1      44.342   4.247   9.593  0.00  0.00    +0.000 A 
ATOM     25  N   UNL     1      45.022   4.584   8.457  0.00  0.00    +0.000 NA
ATOM     26  C   UNL     1      45.689   3.606   7.806  0.00  0.00    +0.000 A 
ATOM     27  C   UNL     1      45.727   2.290   8.229  0.00  0.00    +0.000 A 
ATOM     28  C   UNL     1      45.011   1.947   9.369  0.00  0.00    +0.000 A 
ATOM     29  C   UNL     1      44.294   2.928  10.057  0.00  0.00    +0.000 A 
ATOM     30 CL   UNL     1      43.370   2.430  11.423  0.00  0.00    +0.000 Cl
ENDBRANCH  23  24
ENDBRANCH  20  23
ENDBRANCH  16  17
ENDBRANCH   3  16
TORSDOF 5
ENDMDL
MODEL 2
REMARK VINA RESULT:    -7.361      2.211      2.740
REMARK INTER + INTRA:         -10.569
REMARK INTER:                  -9.469
REMARK INTRA:                  -1.100
REMARK UNBOUND:                -1.056
REMARK  Name = 
REMARK  5 active torsions:
REMARK  status: ('A' for Active; 'I' for Inactive)
REMARK    1  A    between atoms: C_2  and  C_19
REMARK    2  A    between atoms: N_3  and  C_4
REMARK    3  A    between atoms: C_4  and  C_5
REMARK    4  A    between atoms: C_8  and  C_9
REMARK    5  A    between atoms: C_9  and  C_10
REMARK                            x       y       z     vdW  Elec       q    Type
REMARK                         _______ _______ _______ _____ _____    ______ ____
ROOT
ATOM      1  O   UNL     1      50.671   5.935  16.333  0.00  0.00    +0.000 OA
ATOM      2  C   UNL     1      49.511   6.145  16.668  0.00  0.00    +0.000 C 
ATOM      3  N   UNL     1      48.557   6.593  15.792  0.00  0.00    +0.000 N 
ATOM      4  H   UNL     1      47.669   6.921  16.153  0.00  0.00    +0.000 HD
ENDROOT
BRANCH   2   5
ATOM      5  C   UNL     1      49.044   5.861  18.031  0.00  0.00    +0.000 A 
ATOM      6  C   UNL     1      49.215   4.592  18.570  0.00  0.00    +0.000 A 
ATOM      7  S   UNL     1      48.610   4.435  20.156  0.00  0.00    +0.000 S 
ATOM      8  C   UNL     1      48.134   6.069  20.195  0.00  0.00    +0.000 A 
ATOM      9  N   UNL     1      47.564   6.604  21.307  0.00  0.00    +0.000 NA
ATOM     10  C   UNL     1      47.293   7.863  21.218  0.00  0.00    +0.000 A 
ATOM     11  N   UNL     1      47.528   8.633  20.110  0.00  0.00    +0.000 N 
ATOM     12  C   UNL     1      48.024   8.118  18.933  0.00  0.00    +0.000 A 
ATOM     13  O   UNL     1      48.077   8.800  17.916  0.00  0.00    +0.000 OA
ATOM     14  C   UNL     1      48.402   6.717  19.004  0.00  0.00    +0.000 A 
ATOM     15  H   UNL     1      47.260   9.606  20.085  0.00  0.00    +0.000 HD
ENDBRANCH   2   5
BRANCH   3  16
ATOM     16  C   UNL     1      48.867   6.993  14.446  0.00  0.00    +0.000 C 
BRANCH  16  17
ATOM     17  C   UNL     1      47.780   6.574  13.491  0.00  0.00    +0.000 A 
ATOM     18  C   UNL     1      47.056   5.399  13.715  0.00  0.00    +0.000 A 
ATOM     19  C   UNL     1      46.013   5.033  12.860  0.00  0.00    +0.000 A 
ATOM     20  C   UNL     1      45.692   5.824  11.748  0.00  0.00    +0.000 A 
ATOM     21  C   UNL     1      46.461   6.968  11.492  0.00  0.00    +0.000 A 
ATOM     22  C   UNL     1      47.492   7.341  12.355  0.00  0.00    +0.000 A 
BRANCH  20  23
ATOM     23  C   UNL     1      44.494   5.479  10.885  0.00  0.00    +0.000 C 
BRANCH  23  24
ATOM     24  C   UNL     1      44.791   4.381   9.884  0.00  0.00    +0.000 A 
ATOM     25  N   UNL     1      45.517   4.763   8.791  0.00  0.00    +0.000 NA
ATOM     26  C   UNL     1      45.903   3.803   7.922  0.00  0.00    +0.000 A 
ATOM     27  C   UNL     1      45.612   2.461   8.081  0.00  0.00    +0.000 A 
ATOM     28  C   UNL     1      44.849   2.082   9.179  0.00  0.00    +0.000 A 
ATOM     29  C   UNL     1      44.417   3.049  10.088  0.00  0.00    +0.000 A 
ATOM     30 CL   UNL     1      43.418   2.528  11.392  0.00  0.00    +0.000 Cl
ENDBRANCH  23  24
ENDBRANCH  20  23
ENDBRANCH  16  17
ENDBRANCH   3  16
TORSDOF 5
ENDMDL
MODEL 3
REMARK VINA RESULT:    -7.357      1.851      2.276
REMARK INTER + INTRA:         -10.564
REMARK INTER:                  -9.821
REMARK INTRA:                  -0.743
REMARK UNBOUND:                -1.056
REMARK  Name = 
REMARK  5 active torsions:
REMARK  status: ('A' for Active; 'I' for Inactive)
REMARK    1  A    between atoms: C_2  and  C_19
REMARK    2  A    between atoms: N_3  and  C_4
REMARK    3  A    between atoms: C_4  and  C_5
REMARK    4  A    between atoms: C_8  and  C_9
REMARK    5  A    between atoms: C_9  and  C_10
REMARK                            x       y       z     vdW  Elec       q    Type
REMARK                         _______ _______ _______ _____ _____    ______ ____
ROOT
ATOM      1  O   UNL     1      50.404   5.888  16.376  0.00  0.00    +0.000 OA
ATOM      2  C   UNL     1      49.359   6.491  16.594  0.00  0.00    +0.000 C 
ATOM      3  N   UNL     1      48.507   6.880  15.593  0.00  0.00    +0.000 N 
ATOM      4  H   UNL     1      47.758   7.527  15.806  0.00  0.00    +0.000 HD
ENDROOT
BRANCH   2   5
ATOM      5  C   UNL     1      48.912   6.781  17.962  0.00  0.00    +0.000 A 
ATOM      6  C   UNL     1      48.548   8.076  18.310  0.00  0.00    +0.000 A 
ATOM      7  S   UNL     1      48.064   8.236  19.937  0.00  0.00    +0.000 S 
ATOM      8  C   UNL     1      48.284   6.572  20.224  0.00  0.00    +0.000 A 
ATOM      9  N   UNL     1      48.008   6.031  21.440  0.00  0.00    +0.000 NA
ATOM     10  C   UNL     1      48.177   4.752  21.508  0.00  0.00    +0.000 A 
ATOM     11  N   UNL     1      48.610   3.968  20.472  0.00  0.00    +0.000 N 
ATOM     12  C   UNL     1      48.982   4.483  19.250  0.00  0.00    +0.000 A 
ATOM     13  O   UNL     1      49.511   3.775  18.400  0.00  0.00    +0.000 OA
ATOM     14  C   UNL     1      48.753   5.910  19.105  0.00  0.00    +0.000 A 
ATOM     15  H   UNL     1      48.759   2.978  20.596  0.00  0.00    +0.000 HD
ENDBRANCH   2   5
BRANCH   3  16
ATOM     16  C   UNL     1      48.833   6.743  14.199  0.00  0.00    +0.000 C 
BRANCH  16  17
ATOM     17  C   UNL     1      47.606   6.443  13.380  0.00  0.00    +0.000 A 
ATOM     18  C   UNL     1      47.328   7.183  12.226  0.00  0.00    +0.000 A 
ATOM     19  C   UNL     1      46.218   6.874  11.435  0.00  0.00    +0.000 A 
ATOM     20  C   UNL     1      45.350   5.836  11.798  0.00  0.00    +0.000 A 
ATOM     21  C   UNL     1      45.597   5.138  12.988  0.00  0.00    +0.000 A 
ATOM     22  C   UNL     1      46.714   5.436  13.770  0.00  0.00    +0.000 A 
BRANCH  20  23
ATOM     23  C   UNL     1      44.208   5.439  10.883  0.00  0.00    +0.000 C 
BRANCH  23  24
ATOM     24  C   UNL     1      44.594   4.347   9.906  0.00  0.00    +0.000 A 
ATOM     25  N   UNL     1      45.287   4.761   8.805  0.00  0.00    +0.000 NA
ATOM     26  C   UNL     1      45.750   3.816   7.957  0.00  0.00    +0.000 A 
ATOM     27  C   UNL     1      45.568   2.458   8.147  0.00  0.00    +0.000 A 
ATOM     28  C   UNL     1      44.837   2.044   9.253  0.00  0.00    +0.000 A 
ATOM     29  C   UNL     1      44.327   2.994  10.141  0.00  0.00    +0.000 A 
ATOM     30 CL   UNL     1      43.372   2.423  11.457  0.00  0.00    +0.000 Cl
ENDBRANCH  23  24
ENDBRANCH  20  23
ENDBRANCH  16  17
ENDBRANCH   3  16
TORSDOF 5
ENDMDL
MODEL 4
REMARK VINA RESULT:    -7.130      4.366      9.449
REMARK INTER + INTRA:         -10.270
REMARK INTER:                  -9.337
REMARK INTRA:                  -0.933
REMARK UNBOUND:                -1.056
REMARK  Name = 
REMARK  5 active torsions:
REMARK  status: ('A' for Active; 'I' for Inactive)
REMARK    1  A    between atoms: C_2  and  C_19
REMARK    2  A    between atoms: N_3  and  C_4
REMARK    3  A    between atoms: C_4  and  C_5
REMARK    4  A    between atoms: C_8  and  C_9
REMARK    5  A    between atoms: C_9  and  C_10
REMARK                            x       y       z     vdW  Elec       q    Type
REMARK                         _______ _______ _______ _____ _____    ______ ____
ROOT
ATOM      1  O   UNL     1      47.271   3.173  13.931  0.00  0.00    +0.000 OA
ATOM      2  C   UNL     1      46.772   4.200  14.377  0.00  0.00    +0.000 C 
ATOM      3  N   UNL     1      46.776   4.505  15.713  0.00  0.00    +0.000 N 
ATOM      4  H   UNL     1      46.197   5.267  16.048  0.00  0.00    +0.000 HD
ENDROOT
BRANCH   2   5
ATOM      5  C   UNL     1      46.190   5.216  13.491  0.00  0.00    +0.000 A 
ATOM      6  C   UNL     1      46.911   6.365  13.190  0.00  0.00    +0.000 A 
ATOM      7  S   UNL     1      46.084   7.439  12.156  0.00  0.00    +0.000 S 
ATOM      8  C   UNL     1      44.750   6.389  12.040  0.00  0.00    +0.000 A 
ATOM      9  N   UNL     1      43.680   6.702  11.263  0.00  0.00    +0.000 NA
ATOM     10  C   UNL     1      42.758   5.798  11.230  0.00  0.00    +0.000 A 
ATOM     11  N   UNL     1      42.804   4.614  11.917  0.00  0.00    +0.000 N 
ATOM     12  C   UNL     1      43.826   4.292  12.782  0.00  0.00    +0.000 A 
ATOM     13  O   UNL     1      43.759   3.297  13.496  0.00  0.00    +0.000 OA
ATOM     14  C   UNL     1      44.917   5.250  12.806  0.00  0.00    +0.000 A 
ATOM     15  H   UNL     1      42.035   3.962  11.882  0.00  0.00    +0.000 HD
ENDBRANCH   2   5
BRANCH   3  16
ATOM     16  C   UNL     1      47.234   3.584  16.718  0.00  0.00    +0.000 C 
BRANCH  16  17
ATOM     17  C   UNL     1      48.682   3.823  17.055  0.00  0.00    +0.000 A 
ATOM     18  C   UNL     1      49.530   2.747  17.337  0.00  0.00    +0.000 A 
ATOM     19  C   UNL     1      50.886   2.960  17.599  0.00  0.00    +0.000 A 
ATOM     20  C   UNL     1      51.414   4.258  17.612  0.00  0.00    +0.000 A 
ATOM     21  C   UNL     1      50.549   5.338  17.390  0.00  0.00    +0.000 A 
ATOM     22  C   UNL     1      49.198   5.124  17.113  0.00  0.00    +0.000 A 
BRANCH  20  23
ATOM     23  C   UNL     1      52.903   4.475  17.794  0.00  0.00    +0.000 C 
BRANCH  23  24
ATOM     24  C   UNL     1      53.384   4.100  19.180  0.00  0.00    +0.000 A 
ATOM     25  N   UNL     1      52.884   4.857  20.201  0.00  0.00    +0.000 NA
ATOM     26  C   UNL     1      53.194   4.497  21.466  0.00  0.00    +0.000 A 
ATOM     27  C   UNL     1      53.980   3.404  21.783  0.00  0.00    +0.000 A 
ATOM     28  C   UNL     1      54.509   2.655  20.740  0.00  0.00    +0.000 A 
ATOM     29  C   UNL     1      54.226   3.008  19.420  0.00  0.00    +0.000 A 
ATOM     30 CL   UNL     1      54.966   2.082  18.170  0.00  0.00    +0.000 Cl
ENDBRANCH  23  24
ENDBRANCH  20  23
ENDBRANCH  16  17
ENDBRANCH   3  16
TORSDOF 5
ENDMDL
MODEL 5
REMARK VINA RESULT:    -6.885      1.910      2.864
REMARK INTER + INTRA:          -9.953
REMARK INTER:                  -9.049
REMARK INTRA:                  -0.904
REMARK UNBOUND:                -1.056
REMARK  Name = 
REMARK  5 active torsions:
REMARK  status: ('A' for Active; 'I' for Inactive)
REMARK    1  A    between atoms: C_2  and  C_19
REMARK    2  A    between atoms: N_3  and  C_4
REMARK    3  A    between atoms: C_4  and  C_5
REMARK    4  A    between atoms: C_8  and  C_9
REMARK    5  A    between atoms: C_9  and  C_10
REMARK                            x       y       z     vdW  Elec       q    Type
REMARK                         _______ _______ _______ _____ _____    ______ ____
ROOT
ATOM      1  O   UNL     1      48.353   6.087  13.262  0.00  0.00    +0.000 OA
ATOM      2  C   UNL     1      47.492   5.800  14.086  0.00  0.00    +0.000 C 
ATOM      3  N   UNL     1      46.171   6.126  13.920  0.00  0.00    +0.000 N 
ATOM      4  H   UNL     1      45.536   6.029  14.703  0.00  0.00    +0.000 HD
ENDROOT
BRANCH   2   5
ATOM      5  C   UNL     1      47.811   5.018  15.288  0.00  0.00    +0.000 A 
ATOM      6  C   UNL     1      47.485   3.669  15.340  0.00  0.00    +0.000 A 
ATOM      7  S   UNL     1      47.919   2.918  16.808  0.00  0.00    +0.000 S 
ATOM      8  C   UNL     1      48.596   4.359  17.410  0.00  0.00    +0.000 A 
ATOM      9  N   UNL     1      49.183   4.397  18.635  0.00  0.00    +0.000 NA
ATOM     10  C   UNL     1      49.695   5.540  18.949  0.00  0.00    +0.000 A 
ATOM     11  N   UNL     1      49.659   6.654  18.153  0.00  0.00    +0.000 N 
ATOM     12  C   UNL     1      49.003   6.687  16.943  0.00  0.00    +0.000 A 
ATOM     13  O   UNL     1      48.858   7.739  16.331  0.00  0.00    +0.000 OA
ATOM     14  C   UNL     1      48.463   5.407  16.518  0.00  0.00    +0.000 A 
ATOM     15  H   UNL     1      50.045   7.531  18.468  0.00  0.00    +0.000 HD
ENDBRANCH   2   5
BRANCH   3  16
ATOM     16  C   UNL     1      45.706   6.956  12.841  0.00  0.00    +0.000 C 
BRANCH  16  17
ATOM     17  C   UNL     1      45.440   6.140  11.604  0.00  0.00    +0.000 A 
ATOM     18  C   UNL     1      44.333   5.286  11.544  0.00  0.00    +0.000 A 
ATOM     19  C   UNL     1      44.053   4.567  10.380  0.00  0.00    +0.000 A 
ATOM     20  C   UNL     1      44.890   4.668   9.260  0.00  0.00    +0.000 A 
ATOM     21  C   UNL     1      46.032   5.477   9.346  0.00  0.00    +0.000 A 
ATOM     22  C   UNL     1      46.303   6.207  10.503  0.00  0.00    +0.000 A 
BRANCH  20  23
ATOM     23  C   UNL     1      44.524   3.967   7.967  0.00  0.00    +0.000 C 
BRANCH  23  24
ATOM     24  C   UNL     1      45.646   3.100   7.433  0.00  0.00    +0.000 A 
ATOM     25  N   UNL     1      46.452   3.689   6.501  0.00  0.00    +0.000 NA
ATOM     26  C   UNL     1      47.532   2.999   6.073  0.00  0.00    +0.000 A 
ATOM     27  C   UNL     1      47.869   1.738   6.530  0.00  0.00    +0.000 A 
ATOM     28  C   UNL     1      47.030   1.132   7.457  0.00  0.00    +0.000 A 
ATOM     29  C   UNL     1      45.894   1.808   7.908  0.00  0.00    +0.000 A 
ATOM     30 CL   UNL     1      44.856   0.978   9.005  0.00  0.00    +0.000 Cl
ENDBRANCH  23  24
ENDBRANCH  20  23
ENDBRANCH  16  17
ENDBRANCH   3  16
TORSDOF 5
ENDMDL
MODEL 6
REMARK VINA RESULT:    -6.881      3.653      7.926
REMARK INTER + INTRA:          -9.948
REMARK INTER:                  -8.970
REMARK INTRA:                  -0.978
REMARK UNBOUND:                -1.056
REMARK  Name = 
REMARK  5 active torsions:
REMARK  status: ('A' for Active; 'I' for Inactive)
REMARK    1  A    between atoms: C_2  and  C_19
REMARK    2  A    between atoms: N_3  and  C_4
REMARK    3  A    between atoms: C_4  and  C_5
REMARK    4  A    between atoms: C_8  and  C_9
REMARK    5  A    between atoms: C_9  and  C_10
REMARK                            x       y       z     vdW  Elec       q    Type
REMARK                         _______ _______ _______ _____ _____    ______ ____
ROOT
ATOM      1  O   UNL     1      45.885   7.845  11.903  0.00  0.00    +0.000 OA
ATOM      2  C   UNL     1      46.444   6.781  11.662  0.00  0.00    +0.000 C 
ATOM      3  N   UNL     1      47.712   6.497  12.096  0.00  0.00    +0.000 N 
ATOM      4  H   UNL     1      48.193   5.688  11.721  0.00  0.00    +0.000 HD
ENDROOT
BRANCH   2   5
ATOM      5  C   UNL     1      45.757   5.701  10.942  0.00  0.00    +0.000 A 
ATOM      6  C   UNL     1      45.918   5.578   9.567  0.00  0.00    +0.000 A 
ATOM      7  S   UNL     1      45.045   4.277   8.892  0.00  0.00    +0.000 S 
ATOM      8  C   UNL     1      44.456   3.808  10.418  0.00  0.00    +0.000 A 
ATOM      9  N   UNL     1      43.655   2.718  10.553  0.00  0.00    +0.000 NA
ATOM     10  C   UNL     1      43.316   2.448  11.769  0.00  0.00    +0.000 A 
ATOM     11  N   UNL     1      43.694   3.181  12.863  0.00  0.00    +0.000 N 
ATOM     12  C   UNL     1      44.432   4.339  12.767  0.00  0.00    +0.000 A 
ATOM     13  O   UNL     1      44.620   5.051  13.748  0.00  0.00    +0.000 OA
ATOM     14  C   UNL     1      44.890   4.650  11.424  0.00  0.00    +0.000 A 
ATOM     15  H   UNL     1      43.366   2.943  13.787  0.00  0.00    +0.000 HD
ENDBRANCH   2   5
BRANCH   3  16
ATOM     16  C   UNL     1      48.547   7.472  12.744  0.00  0.00    +0.000 C 
BRANCH  16  17
ATOM     17  C   UNL     1      48.945   7.018  14.123  0.00  0.00    +0.000 A 
ATOM     18  C   UNL     1      48.073   6.237  14.889  0.00  0.00    +0.000 A 
ATOM     19  C   UNL     1      48.459   5.770  16.149  0.00  0.00    +0.000 A 
ATOM     20  C   UNL     1      49.715   6.098  16.677  0.00  0.00    +0.000 A 
ATOM     21  C   UNL     1      50.560   6.931  15.933  0.00  0.00    +0.000 A 
ATOM     22  C   UNL     1      50.182   7.385  14.668  0.00  0.00    +0.000 A 
BRANCH  20  23
ATOM     23  C   UNL     1      50.167   5.503  17.996  0.00  0.00    +0.000 C 
BRANCH  23  24
ATOM     24  C   UNL     1      51.091   4.317  17.818  0.00  0.00    +0.000 A 
ATOM     25  N   UNL     1      52.421   4.574  17.996  0.00  0.00    +0.000 NA
ATOM     26  C   UNL     1      53.278   3.531  17.956  0.00  0.00    +0.000 A 
ATOM     27  C   UNL     1      52.884   2.220  17.754  0.00  0.00    +0.000 A 
ATOM     28  C   UNL     1      51.534   1.968  17.545  0.00  0.00    +0.000 A 
ATOM     29  C   UNL     1      50.622   3.024  17.560  0.00  0.00    +0.000 A 
ATOM     30 CL   UNL     1      48.971   2.657  17.227  0.00  0.00    +0.000 Cl
ENDBRANCH  23  24
ENDBRANCH  20  23
ENDBRANCH  16  17
ENDBRANCH   3  16
TORSDOF 5
ENDMDL
MODEL 7
REMARK VINA RESULT:    -6.846      4.125      9.259
REMARK INTER + INTRA:          -9.903
REMARK INTER:                  -8.936
REMARK INTRA:                  -0.966
REMARK UNBOUND:                -1.056
REMARK  Name = 
REMARK  5 active torsions:
REMARK  status: ('A' for Active; 'I' for Inactive)
REMARK    1  A    between atoms: C_2  and  C_19
REMARK    2  A    between atoms: N_3  and  C_4
REMARK    3  A    between atoms: C_4  and  C_5
REMARK    4  A    between atoms: C_8  and  C_9
REMARK    5  A    between atoms: C_9  and  C_10
REMARK                            x       y       z     vdW  Elec       q    Type
REMARK                         _______ _______ _______ _____ _____    ______ ____
ROOT
ATOM      1  O   UNL     1      47.230   3.186  13.872  0.00  0.00    +0.000 OA
ATOM      2  C   UNL     1      46.723   4.191  14.357  0.00  0.00    +0.000 C 
ATOM      3  N   UNL     1      46.757   4.464  15.699  0.00  0.00    +0.000 N 
ATOM      4  H   UNL     1      46.173   5.204  16.068  0.00  0.00    +0.000 HD
ENDROOT
BRANCH   2   5
ATOM      5  C   UNL     1      46.096   5.216  13.512  0.00  0.00    +0.000 A 
ATOM      6  C   UNL     1      46.763   6.409  13.264  0.00  0.00    +0.000 A 
ATOM      7  S   UNL     1      45.890   7.487  12.273  0.00  0.00    +0.000 S 
ATOM      8  C   UNL     1      44.607   6.382  12.106  0.00  0.00    +0.000 A 
ATOM      9  N   UNL     1      43.525   6.678  11.338  0.00  0.00    +0.000 NA
ATOM     10  C   UNL     1      42.647   5.734  11.262  0.00  0.00    +0.000 A 
ATOM     11  N   UNL     1      42.747   4.525  11.898  0.00  0.00    +0.000 N 
ATOM     12  C   UNL     1      43.780   4.214  12.752  0.00  0.00    +0.000 A 
ATOM     13  O   UNL     1      43.758   3.187  13.423  0.00  0.00    +0.000 OA
ATOM     14  C   UNL     1      44.825   5.220  12.823  0.00  0.00    +0.000 A 
ATOM     15  H   UNL     1      42.009   3.840  11.831  0.00  0.00    +0.000 HD
ENDBRANCH   2   5
BRANCH   3  16
ATOM     16  C   UNL     1      47.261   3.528  16.668  0.00  0.00    +0.000 C 
BRANCH  16  17
ATOM     17  C   UNL     1      48.701   3.815  17.003  0.00  0.00    +0.000 A 
ATOM     18  C   UNL     1      49.578   2.769  17.309  0.00  0.00    +0.000 A 
ATOM     19  C   UNL     1      50.927   3.026  17.570  0.00  0.00    +0.000 A 
ATOM     20  C   UNL     1      51.418   4.339  17.556  0.00  0.00    +0.000 A 
ATOM     21  C   UNL     1      50.523   5.389  17.311  0.00  0.00    +0.000 A 
ATOM     22  C   UNL     1      49.179   5.131  17.035  0.00  0.00    +0.000 A 
BRANCH  20  23
ATOM     23  C   UNL     1      52.900   4.602  17.737  0.00  0.00    +0.000 C 
BRANCH  23  24
ATOM     24  C   UNL     1      53.179   5.762  18.670  0.00  0.00    +0.000 A 
ATOM     25  N   UNL     1      53.580   6.920  18.064  0.00  0.00    +0.000 NA
ATOM     26  C   UNL     1      53.736   8.016  18.838  0.00  0.00    +0.000 A 
ATOM     27  C   UNL     1      53.507   8.033  20.202  0.00  0.00    +0.000 A 
ATOM     28  C   UNL     1      53.128   6.846  20.817  0.00  0.00    +0.000 A 
ATOM     29  C   UNL     1      52.975   5.689  20.052  0.00  0.00    +0.000 A 
ATOM     30 CL   UNL     1      52.570   4.233  20.880  0.00  0.00    +0.000 Cl
ENDBRANCH  23  24
ENDBRANCH  20  23
ENDBRANCH  16  17
ENDBRANCH   3  16
TORSDOF 5
ENDMDL
MODEL 8
REMARK VINA RESULT:    -6.713      4.317      9.463
REMARK INTER + INTRA:          -9.731
REMARK INTER:                  -8.871
REMARK INTRA:                  -0.860
REMARK UNBOUND:                -1.056
REMARK  Name = 
REMARK  5 active torsions:
REMARK  status: ('A' for Active; 'I' for Inactive)
REMARK    1  A    between atoms: C_2  and  C_19
REMARK    2  A    between atoms: N_3  and  C_4
REMARK    3  A    between atoms: C_4  and  C_5
REMARK    4  A    between atoms: C_8  and  C_9
REMARK    5  A    between atoms: C_9  and  C_10
REMARK                            x       y       z     vdW  Elec       q    Type
REMARK                         _______ _______ _______ _____ _____    ______ ____
ROOT
ATOM      1  O   UNL     1      47.282   3.179  13.844  0.00  0.00    +0.000 OA
ATOM      2  C   UNL     1      46.908   4.244  14.323  0.00  0.00    +0.000 C 
ATOM      3  N   UNL     1      47.109   4.577  15.637  0.00  0.00    +0.000 N 
ATOM      4  H   UNL     1      46.626   5.379  16.023  0.00  0.00    +0.000 HD
ENDROOT
BRANCH   2   5
ATOM      5  C   UNL     1      46.273   5.276  13.492  0.00  0.00    +0.000 A 
ATOM      6  C   UNL     1      46.912   6.493  13.294  0.00  0.00    +0.000 A 
ATOM      7  S   UNL     1      46.033   7.575  12.313  0.00  0.00    +0.000 S 
ATOM      8  C   UNL     1      44.785   6.440  12.084  0.00  0.00    +0.000 A 
ATOM      9  N   UNL     1      43.714   6.728  11.298  0.00  0.00    +0.000 NA
ATOM     10  C   UNL     1      42.865   5.764  11.174  0.00  0.00    +0.000 A 
ATOM     11  N   UNL     1      42.983   4.540  11.778  0.00  0.00    +0.000 N 
ATOM     12  C   UNL     1      44.004   4.233  12.649  0.00  0.00    +0.000 A 
ATOM     13  O   UNL     1      43.996   3.187  13.289  0.00  0.00    +0.000 OA
ATOM     14  C   UNL     1      45.019   5.265  12.772  0.00  0.00    +0.000 A 
ATOM     15  H   UNL     1      42.267   3.837  11.674  0.00  0.00    +0.000 HD
ENDBRANCH   2   5
BRANCH   3  16
ATOM     16  C   UNL     1      47.643   3.650  16.598  0.00  0.00    +0.000 C 
BRANCH  16  17
ATOM     17  C   UNL     1      47.780   4.292  17.954  0.00  0.00    +0.000 A 
ATOM     18  C   UNL     1      48.698   3.791  18.884  0.00  0.00    +0.000 A 
ATOM     19  C   UNL     1      48.865   4.414  20.123  0.00  0.00    +0.000 A 
ATOM     20  C   UNL     1      48.098   5.536  20.466  0.00  0.00    +0.000 A 
ATOM     21  C   UNL     1      47.137   5.997  19.556  0.00  0.00    +0.000 A 
ATOM     22  C   UNL     1      46.981   5.384  18.312  0.00  0.00    +0.000 A 
BRANCH  20  23
ATOM     23  C   UNL     1      48.357   6.270  21.768  0.00  0.00    +0.000 C 
BRANCH  23  24
ATOM     24  C   UNL     1      48.137   7.764  21.652  0.00  0.00    +0.000 A 
ATOM     25  N   UNL     1      46.999   8.237  22.241  0.00  0.00    +0.000 NA
ATOM     26  C   UNL     1      46.808   9.575  22.262  0.00  0.00    +0.000 A 
ATOM     27  C   UNL     1      47.701  10.487  21.730  0.00  0.00    +0.000 A 
ATOM     28  C   UNL     1      48.842   9.998  21.107  0.00  0.00    +0.000 A 
ATOM     29  C   UNL     1      49.064   8.621  21.049  0.00  0.00    +0.000 A 
ATOM     30 CL   UNL     1      50.462   8.073  20.204  0.00  0.00    +0.000 Cl
ENDBRANCH  23  24
ENDBRANCH  20  23
ENDBRANCH  16  17
ENDBRANCH   3  16
TORSDOF 5
ENDMDL
MODEL 9
REMARK VINA RESULT:    -6.647      4.343      9.187
REMARK INTER + INTRA:          -9.645
REMARK INTER:                  -8.449
REMARK INTRA:                  -1.196
REMARK UNBOUND:                -1.056
REMARK  Name = 
REMARK  5 active torsions:
REMARK  status: ('A' for Active; 'I' for Inactive)
REMARK    1  A    between atoms: C_2  and  C_19
REMARK    2  A    between atoms: N_3  and  C_4
REMARK    3  A    between atoms: C_4  and  C_5
REMARK    4  A    between atoms: C_8  and  C_9
REMARK    5  A    between atoms: C_9  and  C_10
REMARK                            x       y       z     vdW  Elec       q    Type
REMARK                         _______ _______ _______ _____ _____    ______ ____
ROOT
ATOM      1  O   UNL     1      47.659   3.457  13.651  0.00  0.00    +0.000 OA
ATOM      2  C   UNL     1      46.803   4.253  14.021  0.00  0.00    +0.000 C 
ATOM      3  N   UNL     1      46.651   4.619  15.333  0.00  0.00    +0.000 N 
ATOM      4  H   UNL     1      45.823   5.132  15.610  0.00  0.00    +0.000 HD
ENDROOT
BRANCH   2   5
ATOM      5  C   UNL     1      45.918   4.926  13.062  0.00  0.00    +0.000 A 
ATOM      6  C   UNL     1      45.002   4.183  12.329  0.00  0.00    +0.000 A 
ATOM      7  S   UNL     1      44.061   5.120  11.259  0.00  0.00    +0.000 S 
ATOM      8  C   UNL     1      44.817   6.558  11.768  0.00  0.00    +0.000 A 
ATOM      9  N   UNL     1      44.445   7.761  11.256  0.00  0.00    +0.000 NA
ATOM     10  C   UNL     1      45.067   8.774  11.760  0.00  0.00    +0.000 A 
ATOM     11  N   UNL     1      46.039   8.691  12.722  0.00  0.00    +0.000 N 
ATOM     12  C   UNL     1      46.507   7.491  13.208  0.00  0.00    +0.000 A 
ATOM     13  O   UNL     1      47.482   7.447  13.951  0.00  0.00    +0.000 OA
ATOM     14  C   UNL     1      45.795   6.325  12.715  0.00  0.00    +0.000 A 
ATOM     15  H   UNL     1      46.517   9.516  13.051  0.00  0.00    +0.000 HD
ENDBRANCH   2   5
BRANCH   3  16
ATOM     16  C   UNL     1      47.382   3.996  16.403  0.00  0.00    +0.000 C 
BRANCH  16  17
ATOM     17  C   UNL     1      47.809   5.008  17.432  0.00  0.00    +0.000 A 
ATOM     18  C   UNL     1      48.965   5.772  17.236  0.00  0.00    +0.000 A 
ATOM     19  C   UNL     1      49.337   6.748  18.164  0.00  0.00    +0.000 A 
ATOM     20  C   UNL     1      48.573   6.961  19.320  0.00  0.00    +0.000 A 
ATOM     21  C   UNL     1      47.451   6.152  19.543  0.00  0.00    +0.000 A 
ATOM     22  C   UNL     1      47.071   5.187  18.609  0.00  0.00    +0.000 A 
BRANCH  20  23
ATOM     23  C   UNL     1      48.923   8.090  20.269  0.00  0.00    +0.000 C 
BRANCH  23  24
ATOM     24  C   UNL     1      47.728   8.954  20.617  0.00  0.00    +0.000 A 
ATOM     25  N   UNL     1      47.247   8.809  21.887  0.00  0.00    +0.000 NA
ATOM     26  C   UNL     1      46.253   9.633  22.285  0.00  0.00    +0.000 A 
ATOM     27  C   UNL     1      45.703  10.616  21.482  0.00  0.00    +0.000 A 
ATOM     28  C   UNL     1      46.176  10.740  20.182  0.00  0.00    +0.000 A 
ATOM     29  C   UNL     1      47.190   9.893  19.731  0.00  0.00    +0.000 A 
ATOM     30 CL   UNL     1      47.687  10.050  18.088  0.00  0.00    +0.000 Cl
ENDBRANCH  23  24
ENDBRANCH  20  23
ENDBRANCH  16  17
ENDBRANCH   3  16
TORSDOF 5
ENDMDL
