MODEL 1
REMARK VINA RESULT:    -7.940      0.000      0.000
REMARK INTER + INTRA:         -11.948
REMARK INTER:                 -10.725
REMARK INTRA:                  -1.223
REMARK UNBOUND:                -1.223
REMARK  Name = 
REMARK  7 active torsions:
REMARK  status: ('A' for Active; 'I' for Inactive)
REMARK    1  A    between atoms: C_1  and  C_2
REMARK    2  A    between atoms: C_2  and  N_3
REMARK    3  A    between atoms: C_2  and  C_18
REMARK    4  A    between atoms: N_3  and  C_4
REMARK    5  A    between atoms: C_7  and  C_8
REMARK    6  A    between atoms: C_8  and  N_9
REMARK    7  A    between atoms: C_18  and  C_20
REMARK                            x       y       z     vdW  Elec       q    Type
REMARK                         _______ _______ _______ _____ _____    ______ ____
ROOT
ATOM      1  N   UNL     1      47.236   6.258  14.398  0.00  0.00    +0.000 N 
ATOM      2  H   UNL     1      46.835   6.584  15.279  0.00  0.00    +0.000 HD
ENDROOT
BRANCH   1   3
ATOM      3  C   UNL     1      46.365   5.710  13.473  0.00  0.00    +0.000 A 
ATOM      4  C   UNL     1      46.275   4.325  13.329  0.00  0.00    +0.000 A 
ATOM      5  C   UNL     1      45.390   3.758  12.408  0.00  0.00    +0.000 A 
ATOM      6  C   UNL     1      44.593   4.596  11.629  0.00  0.00    +0.000 A 
ATOM      7  N   UNL     1      44.670   5.946  11.730  0.00  0.00    +0.000 NA
ATOM      8  C   UNL     1      45.547   6.457  12.628  0.00  0.00    +0.000 A 
BRANCH   6   9
ATOM      9  C   UNL     1      43.607   4.026  10.633  0.00  0.00    +0.000 C 
BRANCH   9  10
ATOM     10  N   UNL     1      44.020   4.292   9.264  0.00  0.00    +0.000 N 
ATOM     11  C   UNL     1      45.000   3.531   8.664  0.00  0.00    +0.000 A 
ATOM     12  C   UNL     1      45.197   2.186   8.925  0.00  0.00    +0.000 A 
ATOM     13  C   UNL     1      46.188   1.549   8.207  0.00  0.00    +0.000 A 
ATOM     14  N   UNL     1      46.938   2.156   7.271  0.00  0.00    +0.000 NA
ATOM     15  C   UNL     1      46.655   3.453   7.077  0.00  0.00    +0.000 A 
ATOM     16  N   UNL     1      45.730   4.172   7.735  0.00  0.00    +0.000 NA
ATOM     17  H   UNL     1      44.130   5.264   9.009  0.00  0.00    +0.000 HD
ENDBRANCH   9  10
ENDBRANCH   6   9
ENDBRANCH   1   3
BRANCH   1  19
ATOM     18  C   UNL     1      48.277   8.375  13.600  0.00  0.00    +0.000 C 
ATOM     19  C   UNL     1      48.500   6.927  14.033  0.00  0.00    +0.000 C 
BRANCH  19  20
ATOM     20  C   UNL     1      49.403   6.948  15.284  0.00  0.00    +0.000 C 
ATOM     21  O   UNL     1      50.629   6.925  15.150  0.00  0.00    +0.000 OA
BRANCH  20  22
ATOM     22  C   UNL     1      48.817   7.078  16.623  0.00  0.00    +0.000 A 
ATOM     23  C   UNL     1      48.483   8.275  17.234  0.00  0.00    +0.000 A 
ATOM     24  S   UNL     1      48.161   8.093  18.909  0.00  0.00    +0.000 S 
ATOM     25  C   UNL     1      48.396   6.407  18.830  0.00  0.00    +0.000 A 
ATOM     26  N   UNL     1      48.362   5.624  19.941  0.00  0.00    +0.000 NA
ATOM     27  C   UNL     1      48.533   4.364  19.702  0.00  0.00    +0.000 A 
ATOM     28  N   UNL     1      48.684   3.812  18.453  0.00  0.00    +0.000 N 
ATOM     29  C   UNL     1      48.621   4.557  17.298  0.00  0.00    +0.000 A 
ATOM     30  O   UNL     1      48.489   4.030  16.199  0.00  0.00    +0.000 OA
ATOM     31  C   UNL     1      48.597   5.987  17.532  0.00  0.00    +0.000 A 
ATOM     32  H   UNL     1      48.689   2.810  18.330  0.00  0.00    +0.000 HD
ENDBRANCH  20  22
ENDBRANCH  19  20
ENDBRANCH   1  19
TORSDOF 6
ENDMDL
MODEL 2
REMARK VINA RESULT:    -7.744      1.748      2.083
REMARK INTER + INTRA:         -11.683
REMARK INTER:                 -10.620
REMARK INTRA:                  -1.064
REMARK UNBOUND:                -1.223
REMARK  Name = 
REMARK  7 active torsions:
REMARK  status: ('A' for Active; 'I' for Inactive)
REMARK    1  A    between atoms: C_1  and  C_2
REMARK    2  A    between atoms: C_2  and  N_3
REMARK    3  A    between atoms: C_2  and  C_18
REMARK    4  A    between atoms: N_3  and  C_4
REMARK    5  A    between atoms: C_7  and  C_8
REMARK    6  A    between atoms: C_8  and  N_9
REMARK    7  A    between atoms: C_18  and  C_20
REMARK                            x       y       z     vdW  Elec       q    Type
REMARK                         _______ _______ _______ _____ _____    ______ ____
ROOT
ATOM      1  N   UNL     1      47.301   7.386  14.052  0.00  0.00    +0.000 N 
ATOM      2  H   UNL     1      47.201   8.400  14.114  0.00  0.00    +0.000 HD
ENDROOT
BRANCH   1   3
ATOM      3  C   UNL     1      46.419   6.714  13.225  0.00  0.00    +0.000 A 
ATOM      4  C   UNL     1      45.601   7.426  12.346  0.00  0.00    +0.000 A 
ATOM      5  C   UNL     1      44.715   6.759  11.495  0.00  0.00    +0.000 A 
ATOM      6  C   UNL     1      44.657   5.366  11.534  0.00  0.00    +0.000 A 
ATOM      7  N   UNL     1      45.424   4.646  12.389  0.00  0.00    +0.000 NA
ATOM      8  C   UNL     1      46.264   5.329  13.204  0.00  0.00    +0.000 A 
BRANCH   6   9
ATOM      9  C   UNL     1      43.727   4.601  10.617  0.00  0.00    +0.000 C 
BRANCH   9  10
ATOM     10  N   UNL     1      44.149   4.701   9.229  0.00  0.00    +0.000 N 
ATOM     11  C   UNL     1      45.029   3.786   8.693  0.00  0.00    +0.000 A 
ATOM     12  C   UNL     1      45.077   2.455   9.069  0.00  0.00    +0.000 A 
ATOM     13  C   UNL     1      45.981   1.650   8.405  0.00  0.00    +0.000 A 
ATOM     14  N   UNL     1      46.782   2.086   7.418  0.00  0.00    +0.000 NA
ATOM     15  C   UNL     1      46.644   3.386   7.113  0.00  0.00    +0.000 A 
ATOM     16  N   UNL     1      45.815   4.258   7.709  0.00  0.00    +0.000 NA
ATOM     17  H   UNL     1      44.365   5.630   8.890  0.00  0.00    +0.000 HD
ENDBRANCH   9  10
ENDBRANCH   6   9
ENDBRANCH   1   3
BRANCH   1  19
ATOM     18  C   UNL     1      49.722   7.576  13.496  0.00  0.00    +0.000 C 
ATOM     19  C   UNL     1      48.660   6.900  14.362  0.00  0.00    +0.000 C 
BRANCH  19  20
ATOM     20  C   UNL     1      48.965   7.254  15.832  0.00  0.00    +0.000 C 
ATOM     21  O   UNL     1      48.366   8.187  16.371  0.00  0.00    +0.000 OA
BRANCH  20  22
ATOM     22  C   UNL     1      49.900   6.438  16.616  0.00  0.00    +0.000 A 
ATOM     23  C   UNL     1      51.163   6.839  17.019  0.00  0.00    +0.000 A 
ATOM     24  S   UNL     1      52.115   5.536  17.598  0.00  0.00    +0.000 S 
ATOM     25  C   UNL     1      50.838   4.431  17.383  0.00  0.00    +0.000 A 
ATOM     26  N   UNL     1      50.996   3.098  17.601  0.00  0.00    +0.000 NA
ATOM     27  C   UNL     1      49.920   2.403  17.417  0.00  0.00    +0.000 A 
ATOM     28  N   UNL     1      48.693   2.923  17.085  0.00  0.00    +0.000 N 
ATOM     29  C   UNL     1      48.468   4.274  16.957  0.00  0.00    +0.000 A 
ATOM     30  O   UNL     1      47.334   4.738  16.926  0.00  0.00    +0.000 OA
ATOM     31  C   UNL     1      49.680   5.069  16.991  0.00  0.00    +0.000 A 
ATOM     32  H   UNL     1      47.870   2.338  17.078  0.00  0.00    +0.000 HD
ENDBRANCH  20  22
ENDBRANCH  19  20
ENDBRANCH   1  19
TORSDOF 6
ENDMDL
MODEL 3
REMARK VINA RESULT:    -7.448      1.695      2.158
REMARK INTER + INTRA:         -11.283
REMARK INTER:                 -10.638
REMARK INTRA:                  -0.646
REMARK UNBOUND:                -1.223
REMARK  Name = 
REMARK  7 active torsions:
REMARK  status: ('A' for Active; 'I' for Inactive)
REMARK    1  A    between atoms: C_1  and  C_2
REMARK    2  A    between atoms: C_2  and  N_3
REMARK    3  A    between atoms: C_2  and  C_18
REMARK    4  A    between atoms: N_3  and  C_4
REMARK    5  A    between atoms: C_7  and  C_8
REMARK    6  A    between atoms: C_8  and  N_9
REMARK    7  A    between atoms: C_18  and  C_20
REMARK                            x       y       z     vdW  Elec       q    Type
REMARK                         _______ _______ _______ _____ _____    ______ ____
ROOT
ATOM      1  N   UNL     1      47.506   5.204  14.586  0.00  0.00    +0.000 N 
ATOM      2  H   UNL     1      48.473   5.343  14.288  0.00  0.00    +0.000 HD
ENDROOT
BRANCH   1   3
ATOM      3  C   UNL     1      46.581   4.901  13.603  0.00  0.00    +0.000 A 
ATOM      4  C   UNL     1      46.351   3.573  13.241  0.00  0.00    +0.000 A 
ATOM      5  C   UNL     1      45.410   3.252  12.259  0.00  0.00    +0.000 A 
ATOM      6  C   UNL     1      44.697   4.280  11.642  0.00  0.00    +0.000 A 
ATOM      7  N   UNL     1      44.909   5.581  11.957  0.00  0.00    +0.000 NA
ATOM      8  C   UNL     1      45.837   5.852  12.907  0.00  0.00    +0.000 A 
BRANCH   6   9
ATOM      9  C   UNL     1      43.654   3.978  10.588  0.00  0.00    +0.000 C 
BRANCH   9  10
ATOM     10  N   UNL     1      44.129   4.319   9.257  0.00  0.00    +0.000 N 
ATOM     11  C   UNL     1      45.117   3.575   8.649  0.00  0.00    +0.000 A 
ATOM     12  C   UNL     1      45.275   2.213   8.832  0.00  0.00    +0.000 A 
ATOM     13  C   UNL     1      46.283   1.598   8.116  0.00  0.00    +0.000 A 
ATOM     14  N   UNL     1      47.084   2.245   7.252  0.00  0.00    +0.000 NA
ATOM     15  C   UNL     1      46.835   3.558   7.129  0.00  0.00    +0.000 A 
ATOM     16  N   UNL     1      45.899   4.256   7.793  0.00  0.00    +0.000 NA
ATOM     17  H   UNL     1      44.270   5.303   9.068  0.00  0.00    +0.000 HD
ENDBRANCH   9  10
ENDBRANCH   6   9
ENDBRANCH   1   3
BRANCH   1  19
ATOM     18  C   UNL     1      47.715   3.304  16.184  0.00  0.00    +0.000 C 
ATOM     19  C   UNL     1      47.370   4.780  15.993  0.00  0.00    +0.000 C 
BRANCH  19  20
ATOM     20  C   UNL     1      48.367   5.604  16.834  0.00  0.00    +0.000 C 
ATOM     21  O   UNL     1      49.028   6.495  16.295  0.00  0.00    +0.000 OA
BRANCH  20  22
ATOM     22  C   UNL     1      48.474   5.390  18.282  0.00  0.00    +0.000 A 
ATOM     23  C   UNL     1      47.497   5.712  19.210  0.00  0.00    +0.000 A 
ATOM     24  S   UNL     1      48.078   5.666  20.822  0.00  0.00    +0.000 S 
ATOM     25  C   UNL     1      49.620   5.151  20.313  0.00  0.00    +0.000 A 
ATOM     26  N   UNL     1      50.652   5.001  21.186  0.00  0.00    +0.000 NA
ATOM     27  C   UNL     1      51.746   4.578  20.640  0.00  0.00    +0.000 A 
ATOM     28  N   UNL     1      51.888   4.245  19.315  0.00  0.00    +0.000 N 
ATOM     29  C   UNL     1      50.842   4.284  18.422  0.00  0.00    +0.000 A 
ATOM     30  O   UNL     1      50.910   3.739  17.326  0.00  0.00    +0.000 OA
ATOM     31  C   UNL     1      49.648   4.908  18.956  0.00  0.00    +0.000 A 
ATOM     32  H   UNL     1      52.733   3.805  18.982  0.00  0.00    +0.000 HD
ENDBRANCH  20  22
ENDBRANCH  19  20
ENDBRANCH   1  19
TORSDOF 6
ENDMDL
MODEL 4
REMARK VINA RESULT:    -7.334      1.894      2.290
REMARK INTER + INTRA:         -11.129
REMARK INTER:                 -10.062
REMARK INTRA:                  -1.067
REMARK UNBOUND:                -1.223
REMARK  Name = 
REMARK  7 active torsions:
REMARK  status: ('A' for Active; 'I' for Inactive)
REMARK    1  A    between atoms: C_1  and  C_2
REMARK    2  A    between atoms: C_2  and  N_3
REMARK    3  A    between atoms: C_2  and  C_18
REMARK    4  A    between atoms: N_3  and  C_4
REMARK    5  A    between atoms: C_7  and  C_8
REMARK    6  A    between atoms: C_8  and  N_9
REMARK    7  A    between atoms: C_18  and  C_20
REMARK                            x       y       z     vdW  Elec       q    Type
REMARK                         _______ _______ _______ _____ _____    ______ ____
ROOT
ATOM      1  N   UNL     1      46.999   6.762  13.995  0.00  0.00    +0.000 N 
ATOM      2  H   UNL     1      46.678   6.734  14.964  0.00  0.00    +0.000 HD
ENDROOT
BRANCH   1   3
ATOM      3  C   UNL     1      46.190   6.168  13.044  0.00  0.00    +0.000 A 
ATOM      4  C   UNL     1      46.254   6.580  11.712  0.00  0.00    +0.000 A 
ATOM      5  C   UNL     1      45.452   5.979  10.738  0.00  0.00    +0.000 A 
ATOM      6  C   UNL     1      44.582   4.956  11.114  0.00  0.00    +0.000 A 
ATOM      7  N   UNL     1      44.481   4.545  12.402  0.00  0.00    +0.000 NA
ATOM      8  C   UNL     1      45.269   5.158  13.318  0.00  0.00    +0.000 A 
BRANCH   6   9
ATOM      9  C   UNL     1      43.709   4.263  10.090  0.00  0.00    +0.000 C 
BRANCH   9  10
ATOM     10  N   UNL     1      44.263   4.384   8.751  0.00  0.00    +0.000 N 
ATOM     11  C   UNL     1      45.234   3.510   8.309  0.00  0.00    +0.000 A 
ATOM     12  C   UNL     1      45.305   2.183   8.692  0.00  0.00    +0.000 A 
ATOM     13  C   UNL     1      46.307   1.421   8.126  0.00  0.00    +0.000 A 
ATOM     14  N   UNL     1      47.182   1.895   7.222  0.00  0.00    +0.000 NA
ATOM     15  C   UNL     1      47.015   3.187   6.900  0.00  0.00    +0.000 A 
ATOM     16  N   UNL     1      46.091   4.020   7.407  0.00  0.00    +0.000 NA
ATOM     17  H   UNL     1      44.468   5.321   8.432  0.00  0.00    +0.000 HD
ENDBRANCH   9  10
ENDBRANCH   6   9
ENDBRANCH   1   3
BRANCH   1  19
ATOM     18  C   UNL     1      47.896   8.941  14.804  0.00  0.00    +0.000 C 
ATOM     19  C   UNL     1      47.915   7.883  13.703  0.00  0.00    +0.000 C 
BRANCH  19  20
ATOM     20  C   UNL     1      49.347   7.316  13.625  0.00  0.00    +0.000 C 
ATOM     21  O   UNL     1      49.699   6.685  12.626  0.00  0.00    +0.000 OA
BRANCH  20  22
ATOM     22  C   UNL     1      50.316   7.593  14.692  0.00  0.00    +0.000 A 
ATOM     23  C   UNL     1      51.290   8.577  14.650  0.00  0.00    +0.000 A 
ATOM     24  S   UNL     1      52.464   8.396  15.886  0.00  0.00    +0.000 S 
ATOM     25  C   UNL     1      51.656   7.045  16.536  0.00  0.00    +0.000 A 
ATOM     26  N   UNL     1      52.171   6.329  17.572  0.00  0.00    +0.000 NA
ATOM     27  C   UNL     1      51.419   5.351  17.961  0.00  0.00    +0.000 A 
ATOM     28  N   UNL     1      50.181   5.055  17.445  0.00  0.00    +0.000 N 
ATOM     29  C   UNL     1      49.581   5.816  16.468  0.00  0.00    +0.000 A 
ATOM     30  O   UNL     1      48.388   5.706  16.208  0.00  0.00    +0.000 OA
ATOM     31  C   UNL     1      50.458   6.816  15.893  0.00  0.00    +0.000 A 
ATOM     32  H   UNL     1      49.596   4.356  17.878  0.00  0.00    +0.000 HD
ENDBRANCH  20  22
ENDBRANCH  19  20
ENDBRANCH   1  19
TORSDOF 6
ENDMDL
MODEL 5
REMARK VINA RESULT:    -7.234      1.399      2.096
REMARK INTER + INTRA:         -10.994
REMARK INTER:                 -10.229
REMARK INTRA:                  -0.765
REMARK UNBOUND:                -1.223
REMARK  Name = 
REMARK  7 active torsions:
REMARK  status: ('A' for Active; 'I' for Inactive)
REMARK    1  A    between atoms: C_1  and  C_2
REMARK    2  A    between atoms: C_2  and  N_3
REMARK    3  A    between atoms: C_2  and  C_18
REMARK    4  A    between atoms: N_3  and  C_4
REMARK    5  A    between atoms: C_7  and  C_8
REMARK    6  A    between atoms: C_8  and  N_9
REMARK    7  A    between atoms: C_18  and  C_20
REMARK                            x       y       z     vdW  Elec       q    Type
REMARK                         _______ _______ _______ _____ _____    ______ ____
ROOT
ATOM      1  N   UNL     1      47.318   6.101  14.338  0.00  0.00    +0.000 N 
ATOM      2  H   UNL     1      47.009   6.100  15.312  0.00  0.00    +0.000 HD
ENDROOT
BRANCH   1   3
ATOM      3  C   UNL     1      46.432   5.614  13.394  0.00  0.00    +0.000 A 
ATOM      4  C   UNL     1      46.045   4.273  13.423  0.00  0.00    +0.000 A 
ATOM      5  C   UNL     1      45.140   3.771  12.484  0.00  0.00    +0.000 A 
ATOM      6  C   UNL     1      44.625   4.628  11.512  0.00  0.00    +0.000 A 
ATOM      7  N   UNL     1      44.995   5.930  11.445  0.00  0.00    +0.000 NA
ATOM      8  C   UNL     1      45.881   6.378  12.368  0.00  0.00    +0.000 A 
BRANCH   6   9
ATOM      9  C   UNL     1      43.628   4.132  10.487  0.00  0.00    +0.000 C 
BRANCH   9  10
ATOM     10  N   UNL     1      44.096   4.371   9.131  0.00  0.00    +0.000 N 
ATOM     11  C   UNL     1      45.071   3.573   8.572  0.00  0.00    +0.000 A 
ATOM     12  C   UNL     1      45.216   2.226   8.852  0.00  0.00    +0.000 A 
ATOM     13  C   UNL     1      46.210   1.550   8.175  0.00  0.00    +0.000 A 
ATOM     14  N   UNL     1      47.011   2.123   7.260  0.00  0.00    +0.000 NA
ATOM     15  C   UNL     1      46.777   3.426   7.044  0.00  0.00    +0.000 A 
ATOM     16  N   UNL     1      45.853   4.181   7.663  0.00  0.00    +0.000 NA
ATOM     17  H   UNL     1      44.247   5.337   8.871  0.00  0.00    +0.000 HD
ENDBRANCH   9  10
ENDBRANCH   6   9
ENDBRANCH   1   3
BRANCH   1  19
ATOM     18  C   UNL     1      47.803   8.535  14.122  0.00  0.00    +0.000 C 
ATOM     19  C   UNL     1      48.352   7.112  14.042  0.00  0.00    +0.000 C 
BRANCH  19  20
ATOM     20  C   UNL     1      49.461   6.980  15.106  0.00  0.00    +0.000 C 
ATOM     21  O   UNL     1      50.614   7.324  14.831  0.00  0.00    +0.000 OA
BRANCH  20  22
ATOM     22  C   UNL     1      49.140   6.526  16.464  0.00  0.00    +0.000 A 
ATOM     23  C   UNL     1      49.113   5.205  16.878  0.00  0.00    +0.000 A 
ATOM     24  S   UNL     1      48.361   5.007  18.406  0.00  0.00    +0.000 S 
ATOM     25  C   UNL     1      48.121   6.685  18.570  0.00  0.00    +0.000 A 
ATOM     26  N   UNL     1      47.439   7.215  19.620  0.00  0.00    +0.000 NA
ATOM     27  C   UNL     1      47.370   8.507  19.606  0.00  0.00    +0.000 A 
ATOM     28  N   UNL     1      47.961   9.317  18.668  0.00  0.00    +0.000 N 
ATOM     29  C   UNL     1      48.745   8.827  17.649  0.00  0.00    +0.000 A 
ATOM     30  O   UNL     1      49.474   9.557  16.989  0.00  0.00    +0.000 OA
ATOM     31  C   UNL     1      48.709   7.382  17.535  0.00  0.00    +0.000 A 
ATOM     32  H   UNL     1      47.970  10.319  18.786  0.00  0.00    +0.000 HD
ENDBRANCH  20  22
ENDBRANCH  19  20
ENDBRANCH   1  19
TORSDOF 6
ENDMDL
MODEL 6
REMARK VINA RESULT:    -7.060      1.566      2.237
REMARK INTER + INTRA:         -10.759
REMARK INTER:                 -10.160
REMARK INTRA:                  -0.599
REMARK UNBOUND:                -1.223
REMARK  Name = 
REMARK  7 active torsions:
REMARK  status: ('A' for Active; 'I' for Inactive)
REMARK    1  A    between atoms: C_1  and  C_2
REMARK    2  A    between atoms: C_2  and  N_3
REMARK    3  A    between atoms: C_2  and  C_18
REMARK    4  A    between atoms: N_3  and  C_4
REMARK    5  A    between atoms: C_7  and  C_8
REMARK    6  A    between atoms: C_8  and  N_9
REMARK    7  A    between atoms: C_18  and  C_20
REMARK                            x       y       z     vdW  Elec       q    Type
REMARK                         _______ _______ _______ _____ _____    ______ ____
ROOT
ATOM      1  N   UNL     1      47.707   5.226  14.338  0.00  0.00    +0.000 N 
ATOM      2  H   UNL     1      48.671   5.108  14.022  0.00  0.00    +0.000 HD
ENDROOT
BRANCH   1   3
ATOM      3  C   UNL     1      46.706   4.995  13.411  0.00  0.00    +0.000 A 
ATOM      4  C   UNL     1      46.160   3.718  13.272  0.00  0.00    +0.000 A 
ATOM      5  C   UNL     1      45.140   3.475  12.349  0.00  0.00    +0.000 A 
ATOM      6  C   UNL     1      44.670   4.527  11.563  0.00  0.00    +0.000 A 
ATOM      7  N   UNL     1      45.192   5.774  11.660  0.00  0.00    +0.000 NA
ATOM      8  C   UNL     1      46.186   5.969  12.561  0.00  0.00    +0.000 A 
BRANCH   6   9
ATOM      9  C   UNL     1      43.553   4.313  10.565  0.00  0.00    +0.000 C 
BRANCH   9  10
ATOM     10  N   UNL     1      44.014   4.515   9.201  0.00  0.00    +0.000 N 
ATOM     11  C   UNL     1      44.964   3.683   8.648  0.00  0.00    +0.000 A 
ATOM     12  C   UNL     1      45.079   2.339   8.952  0.00  0.00    +0.000 A 
ATOM     13  C   UNL     1      46.051   1.626   8.279  0.00  0.00    +0.000 A 
ATOM     14  N   UNL     1      46.857   2.163   7.347  0.00  0.00    +0.000 NA
ATOM     15  C   UNL     1      46.651   3.467   7.108  0.00  0.00    +0.000 A 
ATOM     16  N   UNL     1      45.752   4.255   7.721  0.00  0.00    +0.000 NA
ATOM     17  H   UNL     1      44.184   5.472   8.921  0.00  0.00    +0.000 HD
ENDBRANCH   9  10
ENDBRANCH   6   9
ENDBRANCH   1   3
BRANCH   1  19
ATOM     18  C   UNL     1      47.561   3.573  16.197  0.00  0.00    +0.000 C 
ATOM     19  C   UNL     1      47.529   5.046  15.793  0.00  0.00    +0.000 C 
BRANCH  19  20
ATOM     20  C   UNL     1      48.703   5.750  16.503  0.00  0.00    +0.000 C 
ATOM     21  O   UNL     1      49.781   5.162  16.627  0.00  0.00    +0.000 OA
BRANCH  20  22
ATOM     22  C   UNL     1      48.573   7.139  16.959  0.00  0.00    +0.000 A 
ATOM     23  C   UNL     1      48.928   8.256  16.222  0.00  0.00    +0.000 A 
ATOM     24  S   UNL     1      48.983   9.683  17.171  0.00  0.00    +0.000 S 
ATOM     25  C   UNL     1      48.469   8.845  18.563  0.00  0.00    +0.000 A 
ATOM     26  N   UNL     1      48.388   9.452  19.778  0.00  0.00    +0.000 NA
ATOM     27  C   UNL     1      47.956   8.681  20.723  0.00  0.00    +0.000 A 
ATOM     28  N   UNL     1      47.552   7.379  20.556  0.00  0.00    +0.000 N 
ATOM     29  C   UNL     1      47.521   6.762  19.326  0.00  0.00    +0.000 A 
ATOM     30  O   UNL     1      46.917   5.710  19.149  0.00  0.00    +0.000 OA
ATOM     31  C   UNL     1      48.152   7.535  18.275  0.00  0.00    +0.000 A 
ATOM     32  H   UNL     1      47.111   6.875  21.311  0.00  0.00    +0.000 HD
ENDBRANCH  20  22
ENDBRANCH  19  20
ENDBRANCH   1  19
TORSDOF 6
ENDMDL
MODEL 7
REMARK VINA RESULT:    -6.696      3.124      4.687
REMARK INTER + INTRA:         -10.268
REMARK INTER:                  -9.333
REMARK INTRA:                  -0.935
REMARK UNBOUND:                -1.223
REMARK  Name = 
REMARK  7 active torsions:
REMARK  status: ('A' for Active; 'I' for Inactive)
REMARK    1  A    between atoms: C_1  and  C_2
REMARK    2  A    between atoms: C_2  and  N_3
REMARK    3  A    between atoms: C_2  and  C_18
REMARK    4  A    between atoms: N_3  and  C_4
REMARK    5  A    between atoms: C_7  and  C_8
REMARK    6  A    between atoms: C_8  and  N_9
REMARK    7  A    between atoms: C_18  and  C_20
REMARK                            x       y       z     vdW  Elec       q    Type
REMARK                         _______ _______ _______ _____ _____    ______ ____
ROOT
ATOM      1  N   UNL     1      46.941   7.636  13.717  0.00  0.00    +0.000 N 
ATOM      2  H   UNL     1      46.472   8.122  14.484  0.00  0.00    +0.000 HD
ENDROOT
BRANCH   1   3
ATOM      3  C   UNL     1      46.160   6.827  12.911  0.00  0.00    +0.000 A 
ATOM      4  C   UNL     1      45.296   7.396  11.973  0.00  0.00    +0.000 A 
ATOM      5  C   UNL     1      44.512   6.590  11.144  0.00  0.00    +0.000 A 
ATOM      6  C   UNL     1      44.602   5.204  11.263  0.00  0.00    +0.000 A 
ATOM      7  N   UNL     1      45.416   4.620  12.176  0.00  0.00    +0.000 NA
ATOM      8  C   UNL     1      46.154   5.435  12.968  0.00  0.00    +0.000 A 
BRANCH   6   9
ATOM      9  C   UNL     1      43.786   4.293  10.372  0.00  0.00    +0.000 C 
BRANCH   9  10
ATOM     10  N   UNL     1      44.181   4.419   8.978  0.00  0.00    +0.000 N 
ATOM     11  C   UNL     1      45.137   3.583   8.439  0.00  0.00    +0.000 A 
ATOM     12  C   UNL     1      45.311   2.266   8.824  0.00  0.00    +0.000 A 
ATOM     13  C   UNL     1      46.278   1.542   8.157  0.00  0.00    +0.000 A 
ATOM     14  N   UNL     1      47.025   2.042   7.157  0.00  0.00    +0.000 NA
ATOM     15  C   UNL     1      46.764   3.320   6.843  0.00  0.00    +0.000 A 
ATOM     16  N   UNL     1      45.864   4.118   7.443  0.00  0.00    +0.000 NA
ATOM     17  H   UNL     1      44.307   5.360   8.630  0.00  0.00    +0.000 HD
ENDBRANCH   9  10
ENDBRANCH   6   9
ENDBRANCH   1   3
BRANCH   1  19
ATOM     18  C   UNL     1      48.228   9.769  13.679  0.00  0.00    +0.000 C 
ATOM     19  C   UNL     1      48.174   8.303  13.254  0.00  0.00    +0.000 C 
BRANCH  19  20
ATOM     20  C   UNL     1      49.374   7.584  13.905  0.00  0.00    +0.000 C 
ATOM     21  O   UNL     1      49.232   6.443  14.350  0.00  0.00    +0.000 OA
BRANCH  20  22
ATOM     22  C   UNL     1      50.698   8.216  13.926  0.00  0.00    +0.000 A 
ATOM     23  C   UNL     1      51.377   8.607  15.068  0.00  0.00    +0.000 A 
ATOM     24  S   UNL     1      52.716   9.622  14.725  0.00  0.00    +0.000 S 
ATOM     25  C   UNL     1      52.451   9.501  13.046  0.00  0.00    +0.000 A 
ATOM     26  N   UNL     1      53.190  10.206  12.149  0.00  0.00    +0.000 NA
ATOM     27  C   UNL     1      52.877   9.978  10.914  0.00  0.00    +0.000 A 
ATOM     28  N   UNL     1      51.931   9.076  10.495  0.00  0.00    +0.000 N 
ATOM     29  C   UNL     1      51.236   8.268  11.365  0.00  0.00    +0.000 A 
ATOM     30  O   UNL     1      50.601   7.296  10.973  0.00  0.00    +0.000 OA
ATOM     31  C   UNL     1      51.438   8.611  12.759  0.00  0.00    +0.000 A 
ATOM     32  H   UNL     1      51.825   8.859   9.515  0.00  0.00    +0.000 HD
ENDBRANCH  20  22
ENDBRANCH  19  20
ENDBRANCH   1  19
TORSDOF 6
ENDMDL
MODEL 8
REMARK VINA RESULT:    -6.688      1.654      2.224
REMARK INTER + INTRA:         -10.257
REMARK INTER:                  -9.382
REMARK INTRA:                  -0.875
REMARK UNBOUND:                -1.223
REMARK  Name = 
REMARK  7 active torsions:
REMARK  status: ('A' for Active; 'I' for Inactive)
REMARK    1  A    between atoms: C_1  and  C_2
REMARK    2  A    between atoms: C_2  and  N_3
REMARK    3  A    between atoms: C_2  and  C_18
REMARK    4  A    between atoms: N_3  and  C_4
REMARK    5  A    between atoms: C_7  and  C_8
REMARK    6  A    between atoms: C_8  and  N_9
REMARK    7  A    between atoms: C_18  and  C_20
REMARK                            x       y       z     vdW  Elec       q    Type
REMARK                         _______ _______ _______ _____ _____    ______ ____
ROOT
ATOM      1  N   UNL     1      47.989   7.496  13.913  0.00  0.00    +0.000 N 
ATOM      2  H   UNL     1      48.175   8.451  13.604  0.00  0.00    +0.000 HD
ENDROOT
BRANCH   1   3
ATOM      3  C   UNL     1      47.083   6.758  13.172  0.00  0.00    +0.000 A 
ATOM      4  C   UNL     1      46.496   7.309  12.032  0.00  0.00    +0.000 A 
ATOM      5  C   UNL     1      45.590   6.570  11.267  0.00  0.00    +0.000 A 
ATOM      6  C   UNL     1      45.276   5.269  11.656  0.00  0.00    +0.000 A 
ATOM      7  N   UNL     1      45.814   4.711  12.769  0.00  0.00    +0.000 NA
ATOM      8  C   UNL     1      46.682   5.462  13.489  0.00  0.00    +0.000 A 
BRANCH   6   9
ATOM      9  C   UNL     1      44.315   4.425  10.847  0.00  0.00    +0.000 C 
BRANCH   9  10
ATOM     10  N   UNL     1      44.539   4.587   9.419  0.00  0.00    +0.000 N 
ATOM     11  C   UNL     1      45.307   3.681   8.720  0.00  0.00    +0.000 A 
ATOM     12  C   UNL     1      45.368   2.332   9.020  0.00  0.00    +0.000 A 
ATOM     13  C   UNL     1      46.144   1.542   8.197  0.00  0.00    +0.000 A 
ATOM     14  N   UNL     1      46.810   2.010   7.127  0.00  0.00    +0.000 NA
ATOM     15  C   UNL     1      46.669   3.326   6.908  0.00  0.00    +0.000 A 
ATOM     16  N   UNL     1      45.959   4.185   7.658  0.00  0.00    +0.000 NA
ATOM     17  H   UNL     1      44.733   5.527   9.098  0.00  0.00    +0.000 HD
ENDBRANCH   9  10
ENDBRANCH   6   9
ENDBRANCH   1   3
BRANCH   1  19
ATOM     18  C   UNL     1      50.409   7.639  14.484  0.00  0.00    +0.000 C 
ATOM     19  C   UNL     1      49.092   6.894  14.688  0.00  0.00    +0.000 C 
BRANCH  19  20
ATOM     20  C   UNL     1      48.727   6.992  16.184  0.00  0.00    +0.000 C 
ATOM     21  O   UNL     1      48.361   8.072  16.652  0.00  0.00    +0.000 OA
BRANCH  20  22
ATOM     22  C   UNL     1      48.736   5.794  17.032  0.00  0.00    +0.000 A 
ATOM     23  C   UNL     1      48.071   4.613  16.750  0.00  0.00    +0.000 A 
ATOM     24  S   UNL     1      47.997   3.558  18.100  0.00  0.00    +0.000 S 
ATOM     25  C   UNL     1      48.908   4.630  19.060  0.00  0.00    +0.000 A 
ATOM     26  N   UNL     1      49.146   4.391  20.377  0.00  0.00    +0.000 NA
ATOM     27  C   UNL     1      49.876   5.291  20.953  0.00  0.00    +0.000 A 
ATOM     28  N   UNL     1      50.430   6.378  20.322  0.00  0.00    +0.000 N 
ATOM     29  C   UNL     1      50.300   6.600  18.970  0.00  0.00    +0.000 A 
ATOM     30  O   UNL     1      51.006   7.408  18.379  0.00  0.00    +0.000 OA
ATOM     31  C   UNL     1      49.355   5.709  18.326  0.00  0.00    +0.000 A 
ATOM     32  H   UNL     1      51.090   6.971  20.803  0.00  0.00    +0.000 HD
ENDBRANCH  20  22
ENDBRANCH  19  20
ENDBRANCH   1  19
TORSDOF 6
ENDMDL
MODEL 9
REMARK VINA RESULT:    -6.626      3.818      5.938
REMARK INTER + INTRA:         -10.173
REMARK INTER:                  -9.328
REMARK INTRA:                  -0.845
REMARK UNBOUND:                -1.223
REMARK  Name = 
REMARK  7 active torsions:
REMARK  status: ('A' for Active; 'I' for Inactive)
REMARK    1  A    between atoms: C_1  and  C_2
REMARK    2  A    between atoms: C_2  and  N_3
REMARK    3  A    between atoms: C_2  and  C_18
REMARK    4  A    between atoms: N_3  and  C_4
REMARK    5  A    between atoms: C_7  and  C_8
REMARK    6  A    between atoms: C_8  and  N_9
REMARK    7  A    between atoms: C_18  and  C_20
REMARK                            x       y       z     vdW  Elec       q    Type
REMARK                         _______ _______ _______ _____ _____    ______ ____
ROOT
ATOM      1  N   UNL     1      46.979   7.908  13.651  0.00  0.00    +0.000 N 
ATOM      2  H   UNL     1      46.509   8.553  14.288  0.00  0.00    +0.000 HD
ENDROOT
BRANCH   1   3
ATOM      3  C   UNL     1      46.178   7.079  12.886  0.00  0.00    +0.000 A 
ATOM      4  C   UNL     1      46.335   5.694  12.955  0.00  0.00    +0.000 A 
ATOM      5  C   UNL     1      45.523   4.845  12.199  0.00  0.00    +0.000 A 
ATOM      6  C   UNL     1      44.549   5.398  11.369  0.00  0.00    +0.000 A 
ATOM      7  N   UNL     1      44.384   6.740  11.264  0.00  0.00    +0.000 NA
ATOM      8  C   UNL     1      45.196   7.531  12.007  0.00  0.00    +0.000 A 
BRANCH   6   9
ATOM      9  C   UNL     1      43.635   4.516  10.547  0.00  0.00    +0.000 C 
BRANCH   9  10
ATOM     10  N   UNL     1      43.989   4.551   9.137  0.00  0.00    +0.000 N 
ATOM     11  C   UNL     1      44.908   3.663   8.620  0.00  0.00    +0.000 A 
ATOM     12  C   UNL     1      45.065   2.367   9.076  0.00  0.00    +0.000 A 
ATOM     13  C   UNL     1      45.994   1.583   8.423  0.00  0.00    +0.000 A 
ATOM     14  N   UNL     1      46.719   2.005   7.373  0.00  0.00    +0.000 NA
ATOM     15  C   UNL     1      46.477   3.269   6.993  0.00  0.00    +0.000 A 
ATOM     16  N   UNL     1      45.615   4.121   7.572  0.00  0.00    +0.000 NA
ATOM     17  H   UNL     1      44.124   5.468   8.730  0.00  0.00    +0.000 HD
ENDBRANCH   9  10
ENDBRANCH   6   9
ENDBRANCH   1   3
BRANCH   1  19
ATOM     18  C   UNL     1      48.612   8.021  11.772  0.00  0.00    +0.000 C 
ATOM     19  C   UNL     1      48.323   8.356  13.234  0.00  0.00    +0.000 C 
BRANCH  19  20
ATOM     20  C   UNL     1      48.377   9.891  13.380  0.00  0.00    +0.000 C 
ATOM     21  O   UNL     1      48.893  10.389  14.383  0.00  0.00    +0.000 OA
BRANCH  20  22
ATOM     22  C   UNL     1      47.894  10.759  12.300  0.00  0.00    +0.000 A 
ATOM     23  C   UNL     1      46.564  11.062  12.055  0.00  0.00    +0.000 A 
ATOM     24  S   UNL     1      46.327  11.799  10.526  0.00  0.00    +0.000 S 
ATOM     25  C   UNL     1      47.998  11.787  10.196  0.00  0.00    +0.000 A 
ATOM     26  N   UNL     1      48.498  12.196   8.999  0.00  0.00    +0.000 NA
ATOM     27  C   UNL     1      49.789  12.148   8.923  0.00  0.00    +0.000 A 
ATOM     28  N   UNL     1      50.625  11.778   9.948  0.00  0.00    +0.000 N 
ATOM     29  C   UNL     1      50.166  11.458  11.204  0.00  0.00    +0.000 A 
ATOM     30  O   UNL     1      50.920  11.392  12.168  0.00  0.00    +0.000 OA
ATOM     31  C   UNL     1      48.723  11.339  11.280  0.00  0.00    +0.000 A 
ATOM     32  H   UNL     1      51.625  11.882   9.859  0.00  0.00    +0.000 HD
ENDBRANCH  20  22
ENDBRANCH  19  20
ENDBRANCH   1  19
TORSDOF 6
ENDMDL
