MODEL 1
REMARK VINA RESULT:    -8.655      0.000      0.000
REMARK INTER + INTRA:         -14.226
REMARK INTER:                 -13.208
REMARK INTRA:                  -1.018
REMARK UNBOUND:                -1.018
REMARK  Name = 
REMARK  9 active torsions:
REMARK  status: ('A' for Active; 'I' for Inactive)
REMARK    1  A    between atoms: C_2  and  C_3
REMARK    2  A    between atoms: C_6  and  C_7
REMARK    3  A    between atoms: C_11  and  O_12
REMARK    4  A    between atoms: O_12  and  C_13
REMARK    5  A    between atoms: C_13  and  C_14
REMARK    6  A    between atoms: C_20  and  C_21
REMARK    7  A    between atoms: C_21  and  C_22
REMARK    8  A    between atoms: C_22  and  N_23
REMARK    9  A    between atoms: C_27  and  C_28
REMARK                            x       y       z     vdW  Elec       q    Type
REMARK                         _______ _______ _______ _____ _____    ______ ____
ROOT
ATOM      1  C   UNL     1      46.418   5.388  13.279  0.00  0.00    +0.000 A 
ATOM      2  C   UNL     1      47.285   6.492  13.262  0.00  0.00    +0.000 A 
ATOM      3  C   UNL     1      46.868   7.731  12.766  0.00  0.00    +0.000 A 
ATOM      4  C   UNL     1      45.576   7.904  12.260  0.00  0.00    +0.000 A 
ATOM      5  C   UNL     1      44.731   6.781  12.270  0.00  0.00    +0.000 A 
ATOM      6  C   UNL     1      45.109   5.517  12.781  0.00  0.00    +0.000 A 
ENDROOT
BRANCH   4   7
ATOM      7  C   UNL     1      45.100   9.201  11.720  0.00  0.00    +0.000 A 
ATOM      8  C   UNL     1      45.814  10.396  11.937  0.00  0.00    +0.000 A 
ATOM      9  C   UNL     1      45.347  11.624  11.459  0.00  0.00    +0.000 A 
ATOM     10  C   UNL     1      44.169  11.682  10.721  0.00  0.00    +0.000 A 
ATOM     11  C   UNL     1      43.467  10.510  10.455  0.00  0.00    +0.000 A 
ATOM     12  C   UNL     1      43.910   9.294  10.981  0.00  0.00    +0.000 A 
BRANCH  11  13
ATOM     13  O   UNL     1      42.320  10.437   9.716  0.00  0.00    +0.000 OA
BRANCH  13  14
ATOM     14  C   UNL     1      41.281  11.349  10.097  0.00  0.00    +0.000 C 
BRANCH  14  15
ATOM     15  C   UNL     1      40.254  10.672  10.997  0.00  0.00    +0.000 C 
ATOM     16  F   UNL     1      40.577   9.399  11.310  0.00  0.00    +0.000 F 
ATOM     17  F   UNL     1      40.109  11.351  12.160  0.00  0.00    +0.000 F 
ATOM     18  F   UNL     1      39.038  10.643  10.399  0.00  0.00    +0.000 F 
ENDBRANCH  14  15
ENDBRANCH  13  14
ENDBRANCH  11  13
ENDBRANCH   4   7
BRANCH   1  20
ATOM     19  N   UNL     1      47.292   3.155  14.273  0.00  0.00    +0.000 NA
ATOM     20  C   UNL     1      46.921   4.156  13.820  0.00  0.00    +0.000 C 
ENDBRANCH   1  20
BRANCH   6  21
ATOM     21  C   UNL     1      44.120   4.347  12.779  0.00  0.00    +0.000 C 
BRANCH  21  22
ATOM     22  C   UNL     1      43.635   3.948  11.372  0.00  0.00    +0.000 C 
BRANCH  22  23
ATOM     23  N   UNL     1      44.177   4.762  10.283  0.00  0.00    +0.000 N 
ATOM     24  C   UNL     1      44.969   3.967   9.414  0.00  0.00    +0.000 A 
ATOM     25  C   UNL     1      45.569   4.572   8.312  0.00  0.00    +0.000 A 
ATOM     26  C   UNL     1      46.350   3.805   7.438  0.00  0.00    +0.000 A 
ATOM     27  C   UNL     1      46.515   2.444   7.685  0.00  0.00    +0.000 A 
ATOM     28  C   UNL     1      45.889   1.917   8.801  0.00  0.00    +0.000 A 
ATOM     29  N   UNL     1      45.119   2.645   9.648  0.00  0.00    +0.000 NA
ATOM     30  H   UNL     1      44.751   5.531  10.620  0.00  0.00    +0.000 HD
BRANCH  27  31
ATOM     31  C   UNL     1      47.338   1.548   6.848  0.00  0.00    +0.000 C 
ATOM     32  N   UNL     1      48.488   2.062   6.314  0.00  0.00    +0.000 N 
ATOM     33  O   UNL     1      46.994   0.394   6.615  0.00  0.00    +0.000 OA
ATOM     34  H   UNL     1      48.683   3.052   6.281  0.00  0.00    +0.000 HD
ATOM     35  H   UNL     1      48.993   1.462   5.670  0.00  0.00    +0.000 HD
ENDBRANCH  27  31
ENDBRANCH  22  23
ENDBRANCH  21  22
ENDBRANCH   6  21
TORSDOF 9
ENDMDL
MODEL 2
REMARK VINA RESULT:    -8.213      4.476      7.998
REMARK INTER + INTRA:         -13.553
REMARK INTER:                 -12.062
REMARK INTRA:                  -1.490
REMARK UNBOUND:                -1.018
REMARK  Name = 
REMARK  9 active torsions:
REMARK  status: ('A' for Active; 'I' for Inactive)
REMARK    1  A    between atoms: C_2  and  C_3
REMARK    2  A    between atoms: C_6  and  C_7
REMARK    3  A    between atoms: C_11  and  O_12
REMARK    4  A    between atoms: O_12  and  C_13
REMARK    5  A    between atoms: C_13  and  C_14
REMARK    6  A    between atoms: C_20  and  C_21
REMARK    7  A    between atoms: C_21  and  C_22
REMARK    8  A    between atoms: C_22  and  N_23
REMARK    9  A    between atoms: C_27  and  C_28
REMARK                            x       y       z     vdW  Elec       q    Type
REMARK                         _______ _______ _______ _____ _____    ______ ____
ROOT
ATOM      1  C   UNL     1      45.732   9.649  11.775  0.00  0.00    +0.000 A 
ATOM      2  C   UNL     1      44.449   9.330  11.302  0.00  0.00    +0.000 A 
ATOM      3  C   UNL     1      44.010   8.005  11.240  0.00  0.00    +0.000 A 
ATOM      4  C   UNL     1      44.841   6.953  11.638  0.00  0.00    +0.000 A 
ATOM      5  C   UNL     1      46.127   7.293  12.091  0.00  0.00    +0.000 A 
ATOM      6  C   UNL     1      46.602   8.622  12.187  0.00  0.00    +0.000 A 
ENDROOT
BRANCH   4   7
ATOM      7  C   UNL     1      44.411   5.535  11.581  0.00  0.00    +0.000 A 
ATOM      8  C   UNL     1      43.800   4.905  12.684  0.00  0.00    +0.000 A 
ATOM      9  C   UNL     1      43.429   3.558  12.644  0.00  0.00    +0.000 A 
ATOM     10  C   UNL     1      43.627   2.815  11.485  0.00  0.00    +0.000 A 
ATOM     11  C   UNL     1      44.188   3.424  10.366  0.00  0.00    +0.000 A 
ATOM     12  C   UNL     1      44.608   4.756  10.431  0.00  0.00    +0.000 A 
BRANCH  11  13
ATOM     13  O   UNL     1      44.402   2.808   9.165  0.00  0.00    +0.000 OA
BRANCH  13  14
ATOM     14  C   UNL     1      44.718   3.679   8.071  0.00  0.00    +0.000 C 
BRANCH  14  15
ATOM     15  C   UNL     1      46.074   3.335   7.465  0.00  0.00    +0.000 C 
ATOM     16  F   UNL     1      46.013   3.065   6.143  0.00  0.00    +0.000 F 
ATOM     17  F   UNL     1      46.950   4.354   7.631  0.00  0.00    +0.000 F 
ATOM     18  F   UNL     1      46.608   2.248   8.073  0.00  0.00    +0.000 F 
ENDBRANCH  14  15
ENDBRANCH  13  14
ENDBRANCH  11  13
ENDBRANCH   4   7
BRANCH   1  20
ATOM     19  N   UNL     1      46.400  12.154  11.894  0.00  0.00    +0.000 NA
ATOM     20  C   UNL     1      46.099  11.036  11.820  0.00  0.00    +0.000 C 
ENDBRANCH   1  20
BRANCH   6  21
ATOM     21  C   UNL     1      48.010   8.912  12.714  0.00  0.00    +0.000 C 
BRANCH  21  22
ATOM     22  C   UNL     1      48.798   7.647  13.106  0.00  0.00    +0.000 C 
BRANCH  22  23
ATOM     23  N   UNL     1      49.451   7.713  14.416  0.00  0.00    +0.000 N 
ATOM     24  C   UNL     1      48.992   6.664  15.254  0.00  0.00    +0.000 A 
ATOM     25  C   UNL     1      49.504   6.562  16.545  0.00  0.00    +0.000 A 
ATOM     26  C   UNL     1      49.070   5.531  17.386  0.00  0.00    +0.000 A 
ATOM     27  C   UNL     1      48.127   4.618  16.918  0.00  0.00    +0.000 A 
ATOM     28  C   UNL     1      47.663   4.787  15.625  0.00  0.00    +0.000 A 
ATOM     29  N   UNL     1      48.085   5.772  14.794  0.00  0.00    +0.000 NA
ATOM     30  H   UNL     1      49.282   8.595  14.892  0.00  0.00    +0.000 HD
BRANCH  27  31
ATOM     31  C   UNL     1      47.578   3.512  17.727  0.00  0.00    +0.000 C 
ATOM     32  N   UNL     1      48.300   3.105  18.815  0.00  0.00    +0.000 N 
ATOM     33  O   UNL     1      46.527   2.957  17.424  0.00  0.00    +0.000 OA
ATOM     34  H   UNL     1      49.266   3.363  18.960  0.00  0.00    +0.000 HD
ATOM     35  H   UNL     1      47.955   2.287  19.305  0.00  0.00    +0.000 HD
ENDBRANCH  27  31
ENDBRANCH  22  23
ENDBRANCH  21  22
ENDBRANCH   6  21
TORSDOF 9
ENDMDL
MODEL 3
REMARK VINA RESULT:    -7.820      4.549      6.637
REMARK INTER + INTRA:         -12.952
REMARK INTER:                 -11.803
REMARK INTRA:                  -1.149
REMARK UNBOUND:                -1.018
REMARK  Name = 
REMARK  9 active torsions:
REMARK  status: ('A' for Active; 'I' for Inactive)
REMARK    1  A    between atoms: C_2  and  C_3
REMARK    2  A    between atoms: C_6  and  C_7
REMARK    3  A    between atoms: C_11  and  O_12
REMARK    4  A    between atoms: O_12  and  C_13
REMARK    5  A    between atoms: C_13  and  C_14
REMARK    6  A    between atoms: C_20  and  C_21
REMARK    7  A    between atoms: C_21  and  C_22
REMARK    8  A    between atoms: C_22  and  N_23
REMARK    9  A    between atoms: C_27  and  C_28
REMARK                            x       y       z     vdW  Elec       q    Type
REMARK                         _______ _______ _______ _____ _____    ______ ____
ROOT
ATOM      1  C   UNL     1      45.102   8.854  11.867  0.00  0.00    +0.000 A 
ATOM      2  C   UNL     1      46.083   9.803  12.199  0.00  0.00    +0.000 A 
ATOM      3  C   UNL     1      47.203   9.449  12.956  0.00  0.00    +0.000 A 
ATOM      4  C   UNL     1      47.376   8.140  13.416  0.00  0.00    +0.000 A 
ATOM      5  C   UNL     1      46.374   7.211  13.087  0.00  0.00    +0.000 A 
ATOM      6  C   UNL     1      45.235   7.524  12.308  0.00  0.00    +0.000 A 
ENDROOT
BRANCH   4   7
ATOM      7  C   UNL     1      48.549   7.729  14.225  0.00  0.00    +0.000 A 
ATOM      8  C   UNL     1      49.786   8.397  14.123  0.00  0.00    +0.000 A 
ATOM      9  C   UNL     1      50.902   7.987  14.859  0.00  0.00    +0.000 A 
ATOM     10  C   UNL     1      50.798   6.919  15.744  0.00  0.00    +0.000 A 
ATOM     11  C   UNL     1      49.576   6.269  15.897  0.00  0.00    +0.000 A 
ATOM     12  C   UNL     1      48.479   6.649  15.118  0.00  0.00    +0.000 A 
BRANCH  11  13
ATOM     13  O   UNL     1      49.345   5.232  16.756  0.00  0.00    +0.000 OA
BRANCH  13  14
ATOM     14  C   UNL     1      47.986   4.779  16.825  0.00  0.00    +0.000 C 
BRANCH  14  15
ATOM     15  C   UNL     1      47.913   3.256  16.847  0.00  0.00    +0.000 C 
ATOM     16  F   UNL     1      46.836   2.784  17.512  0.00  0.00    +0.000 F 
ATOM     17  F   UNL     1      47.865   2.756  15.590  0.00  0.00    +0.000 F 
ATOM     18  F   UNL     1      49.013   2.733  17.442  0.00  0.00    +0.000 F 
ENDBRANCH  14  15
ENDBRANCH  13  14
ENDBRANCH  11  13
ENDBRANCH   4   7
BRANCH   1  20
ATOM     19  N   UNL     1      43.075   9.669  10.465  0.00  0.00    +0.000 NA
ATOM     20  C   UNL     1      43.990   9.297  11.074  0.00  0.00    +0.000 C 
ENDBRANCH   1  20
BRANCH   6  21
ATOM     21  C   UNL     1      44.199   6.448  11.972  0.00  0.00    +0.000 C 
BRANCH  21  22
ATOM     22  C   UNL     1      44.392   5.814  10.581  0.00  0.00    +0.000 C 
BRANCH  22  23
ATOM     23  N   UNL     1      44.289   4.354  10.554  0.00  0.00    +0.000 N 
ATOM     24  C   UNL     1      45.062   3.820   9.490  0.00  0.00    +0.000 A 
ATOM     25  C   UNL     1      45.089   2.440   9.306  0.00  0.00    +0.000 A 
ATOM     26  C   UNL     1      45.850   1.892   8.267  0.00  0.00    +0.000 A 
ATOM     27  C   UNL     1      46.572   2.738   7.428  0.00  0.00    +0.000 A 
ATOM     28  C   UNL     1      46.493   4.099   7.673  0.00  0.00    +0.000 A 
ATOM     29  N   UNL     1      45.771   4.642   8.684  0.00  0.00    +0.000 NA
ATOM     30  H   UNL     1      43.331   4.032  10.441  0.00  0.00    +0.000 HD
BRANCH  27  31
ATOM     31  C   UNL     1      47.383   2.273   6.285  0.00  0.00    +0.000 C 
ATOM     32  N   UNL     1      47.218   2.915   5.089  0.00  0.00    +0.000 N 
ATOM     33  O   UNL     1      48.156   1.326   6.392  0.00  0.00    +0.000 OA
ATOM     34  H   UNL     1      46.437   3.525   4.897  0.00  0.00    +0.000 HD
ATOM     35  H   UNL     1      47.714   2.525   4.295  0.00  0.00    +0.000 HD
ENDBRANCH  27  31
ENDBRANCH  22  23
ENDBRANCH  21  22
ENDBRANCH   6  21
TORSDOF 9
ENDMDL
MODEL 4
REMARK VINA RESULT:    -7.652      5.134      8.267
REMARK INTER + INTRA:         -12.696
REMARK INTER:                 -11.747
REMARK INTRA:                  -0.949
REMARK UNBOUND:                -1.018
REMARK  Name = 
REMARK  9 active torsions:
REMARK  status: ('A' for Active; 'I' for Inactive)
REMARK    1  A    between atoms: C_2  and  C_3
REMARK    2  A    between atoms: C_6  and  C_7
REMARK    3  A    between atoms: C_11  and  O_12
REMARK    4  A    between atoms: O_12  and  C_13
REMARK    5  A    between atoms: C_13  and  C_14
REMARK    6  A    between atoms: C_20  and  C_21
REMARK    7  A    between atoms: C_21  and  C_22
REMARK    8  A    between atoms: C_22  and  N_23
REMARK    9  A    between atoms: C_27  and  C_28
REMARK                            x       y       z     vdW  Elec       q    Type
REMARK                         _______ _______ _______ _____ _____    ______ ____
ROOT
ATOM      1  C   UNL     1      47.837   8.720  13.686  0.00  0.00    +0.000 A 
ATOM      2  C   UNL     1      46.855   8.991  12.719  0.00  0.00    +0.000 A 
ATOM      3  C   UNL     1      46.098   7.962  12.150  0.00  0.00    +0.000 A 
ATOM      4  C   UNL     1      46.304   6.629  12.519  0.00  0.00    +0.000 A 
ATOM      5  C   UNL     1      47.304   6.380  13.475  0.00  0.00    +0.000 A 
ATOM      6  C   UNL     1      48.078   7.393  14.088  0.00  0.00    +0.000 A 
ENDROOT
BRANCH   4   7
ATOM      7  C   UNL     1      45.525   5.512  11.934  0.00  0.00    +0.000 A 
ATOM      8  C   UNL     1      44.848   4.581  12.746  0.00  0.00    +0.000 A 
ATOM      9  C   UNL     1      44.143   3.506  12.195  0.00  0.00    +0.000 A 
ATOM     10  C   UNL     1      44.069   3.356  10.814  0.00  0.00    +0.000 A 
ATOM     11  C   UNL     1      44.691   4.287   9.987  0.00  0.00    +0.000 A 
ATOM     12  C   UNL     1      45.440   5.328  10.545  0.00  0.00    +0.000 A 
BRANCH  11  13
ATOM     13  O   UNL     1      44.661   4.264   8.622  0.00  0.00    +0.000 OA
BRANCH  13  14
ATOM     14  C   UNL     1      45.191   3.079   8.012  0.00  0.00    +0.000 C 
BRANCH  14  15
ATOM     15  C   UNL     1      46.486   3.376   7.264  0.00  0.00    +0.000 C 
ATOM     16  F   UNL     1      46.332   3.402   5.922  0.00  0.00    +0.000 F 
ATOM     17  F   UNL     1      46.996   4.573   7.637  0.00  0.00    +0.000 F 
ATOM     18  F   UNL     1      47.425   2.439   7.542  0.00  0.00    +0.000 F 
ENDBRANCH  14  15
ENDBRANCH  13  14
ENDBRANCH  11  13
ENDBRANCH   4   7
BRANCH   1  20
ATOM     19  N   UNL     1      49.176  10.717  14.663  0.00  0.00    +0.000 NA
ATOM     20  C   UNL     1      48.559   9.835  14.230  0.00  0.00    +0.000 C 
ENDBRANCH   1  20
BRANCH   6  21
ATOM     21  C   UNL     1      49.133   7.042  15.140  0.00  0.00    +0.000 C 
BRANCH  21  22
ATOM     22  C   UNL     1      48.541   6.687  16.518  0.00  0.00    +0.000 C 
BRANCH  22  23
ATOM     23  N   UNL     1      48.008   5.327  16.624  0.00  0.00    +0.000 N 
ATOM     24  C   UNL     1      49.045   4.409  16.935  0.00  0.00    +0.000 A 
ATOM     25  C   UNL     1      48.727   3.060  17.078  0.00  0.00    +0.000 A 
ATOM     26  C   UNL     1      49.734   2.139  17.392  0.00  0.00    +0.000 A 
ATOM     27  C   UNL     1      51.043   2.586  17.555  0.00  0.00    +0.000 A 
ATOM     28  C   UNL     1      51.280   3.940  17.394  0.00  0.00    +0.000 A 
ATOM     29  N   UNL     1      50.313   4.846  17.105  0.00  0.00    +0.000 NA
ATOM     30  H   UNL     1      47.558   5.016  15.767  0.00  0.00    +0.000 HD
BRANCH  27  31
ATOM     31  C   UNL     1      52.185   1.700  17.857  0.00  0.00    +0.000 C 
ATOM     32  N   UNL     1      52.280   0.529  17.156  0.00  0.00    +0.000 N 
ATOM     33  O   UNL     1      53.006   1.986  18.722  0.00  0.00    +0.000 OA
ATOM     34  H   UNL     1      51.514   0.148  16.619  0.00  0.00    +0.000 HD
ATOM     35  H   UNL     1      53.017  -0.107  17.438  0.00  0.00    +0.000 HD
ENDBRANCH  27  31
ENDBRANCH  22  23
ENDBRANCH  21  22
ENDBRANCH   6  21
TORSDOF 9
ENDMDL
MODEL 5
REMARK VINA RESULT:    -7.585      4.755      8.526
REMARK INTER + INTRA:         -12.594
REMARK INTER:                 -11.328
REMARK INTRA:                  -1.266
REMARK UNBOUND:                -1.018
REMARK  Name = 
REMARK  9 active torsions:
REMARK  status: ('A' for Active; 'I' for Inactive)
REMARK    1  A    between atoms: C_2  and  C_3
REMARK    2  A    between atoms: C_6  and  C_7
REMARK    3  A    between atoms: C_11  and  O_12
REMARK    4  A    between atoms: O_12  and  C_13
REMARK    5  A    between atoms: C_13  and  C_14
REMARK    6  A    between atoms: C_20  and  C_21
REMARK    7  A    between atoms: C_21  and  C_22
REMARK    8  A    between atoms: C_22  and  N_23
REMARK    9  A    between atoms: C_27  and  C_28
REMARK                            x       y       z     vdW  Elec       q    Type
REMARK                         _______ _______ _______ _____ _____    ______ ____
ROOT
ATOM      1  C   UNL     1      47.514   9.483  12.026  0.00  0.00    +0.000 A 
ATOM      2  C   UNL     1      48.058   8.194  12.141  0.00  0.00    +0.000 A 
ATOM      3  C   UNL     1      47.248   7.058  12.058  0.00  0.00    +0.000 A 
ATOM      4  C   UNL     1      45.867   7.172  11.871  0.00  0.00    +0.000 A 
ATOM      5  C   UNL     1      45.342   8.472  11.778  0.00  0.00    +0.000 A 
ATOM      6  C   UNL     1      46.129   9.646  11.836  0.00  0.00    +0.000 A 
ENDROOT
BRANCH   4   7
ATOM      7  C   UNL     1      44.976   5.990  11.785  0.00  0.00    +0.000 A 
ATOM      8  C   UNL     1      44.037   5.699  12.794  0.00  0.00    +0.000 A 
ATOM      9  C   UNL     1      43.222   4.565  12.731  0.00  0.00    +0.000 A 
ATOM     10  C   UNL     1      43.301   3.711  11.636  0.00  0.00    +0.000 A 
ATOM     11  C   UNL     1      44.189   3.998  10.603  0.00  0.00    +0.000 A 
ATOM     12  C   UNL     1      45.039   5.103  10.698  0.00  0.00    +0.000 A 
BRANCH  11  13
ATOM     13  O   UNL     1      44.332   3.254   9.466  0.00  0.00    +0.000 OA
BRANCH  13  14
ATOM     14  C   UNL     1      44.688   3.989   8.287  0.00  0.00    +0.000 C 
BRANCH  14  15
ATOM     15  C   UNL     1      45.947   3.420   7.641  0.00  0.00    +0.000 C 
ATOM     16  F   UNL     1      46.977   4.294   7.623  0.00  0.00    +0.000 F 
ATOM     17  F   UNL     1      46.367   2.312   8.296  0.00  0.00    +0.000 F 
ATOM     18  F   UNL     1      45.704   3.058   6.358  0.00  0.00    +0.000 F 
ENDBRANCH  14  15
ENDBRANCH  13  14
ENDBRANCH  11  13
ENDBRANCH   4   7
BRANCH   1  20
ATOM     19  N   UNL     1      49.135  11.508  12.138  0.00  0.00    +0.000 NA
ATOM     20  C   UNL     1      48.418  10.596  12.107  0.00  0.00    +0.000 C 
ENDBRANCH   1  20
BRANCH   6  21
ATOM     21  C   UNL     1      45.483  11.028  11.702  0.00  0.00    +0.000 C 
BRANCH  21  22
ATOM     22  C   UNL     1      44.017  10.983  11.230  0.00  0.00    +0.000 C 
BRANCH  22  23
ATOM     23  N   UNL     1      43.116  11.891  11.943  0.00  0.00    +0.000 N 
ATOM     24  C   UNL     1      41.778  11.421  11.871  0.00  0.00    +0.000 A 
ATOM     25  C   UNL     1      40.774  12.157  12.496  0.00  0.00    +0.000 A 
ATOM     26  C   UNL     1      39.449  11.710  12.443  0.00  0.00    +0.000 A 
ATOM     27  C   UNL     1      39.152  10.530  11.762  0.00  0.00    +0.000 A 
ATOM     28  C   UNL     1      40.203   9.857  11.165  0.00  0.00    +0.000 A 
ATOM     29  N   UNL     1      41.494  10.271  11.220  0.00  0.00    +0.000 NA
ATOM     30  H   UNL     1      43.140  12.836  11.570  0.00  0.00    +0.000 HD
BRANCH  27  31
ATOM     31  C   UNL     1      37.789   9.982  11.618  0.00  0.00    +0.000 C 
ATOM     32  N   UNL     1      36.822  10.814  11.124  0.00  0.00    +0.000 N 
ATOM     33  O   UNL     1      37.522   8.833  11.954  0.00  0.00    +0.000 OA
ATOM     34  H   UNL     1      36.938  11.815  11.063  0.00  0.00    +0.000 HD
ATOM     35  H   UNL     1      35.875  10.450  11.117  0.00  0.00    +0.000 HD
ENDBRANCH  27  31
ENDBRANCH  22  23
ENDBRANCH  21  22
ENDBRANCH   6  21
TORSDOF 9
ENDMDL
MODEL 6
REMARK VINA RESULT:    -7.427      5.452      8.046
REMARK INTER + INTRA:         -12.352
REMARK INTER:                 -10.626
REMARK INTRA:                  -1.726
REMARK UNBOUND:                -1.018
REMARK  Name = 
REMARK  9 active torsions:
REMARK  status: ('A' for Active; 'I' for Inactive)
REMARK    1  A    between atoms: C_2  and  C_3
REMARK    2  A    between atoms: C_6  and  C_7
REMARK    3  A    between atoms: C_11  and  O_12
REMARK    4  A    between atoms: O_12  and  C_13
REMARK    5  A    between atoms: C_13  and  C_14
REMARK    6  A    between atoms: C_20  and  C_21
REMARK    7  A    between atoms: C_21  and  C_22
REMARK    8  A    between atoms: C_22  and  N_23
REMARK    9  A    between atoms: C_27  and  C_28
REMARK                            x       y       z     vdW  Elec       q    Type
REMARK                         _______ _______ _______ _____ _____    ______ ____
ROOT
ATOM      1  C   UNL     1      49.623   8.977  13.850  0.00  0.00    +0.000 A 
ATOM      2  C   UNL     1      49.800   8.307  12.629  0.00  0.00    +0.000 A 
ATOM      3  C   UNL     1      48.926   7.292  12.228  0.00  0.00    +0.000 A 
ATOM      4  C   UNL     1      47.854   6.905  13.037  0.00  0.00    +0.000 A 
ATOM      5  C   UNL     1      47.706   7.577  14.263  0.00  0.00    +0.000 A 
ATOM      6  C   UNL     1      48.557   8.622  14.696  0.00  0.00    +0.000 A 
ENDROOT
BRANCH   4   7
ATOM      7  C   UNL     1      46.910   5.830  12.648  0.00  0.00    +0.000 A 
ATOM      8  C   UNL     1      46.701   4.701  13.465  0.00  0.00    +0.000 A 
ATOM      9  C   UNL     1      45.839   3.670  13.082  0.00  0.00    +0.000 A 
ATOM     10  C   UNL     1      45.136   3.759  11.885  0.00  0.00    +0.000 A 
ATOM     11  C   UNL     1      45.290   4.884  11.079  0.00  0.00    +0.000 A 
ATOM     12  C   UNL     1      46.195   5.886  11.442  0.00  0.00    +0.000 A 
BRANCH  11  13
ATOM     13  O   UNL     1      44.630   5.099   9.902  0.00  0.00    +0.000 OA
BRANCH  13  14
ATOM     14  C   UNL     1      44.390   3.930   9.106  0.00  0.00    +0.000 C 
BRANCH  14  15
ATOM     15  C   UNL     1      45.575   3.630   8.194  0.00  0.00    +0.000 C 
ATOM     16  F   UNL     1      46.463   4.645   8.125  0.00  0.00    +0.000 F 
ATOM     17  F   UNL     1      46.244   2.533   8.618  0.00  0.00    +0.000 F 
ATOM     18  F   UNL     1      45.154   3.378   6.931  0.00  0.00    +0.000 F 
ENDBRANCH  14  15
ENDBRANCH  13  14
ENDBRANCH  11  13
ENDBRANCH   4   7
BRANCH   1  20
ATOM     19  N   UNL     1      51.329  10.851  14.412  0.00  0.00    +0.000 NA
ATOM     20  C   UNL     1      50.556  10.017  14.179  0.00  0.00    +0.000 C 
ENDBRANCH   1  20
BRANCH   6  21
ATOM     21  C   UNL     1      48.314   9.322  16.037  0.00  0.00    +0.000 C 
BRANCH  21  22
ATOM     22  C   UNL     1      48.843   8.535  17.252  0.00  0.00    +0.000 C 
BRANCH  22  23
ATOM     23  N   UNL     1      47.909   7.548  17.797  0.00  0.00    +0.000 N 
ATOM     24  C   UNL     1      48.420   6.234  17.631  0.00  0.00    +0.000 A 
ATOM     25  C   UNL     1      47.667   5.158  18.093  0.00  0.00    +0.000 A 
ATOM     26  C   UNL     1      48.155   3.854  17.944  0.00  0.00    +0.000 A 
ATOM     27  C   UNL     1      49.391   3.651  17.334  0.00  0.00    +0.000 A 
ATOM     28  C   UNL     1      50.078   4.771  16.898  0.00  0.00    +0.000 A 
ATOM     29  N   UNL     1      49.625   6.041  17.048  0.00  0.00    +0.000 NA
ATOM     30  H   UNL     1      46.995   7.591  17.355  0.00  0.00    +0.000 HD
BRANCH  27  31
ATOM     31  C   UNL     1      49.987   2.321  17.099  0.00  0.00    +0.000 C 
ATOM     32  N   UNL     1      50.978   1.913  17.949  0.00  0.00    +0.000 N 
ATOM     33  O   UNL     1      49.629   1.616  16.161  0.00  0.00    +0.000 OA
ATOM     34  H   UNL     1      51.460   2.545  18.571  0.00  0.00    +0.000 HD
ATOM     35  H   UNL     1      51.437   1.039  17.719  0.00  0.00    +0.000 HD
ENDBRANCH  27  31
ENDBRANCH  22  23
ENDBRANCH  21  22
ENDBRANCH   6  21
TORSDOF 9
ENDMDL
MODEL 7
REMARK VINA RESULT:    -7.062      5.189      8.375
REMARK INTER + INTRA:         -11.796
REMARK INTER:                 -10.199
REMARK INTRA:                  -1.597
REMARK UNBOUND:                -1.018
REMARK  Name = 
REMARK  9 active torsions:
REMARK  status: ('A' for Active; 'I' for Inactive)
REMARK    1  A    between atoms: C_2  and  C_3
REMARK    2  A    between atoms: C_6  and  C_7
REMARK    3  A    between atoms: C_11  and  O_12
REMARK    4  A    between atoms: O_12  and  C_13
REMARK    5  A    between atoms: C_13  and  C_14
REMARK    6  A    between atoms: C_20  and  C_21
REMARK    7  A    between atoms: C_21  and  C_22
REMARK    8  A    between atoms: C_22  and  N_23
REMARK    9  A    between atoms: C_27  and  C_28
REMARK                            x       y       z     vdW  Elec       q    Type
REMARK                         _______ _______ _______ _____ _____    ______ ____
ROOT
ATOM      1  C   UNL     1      49.579   9.597  12.544  0.00  0.00    +0.000 A 
ATOM      2  C   UNL     1      48.360   9.631  11.849  0.00  0.00    +0.000 A 
ATOM      3  C   UNL     1      47.513   8.519  11.820  0.00  0.00    +0.000 A 
ATOM      4  C   UNL     1      47.861   7.333  12.473  0.00  0.00    +0.000 A 
ATOM      5  C   UNL     1      49.095   7.315  13.148  0.00  0.00    +0.000 A 
ATOM      6  C   UNL     1      49.970   8.425  13.217  0.00  0.00    +0.000 A 
ENDROOT
BRANCH   4   7
ATOM      7  C   UNL     1      46.992   6.132  12.459  0.00  0.00    +0.000 A 
ATOM      8  C   UNL     1      46.960   5.233  13.544  0.00  0.00    +0.000 A 
ATOM      9  C   UNL     1      46.168   4.081  13.516  0.00  0.00    +0.000 A 
ATOM     10  C   UNL     1      45.360   3.818  12.415  0.00  0.00    +0.000 A 
ATOM     11  C   UNL     1      45.339   4.713  11.348  0.00  0.00    +0.000 A 
ATOM     12  C   UNL     1      46.174   5.833  11.359  0.00  0.00    +0.000 A 
BRANCH  11  13
ATOM     13  O   UNL     1      44.564   4.579  10.231  0.00  0.00    +0.000 OA
BRANCH  13  14
ATOM     14  C   UNL     1      45.274   4.565   8.985  0.00  0.00    +0.000 C 
BRANCH  14  15
ATOM     15  C   UNL     1      45.300   3.166   8.379  0.00  0.00    +0.000 C 
ATOM     16  F   UNL     1      45.925   2.259   9.161  0.00  0.00    +0.000 F 
ATOM     17  F   UNL     1      44.044   2.713   8.157  0.00  0.00    +0.000 F 
ATOM     18  F   UNL     1      45.939   3.174   7.184  0.00  0.00    +0.000 F 
ENDBRANCH  14  15
ENDBRANCH  13  14
ENDBRANCH  11  13
ENDBRANCH   4   7
BRANCH   1  20
ATOM     19  N   UNL     1      50.999  11.770  12.533  0.00  0.00    +0.000 NA
ATOM     20  C   UNL     1      50.382  10.787  12.537  0.00  0.00    +0.000 C 
ENDBRANCH   1  20
BRANCH   6  21
ATOM     21  C   UNL     1      51.287   8.333  13.994  0.00  0.00    +0.000 C 
BRANCH  21  22
ATOM     22  C   UNL     1      51.100   8.230  15.520  0.00  0.00    +0.000 C 
BRANCH  22  23
ATOM     23  N   UNL     1      51.758   7.079  16.142  0.00  0.00    +0.000 N 
ATOM     24  C   UNL     1      50.793   6.151  16.615  0.00  0.00    +0.000 A 
ATOM     25  C   UNL     1      51.232   4.985  17.238  0.00  0.00    +0.000 A 
ATOM     26  C   UNL     1      50.298   4.054  17.707  0.00  0.00    +0.000 A 
ATOM     27  C   UNL     1      48.938   4.308  17.544  0.00  0.00    +0.000 A 
ATOM     28  C   UNL     1      48.580   5.489  16.917  0.00  0.00    +0.000 A 
ATOM     29  N   UNL     1      49.474   6.394  16.445  0.00  0.00    +0.000 NA
ATOM     30  H   UNL     1      52.352   7.344  16.923  0.00  0.00    +0.000 HD
BRANCH  27  31
ATOM     31  C   UNL     1      47.868   3.411  18.025  0.00  0.00    +0.000 C 
ATOM     32  N   UNL     1      48.055   2.794  19.231  0.00  0.00    +0.000 N 
ATOM     33  O   UNL     1      46.860   3.202  17.358  0.00  0.00    +0.000 OA
ATOM     34  H   UNL     1      48.952   2.749  19.691  0.00  0.00    +0.000 HD
ATOM     35  H   UNL     1      47.353   2.114  19.503  0.00  0.00    +0.000 HD
ENDBRANCH  27  31
ENDBRANCH  22  23
ENDBRANCH  21  22
ENDBRANCH   6  21
TORSDOF 9
ENDMDL
MODEL 8
REMARK VINA RESULT:    -6.936      5.866      8.296
REMARK INTER + INTRA:         -11.603
REMARK INTER:                  -9.751
REMARK INTRA:                  -1.852
REMARK UNBOUND:                -1.018
REMARK  Name = 
REMARK  9 active torsions:
REMARK  status: ('A' for Active; 'I' for Inactive)
REMARK    1  A    between atoms: C_2  and  C_3
REMARK    2  A    between atoms: C_6  and  C_7
REMARK    3  A    between atoms: C_11  and  O_12
REMARK    4  A    between atoms: O_12  and  C_13
REMARK    5  A    between atoms: C_13  and  C_14
REMARK    6  A    between atoms: C_20  and  C_21
REMARK    7  A    between atoms: C_21  and  C_22
REMARK    8  A    between atoms: C_22  and  N_23
REMARK    9  A    between atoms: C_27  and  C_28
REMARK                            x       y       z     vdW  Elec       q    Type
REMARK                         _______ _______ _______ _____ _____    ______ ____
ROOT
ATOM      1  C   UNL     1      48.922  10.769  18.123  0.00  0.00    +0.000 A 
ATOM      2  C   UNL     1      49.551  11.293  16.982  0.00  0.00    +0.000 A 
ATOM      3  C   UNL     1      49.447  10.655  15.743  0.00  0.00    +0.000 A 
ATOM      4  C   UNL     1      48.722   9.467  15.604  0.00  0.00    +0.000 A 
ATOM      5  C   UNL     1      48.116   8.952  16.762  0.00  0.00    +0.000 A 
ATOM      6  C   UNL     1      48.181   9.576  18.030  0.00  0.00    +0.000 A 
ENDROOT
BRANCH   4   7
ATOM      7  C   UNL     1      48.595   8.760  14.307  0.00  0.00    +0.000 A 
ATOM      8  C   UNL     1      48.742   9.437  13.080  0.00  0.00    +0.000 A 
ATOM      9  C   UNL     1      48.586   8.779  11.857  0.00  0.00    +0.000 A 
ATOM     10  C   UNL     1      48.314   7.414  11.830  0.00  0.00    +0.000 A 
ATOM     11  C   UNL     1      48.208   6.711  13.028  0.00  0.00    +0.000 A 
ATOM     12  C   UNL     1      48.310   7.387  14.247  0.00  0.00    +0.000 A 
BRANCH  11  13
ATOM     13  O   UNL     1      47.976   5.369  13.128  0.00  0.00    +0.000 OA
BRANCH  13  14
ATOM     14  C   UNL     1      46.800   4.997  13.860  0.00  0.00    +0.000 C 
BRANCH  14  15
ATOM     15  C   UNL     1      45.545   5.163  13.011  0.00  0.00    +0.000 C 
ATOM     16  F   UNL     1      45.789   5.104  11.684  0.00  0.00    +0.000 F 
ATOM     17  F   UNL     1      44.636   4.202  13.300  0.00  0.00    +0.000 F 
ATOM     18  F   UNL     1      44.954   6.357  13.259  0.00  0.00    +0.000 F 
ENDBRANCH  14  15
ENDBRANCH  13  14
ENDBRANCH  11  13
ENDBRANCH   4   7
BRANCH   1  20
ATOM     19  N   UNL     1      49.173  12.113  20.329  0.00  0.00    +0.000 NA
ATOM     20  C   UNL     1      49.066  11.494  19.354  0.00  0.00    +0.000 C 
ENDBRANCH   1  20
BRANCH   6  21
ATOM     21  C   UNL     1      47.471   8.963  19.240  0.00  0.00    +0.000 C 
BRANCH  21  22
ATOM     22  C   UNL     1      47.839   7.488  19.492  0.00  0.00    +0.000 C 
BRANCH  22  23
ATOM     23  N   UNL     1      46.994   6.517  18.793  0.00  0.00    +0.000 N 
ATOM     24  C   UNL     1      47.768   5.415  18.345  0.00  0.00    +0.000 A 
ATOM     25  C   UNL     1      47.132   4.384  17.657  0.00  0.00    +0.000 A 
ATOM     26  C   UNL     1      47.875   3.285  17.211  0.00  0.00    +0.000 A 
ATOM     27  C   UNL     1      49.245   3.238  17.463  0.00  0.00    +0.000 A 
ATOM     28  C   UNL     1      49.804   4.302  18.150  0.00  0.00    +0.000 A 
ATOM     29  N   UNL     1      49.094   5.366  18.600  0.00  0.00    +0.000 NA
ATOM     30  H   UNL     1      46.521   6.920  17.989  0.00  0.00    +0.000 HD
BRANCH  27  31
ATOM     31  C   UNL     1      50.129   2.144  17.014  0.00  0.00    +0.000 C 
ATOM     32  N   UNL     1      51.189   1.818  17.815  0.00  0.00    +0.000 N 
ATOM     33  O   UNL     1      49.940   1.564  15.949  0.00  0.00    +0.000 OA
ATOM     34  H   UNL     1      51.515   2.414  18.561  0.00  0.00    +0.000 HD
ATOM     35  H   UNL     1      51.835   1.128  17.449  0.00  0.00    +0.000 HD
ENDBRANCH  27  31
ENDBRANCH  22  23
ENDBRANCH  21  22
ENDBRANCH   6  21
TORSDOF 9
ENDMDL
MODEL 9
REMARK VINA RESULT:    -6.820      4.655      8.157
REMARK INTER + INTRA:         -11.427
REMARK INTER:                 -10.145
REMARK INTRA:                  -1.281
REMARK UNBOUND:                -1.018
REMARK  Name = 
REMARK  9 active torsions:
REMARK  status: ('A' for Active; 'I' for Inactive)
REMARK    1  A    between atoms: C_2  and  C_3
REMARK    2  A    between atoms: C_6  and  C_7
REMARK    3  A    between atoms: C_11  and  O_12
REMARK    4  A    between atoms: O_12  and  C_13
REMARK    5  A    between atoms: C_13  and  C_14
REMARK    6  A    between atoms: C_20  and  C_21
REMARK    7  A    between atoms: C_21  and  C_22
REMARK    8  A    between atoms: C_22  and  N_23
REMARK    9  A    between atoms: C_27  and  C_28
REMARK                            x       y       z     vdW  Elec       q    Type
REMARK                         _______ _______ _______ _____ _____    ______ ____
ROOT
ATOM      1  C   UNL     1      49.490   9.998  11.584  0.00  0.00    +0.000 A 
ATOM      2  C   UNL     1      49.948   8.673  11.507  0.00  0.00    +0.000 A 
ATOM      3  C   UNL     1      49.068   7.596  11.639  0.00  0.00    +0.000 A 
ATOM      4  C   UNL     1      47.704   7.805  11.865  0.00  0.00    +0.000 A 
ATOM      5  C   UNL     1      47.271   9.139  11.956  0.00  0.00    +0.000 A 
ATOM      6  C   UNL     1      48.125  10.257  11.809  0.00  0.00    +0.000 A 
ENDROOT
BRANCH   4   7
ATOM      7  C   UNL     1      46.741   6.687  12.016  0.00  0.00    +0.000 A 
ATOM      8  C   UNL     1      46.352   6.216  13.285  0.00  0.00    +0.000 A 
ATOM      9  C   UNL     1      45.473   5.139  13.428  0.00  0.00    +0.000 A 
ATOM     10  C   UNL     1      44.932   4.527  12.301  0.00  0.00    +0.000 A 
ATOM     11  C   UNL     1      45.266   5.001  11.035  0.00  0.00    +0.000 A 
ATOM     12  C   UNL     1      46.187   6.043  10.899  0.00  0.00    +0.000 A 
BRANCH  11  13
ATOM     13  O   UNL     1      44.775   4.505   9.861  0.00  0.00    +0.000 OA
BRANCH  13  14
ATOM     14  C   UNL     1      45.611   4.698   8.711  0.00  0.00    +0.000 C 
BRANCH  14  15
ATOM     15  C   UNL     1      45.567   3.486   7.787  0.00  0.00    +0.000 C 
ATOM     16  F   UNL     1      44.311   3.117   7.452  0.00  0.00    +0.000 F 
ATOM     17  F   UNL     1      46.238   3.732   6.637  0.00  0.00    +0.000 F 
ATOM     18  F   UNL     1      46.157   2.416   8.372  0.00  0.00    +0.000 F 
ENDBRANCH  14  15
ENDBRANCH  13  14
ENDBRANCH  11  13
ENDBRANCH   4   7
BRANCH   1  20
ATOM     19  N   UNL     1      51.255  11.874  11.262  0.00  0.00    +0.000 NA
ATOM     20  C   UNL     1      50.458  11.047  11.423  0.00  0.00    +0.000 C 
ENDBRANCH   1  20
BRANCH   6  21
ATOM     21  C   UNL     1      47.571  11.681  11.898  0.00  0.00    +0.000 C 
BRANCH  21  22
ATOM     22  C   UNL     1      46.033  11.753  11.833  0.00  0.00    +0.000 C 
BRANCH  22  23
ATOM     23  N   UNL     1      45.473  11.682  10.482  0.00  0.00    +0.000 N 
ATOM     24  C   UNL     1      44.081  11.410  10.535  0.00  0.00    +0.000 A 
ATOM     25  C   UNL     1      43.371  11.307   9.340  0.00  0.00    +0.000 A 
ATOM     26  C   UNL     1      41.997  11.045   9.369  0.00  0.00    +0.000 A 
ATOM     27  C   UNL     1      41.355  10.889  10.597  0.00  0.00    +0.000 A 
ATOM     28  C   UNL     1      42.129  11.003  11.739  0.00  0.00    +0.000 A 
ATOM     29  N   UNL     1      43.459  11.270  11.726  0.00  0.00    +0.000 NA
ATOM     30  H   UNL     1      45.915  10.964   9.914  0.00  0.00    +0.000 HD
BRANCH  27  31
ATOM     31  C   UNL     1      39.919  10.582  10.743  0.00  0.00    +0.000 C 
ATOM     32  N   UNL     1      39.053  11.172   9.865  0.00  0.00    +0.000 N 
ATOM     33  O   UNL     1      39.509   9.847  11.636  0.00  0.00    +0.000 OA
ATOM     34  H   UNL     1      39.312  11.953   9.280  0.00  0.00    +0.000 HD
ATOM     35  H   UNL     1      38.065  11.022  10.036  0.00  0.00    +0.000 HD
ENDBRANCH  27  31
ENDBRANCH  22  23
ENDBRANCH  21  22
ENDBRANCH   6  21
TORSDOF 9
ENDMDL
