MODEL 1
REMARK VINA RESULT:    -8.903      0.000      0.000
REMARK INTER + INTRA:         -12.858
REMARK INTER:                 -12.026
REMARK INTRA:                  -0.832
REMARK UNBOUND:                -0.832
REMARK  Name = 
REMARK  7 active torsions:
REMARK  status: ('A' for Active; 'I' for Inactive)
REMARK    1  A    between atoms: C_1  and  C_2
REMARK    2  A    between atoms: C_2  and  N_3
REMARK    3  A    between atoms: C_2  and  C_16
REMARK    4  A    between atoms: C_4  and  C_6
REMARK    5  A    between atoms: C_19  and  C_20
REMARK    6  A    between atoms: C_20  and  O_21
REMARK    7  A    between atoms: O_21  and  C_22
REMARK                            x       y       z     vdW  Elec       q    Type
REMARK                         _______ _______ _______ _____ _____    ______ ____
ROOT
ATOM      1  C   UNL     1      45.486   8.729  12.830  0.00  0.00    +0.000 C 
ATOM      2  C   UNL     1      46.509   7.590  12.750  0.00  0.00    +0.000 C 
ENDROOT
BRANCH   2   3
ATOM      3  C   UNL     1      45.894   6.383  12.055  0.00  0.00    +0.000 A 
ATOM      4  C   UNL     1      45.956   6.243  10.662  0.00  0.00    +0.000 A 
ATOM      5  C   UNL     1      45.446   5.098  10.039  0.00  0.00    +0.000 A 
ATOM      6  C   UNL     1      44.857   4.075  10.795  0.00  0.00    +0.000 A 
ATOM      7  C   UNL     1      44.784   4.217  12.185  0.00  0.00    +0.000 A 
ATOM      8  C   UNL     1      45.291   5.359  12.806  0.00  0.00    +0.000 A 
BRANCH   6   9
ATOM      9  C   UNL     1      44.315   2.832  10.132  0.00  0.00    +0.000 C 
BRANCH   9  10
ATOM     10  O   UNL     1      44.310   3.016   8.714  0.00  0.00    +0.000 OA
BRANCH  10  11
ATOM     11  C   UNL     1      45.419   2.451   8.121  0.00  0.00    +0.000 A 
ATOM     12  C   UNL     1      46.100   3.204   7.180  0.00  0.00    +0.000 A 
ATOM     13  C   UNL     1      47.224   2.644   6.584  0.00  0.00    +0.000 A 
ATOM     14  C   UNL     1      47.601   1.370   6.965  0.00  0.00    +0.000 A 
ATOM     15  N   UNL     1      46.921   0.655   7.882  0.00  0.00    +0.000 NA
ATOM     16  N   UNL     1      45.820   1.204   8.464  0.00  0.00    +0.000 NA
ENDBRANCH  10  11
ENDBRANCH   9  10
ENDBRANCH   6   9
ENDBRANCH   2   3
BRANCH   2  17
ATOM     17  N   UNL     1      47.000   7.171  14.056  0.00  0.00    +0.000 N 
ATOM     18  C   UNL     1      48.235   6.613  14.263  0.00  0.00    +0.000 C 
ATOM     19  O   UNL     1      49.057   6.467  13.364  0.00  0.00    +0.000 OA
ATOM     20  H   UNL     1      46.280   6.983  14.749  0.00  0.00    +0.000 HD
BRANCH  18  21
ATOM     21  C   UNL     1      48.561   6.255  15.649  0.00  0.00    +0.000 A 
ATOM     22  C   UNL     1      49.295   7.137  16.430  0.00  0.00    +0.000 A 
ATOM     23  S   UNL     1      49.588   6.571  18.011  0.00  0.00    +0.000 S 
ATOM     24  C   UNL     1      48.778   5.109  17.695  0.00  0.00    +0.000 A 
ATOM     25  N   UNL     1      48.700   4.132  18.640  0.00  0.00    +0.000 NA
ATOM     26  C   UNL     1      48.083   3.066  18.255  0.00  0.00    +0.000 A 
ATOM     27  N   UNL     1      47.520   2.894  17.017  0.00  0.00    +0.000 N 
ATOM     28  C   UNL     1      47.540   3.866  16.045  0.00  0.00    +0.000 A 
ATOM     29  O   UNL     1      46.974   3.709  14.969  0.00  0.00    +0.000 OA
ATOM     30  C   UNL     1      48.256   5.070  16.415  0.00  0.00    +0.000 A 
ATOM     31  H   UNL     1      47.031   2.042  16.784  0.00  0.00    +0.000 HD
ENDBRANCH  18  21
ENDBRANCH   2  17
TORSDOF 6
ENDMDL
MODEL 2
REMARK VINA RESULT:    -8.436      1.892      2.559
REMARK INTER + INTRA:         -12.227
REMARK INTER:                 -11.155
REMARK INTRA:                  -1.072
REMARK UNBOUND:                -0.832
REMARK  Name = 
REMARK  7 active torsions:
REMARK  status: ('A' for Active; 'I' for Inactive)
REMARK    1  A    between atoms: C_1  and  C_2
REMARK    2  A    between atoms: C_2  and  N_3
REMARK    3  A    between atoms: C_2  and  C_16
REMARK    4  A    between atoms: C_4  and  C_6
REMARK    5  A    between atoms: C_19  and  C_20
REMARK    6  A    between atoms: C_20  and  O_21
REMARK    7  A    between atoms: O_21  and  C_22
REMARK                            x       y       z     vdW  Elec       q    Type
REMARK                         _______ _______ _______ _____ _____    ______ ____
ROOT
ATOM      1  C   UNL     1      47.233   8.406  13.504  0.00  0.00    +0.000 C 
ATOM      2  C   UNL     1      47.707   6.948  13.558  0.00  0.00    +0.000 C 
ENDROOT
BRANCH   2   3
ATOM      3  C   UNL     1      46.819   6.078  12.678  0.00  0.00    +0.000 A 
ATOM      4  C   UNL     1      46.327   4.850  13.141  0.00  0.00    +0.000 A 
ATOM      5  C   UNL     1      45.459   4.089  12.351  0.00  0.00    +0.000 A 
ATOM      6  C   UNL     1      45.071   4.536  11.080  0.00  0.00    +0.000 A 
ATOM      7  C   UNL     1      45.569   5.757  10.611  0.00  0.00    +0.000 A 
ATOM      8  C   UNL     1      46.436   6.515  11.398  0.00  0.00    +0.000 A 
BRANCH   6   9
ATOM      9  C   UNL     1      44.125   3.727  10.226  0.00  0.00    +0.000 C 
BRANCH   9  10
ATOM     10  O   UNL     1      44.393   3.989   8.846  0.00  0.00    +0.000 OA
BRANCH  10  11
ATOM     11  C   UNL     1      45.304   3.094   8.324  0.00  0.00    +0.000 A 
ATOM     12  C   UNL     1      46.162   3.550   7.338  0.00  0.00    +0.000 A 
ATOM     13  C   UNL     1      47.088   2.656   6.812  0.00  0.00    +0.000 A 
ATOM     14  C   UNL     1      47.102   1.364   7.305  0.00  0.00    +0.000 A 
ATOM     15  N   UNL     1      46.256   0.943   8.264  0.00  0.00    +0.000 NA
ATOM     16  N   UNL     1      45.349   1.818   8.776  0.00  0.00    +0.000 NA
ENDBRANCH  10  11
ENDBRANCH   9  10
ENDBRANCH   6   9
ENDBRANCH   2   3
BRANCH   2  17
ATOM     17  N   UNL     1      47.704   6.397  14.906  0.00  0.00    +0.000 N 
ATOM     18  C   UNL     1      48.833   6.249  15.670  0.00  0.00    +0.000 C 
ATOM     19  O   UNL     1      49.941   6.620  15.298  0.00  0.00    +0.000 OA
ATOM     20  H   UNL     1      46.906   5.810  15.132  0.00  0.00    +0.000 HD
BRANCH  18  21
ATOM     21  C   UNL     1      48.638   5.678  17.009  0.00  0.00    +0.000 A 
ATOM     22  C   UNL     1      48.797   4.312  17.201  0.00  0.00    +0.000 A 
ATOM     23  S   UNL     1      48.534   3.812  18.810  0.00  0.00    +0.000 S 
ATOM     24  C   UNL     1      48.160   5.398  19.299  0.00  0.00    +0.000 A 
ATOM     25  N   UNL     1      47.792   5.667  20.581  0.00  0.00    +0.000 NA
ATOM     26  C   UNL     1      47.508   6.906  20.805  0.00  0.00    +0.000 A 
ATOM     27  N   UNL     1      47.576   7.904  19.867  0.00  0.00    +0.000 N 
ATOM     28  C   UNL     1      47.980   7.687  18.571  0.00  0.00    +0.000 A 
ATOM     29  O   UNL     1      48.093   8.608  17.772  0.00  0.00    +0.000 OA
ATOM     30  C   UNL     1      48.274   6.302  18.258  0.00  0.00    +0.000 A 
ATOM     31  H   UNL     1      47.362   8.860  20.112  0.00  0.00    +0.000 HD
ENDBRANCH  18  21
ENDBRANCH   2  17
TORSDOF 6
ENDMDL
MODEL 3
REMARK VINA RESULT:    -8.250      1.797      2.180
REMARK INTER + INTRA:         -11.976
REMARK INTER:                 -10.973
REMARK INTRA:                  -1.003
REMARK UNBOUND:                -0.832
REMARK  Name = 
REMARK  7 active torsions:
REMARK  status: ('A' for Active; 'I' for Inactive)
REMARK    1  A    between atoms: C_1  and  C_2
REMARK    2  A    between atoms: C_2  and  N_3
REMARK    3  A    between atoms: C_2  and  C_16
REMARK    4  A    between atoms: C_4  and  C_6
REMARK    5  A    between atoms: C_19  and  C_20
REMARK    6  A    between atoms: C_20  and  O_21
REMARK    7  A    between atoms: O_21  and  C_22
REMARK                            x       y       z     vdW  Elec       q    Type
REMARK                         _______ _______ _______ _____ _____    ______ ____
ROOT
ATOM      1  C   UNL     1      48.421   8.441  12.843  0.00  0.00    +0.000 C 
ATOM      2  C   UNL     1      48.302   7.032  13.437  0.00  0.00    +0.000 C 
ENDROOT
BRANCH   2   3
ATOM      3  C   UNL     1      47.116   6.304  12.819  0.00  0.00    +0.000 A 
ATOM      4  C   UNL     1      46.382   6.878  11.772  0.00  0.00    +0.000 A 
ATOM      5  C   UNL     1      45.336   6.173  11.167  0.00  0.00    +0.000 A 
ATOM      6  C   UNL     1      44.999   4.883  11.600  0.00  0.00    +0.000 A 
ATOM      7  C   UNL     1      45.723   4.311  12.652  0.00  0.00    +0.000 A 
ATOM      8  C   UNL     1      46.765   5.015  13.256  0.00  0.00    +0.000 A 
BRANCH   6   9
ATOM      9  C   UNL     1      43.880   4.110  10.944  0.00  0.00    +0.000 C 
BRANCH   9  10
ATOM     10  O   UNL     1      43.833   4.436   9.552  0.00  0.00    +0.000 OA
BRANCH  10  11
ATOM     11  C   UNL     1      44.816   3.782   8.841  0.00  0.00    +0.000 A 
ATOM     12  C   UNL     1      44.959   2.420   9.041  0.00  0.00    +0.000 A 
ATOM     13  C   UNL     1      45.944   1.753   8.321  0.00  0.00    +0.000 A 
ATOM     14  C   UNL     1      46.722   2.485   7.444  0.00  0.00    +0.000 A 
ATOM     15  N   UNL     1      46.566   3.811   7.267  0.00  0.00    +0.000 NA
ATOM     16  N   UNL     1      45.603   4.463   7.973  0.00  0.00    +0.000 NA
ENDBRANCH  10  11
ENDBRANCH   9  10
ENDBRANCH   6   9
ENDBRANCH   2   3
BRANCH   2  17
ATOM     17  N   UNL     1      48.139   7.036  14.884  0.00  0.00    +0.000 N 
ATOM     18  C   UNL     1      49.157   6.783  15.766  0.00  0.00    +0.000 C 
ATOM     19  O   UNL     1      50.313   6.582  15.407  0.00  0.00    +0.000 OA
ATOM     20  H   UNL     1      47.188   6.888  15.213  0.00  0.00    +0.000 HD
BRANCH  18  21
ATOM     21  C   UNL     1      48.808   6.833  17.192  0.00  0.00    +0.000 A 
ATOM     22  C   UNL     1      48.407   8.035  17.758  0.00  0.00    +0.000 A 
ATOM     23  S   UNL     1      48.040   7.922  19.419  0.00  0.00    +0.000 S 
ATOM     24  C   UNL     1      48.442   6.269  19.449  0.00  0.00    +0.000 A 
ATOM     25  N   UNL     1      48.389   5.557  20.608  0.00  0.00    +0.000 NA
ATOM     26  C   UNL     1      48.748   4.322  20.491  0.00  0.00    +0.000 A 
ATOM     27  N   UNL     1      49.139   3.730  19.318  0.00  0.00    +0.000 N 
ATOM     28  C   UNL     1      49.170   4.399  18.117  0.00  0.00    +0.000 A 
ATOM     29  O   UNL     1      49.462   3.828  17.073  0.00  0.00    +0.000 OA
ATOM     30  C   UNL     1      48.812   5.801  18.201  0.00  0.00    +0.000 A 
ATOM     31  H   UNL     1      49.387   2.753  19.289  0.00  0.00    +0.000 HD
ENDBRANCH  18  21
ENDBRANCH   2  17
TORSDOF 6
ENDMDL
MODEL 4
REMARK VINA RESULT:    -7.938      2.595      3.581
REMARK INTER + INTRA:         -11.555
REMARK INTER:                 -10.423
REMARK INTRA:                  -1.132
REMARK UNBOUND:                -0.832
REMARK  Name = 
REMARK  7 active torsions:
REMARK  status: ('A' for Active; 'I' for Inactive)
REMARK    1  A    between atoms: C_1  and  C_2
REMARK    2  A    between atoms: C_2  and  N_3
REMARK    3  A    between atoms: C_2  and  C_16
REMARK    4  A    between atoms: C_4  and  C_6
REMARK    5  A    between atoms: C_19  and  C_20
REMARK    6  A    between atoms: C_20  and  O_21
REMARK    7  A    between atoms: O_21  and  C_22
REMARK                            x       y       z     vdW  Elec       q    Type
REMARK                         _______ _______ _______ _____ _____    ______ ____
ROOT
ATOM      1  C   UNL     1      49.059   8.009  12.697  0.00  0.00    +0.000 C 
ATOM      2  C   UNL     1      48.616   6.813  13.548  0.00  0.00    +0.000 C 
ENDROOT
BRANCH   2   3
ATOM      3  C   UNL     1      47.404   6.142  12.916  0.00  0.00    +0.000 A 
ATOM      4  C   UNL     1      46.806   6.670  11.765  0.00  0.00    +0.000 A 
ATOM      5  C   UNL     1      45.734   6.011  11.154  0.00  0.00    +0.000 A 
ATOM      6  C   UNL     1      45.234   4.814  11.686  0.00  0.00    +0.000 A 
ATOM      7  C   UNL     1      45.823   4.289  12.842  0.00  0.00    +0.000 A 
ATOM      8  C   UNL     1      46.891   4.948  13.451  0.00  0.00    +0.000 A 
BRANCH   6   9
ATOM      9  C   UNL     1      44.086   4.089  11.026  0.00  0.00    +0.000 C 
BRANCH   9  10
ATOM     10  O   UNL     1      44.038   4.441   9.641  0.00  0.00    +0.000 OA
BRANCH  10  11
ATOM     11  C   UNL     1      44.940   3.711   8.896  0.00  0.00    +0.000 A 
ATOM     12  C   UNL     1      45.009   2.348   9.123  0.00  0.00    +0.000 A 
ATOM     13  C   UNL     1      45.911   1.604   8.370  0.00  0.00    +0.000 A 
ATOM     14  C   UNL     1      46.685   2.266   7.435  0.00  0.00    +0.000 A 
ATOM     15  N   UNL     1      46.601   3.595   7.233  0.00  0.00    +0.000 NA
ATOM     16  N   UNL     1      45.719   4.322   7.972  0.00  0.00    +0.000 NA
ENDBRANCH  10  11
ENDBRANCH   9  10
ENDBRANCH   6   9
ENDBRANCH   2   3
BRANCH   2  17
ATOM     17  N   UNL     1      48.280   7.181  14.917  0.00  0.00    +0.000 N 
ATOM     18  C   UNL     1      49.009   6.792  16.011  0.00  0.00    +0.000 C 
ATOM     19  O   UNL     1      50.044   6.141  15.923  0.00  0.00    +0.000 OA
ATOM     20  H   UNL     1      47.308   7.438  15.070  0.00  0.00    +0.000 HD
BRANCH  18  21
ATOM     21  C   UNL     1      48.521   7.261  17.315  0.00  0.00    +0.000 A 
ATOM     22  C   UNL     1      48.340   6.351  18.347  0.00  0.00    +0.000 A 
ATOM     23  S   UNL     1      47.768   7.057  19.789  0.00  0.00    +0.000 S 
ATOM     24  C   UNL     1      47.705   8.598  19.074  0.00  0.00    +0.000 A 
ATOM     25  N   UNL     1      47.247   9.675  19.769  0.00  0.00    +0.000 NA
ATOM     26  C   UNL     1      47.225  10.775  19.094  0.00  0.00    +0.000 A 
ATOM     27  N   UNL     1      47.637  10.901  17.792  0.00  0.00    +0.000 N 
ATOM     28  C   UNL     1      48.143   9.850  17.064  0.00  0.00    +0.000 A 
ATOM     29  O   UNL     1      48.563  10.005  15.923  0.00  0.00    +0.000 OA
ATOM     30  C   UNL     1      48.152   8.582  17.765  0.00  0.00    +0.000 A 
ATOM     31  H   UNL     1      47.616  11.796  17.327  0.00  0.00    +0.000 HD
ENDBRANCH  18  21
ENDBRANCH   2  17
TORSDOF 6
ENDMDL
MODEL 5
REMARK VINA RESULT:    -7.702      3.253      7.729
REMARK INTER + INTRA:         -11.236
REMARK INTER:                 -10.061
REMARK INTRA:                  -1.175
REMARK UNBOUND:                -0.832
REMARK  Name = 
REMARK  7 active torsions:
REMARK  status: ('A' for Active; 'I' for Inactive)
REMARK    1  A    between atoms: C_1  and  C_2
REMARK    2  A    between atoms: C_2  and  N_3
REMARK    3  A    between atoms: C_2  and  C_16
REMARK    4  A    between atoms: C_4  and  C_6
REMARK    5  A    between atoms: C_19  and  C_20
REMARK    6  A    between atoms: C_20  and  O_21
REMARK    7  A    between atoms: O_21  and  C_22
REMARK                            x       y       z     vdW  Elec       q    Type
REMARK                         _______ _______ _______ _____ _____    ______ ____
ROOT
ATOM      1  C   UNL     1      49.726   8.252  11.465  0.00  0.00    +0.000 C 
ATOM      2  C   UNL     1      48.519   7.835  12.315  0.00  0.00    +0.000 C 
ENDROOT
BRANCH   2   3
ATOM      3  C   UNL     1      48.985   7.346  13.680  0.00  0.00    +0.000 A 
ATOM      4  C   UNL     1      50.245   7.700  14.181  0.00  0.00    +0.000 A 
ATOM      5  C   UNL     1      50.638   7.301  15.464  0.00  0.00    +0.000 A 
ATOM      6  C   UNL     1      49.782   6.534  16.267  0.00  0.00    +0.000 A 
ATOM      7  C   UNL     1      48.528   6.170  15.765  0.00  0.00    +0.000 A 
ATOM      8  C   UNL     1      48.137   6.567  14.486  0.00  0.00    +0.000 A 
BRANCH   6   9
ATOM      9  C   UNL     1      50.193   6.110  17.656  0.00  0.00    +0.000 C 
BRANCH   9  10
ATOM     10  O   UNL     1      49.471   4.931  18.023  0.00  0.00    +0.000 OA
BRANCH  10  11
ATOM     11  C   UNL     1      50.178   3.785  17.725  0.00  0.00    +0.000 A 
ATOM     12  C   UNL     1      51.473   3.685  18.202  0.00  0.00    +0.000 A 
ATOM     13  C   UNL     1      52.190   2.528  17.911  0.00  0.00    +0.000 A 
ATOM     14  C   UNL     1      51.568   1.544  17.167  0.00  0.00    +0.000 A 
ATOM     15  N   UNL     1      50.307   1.665  16.712  0.00  0.00    +0.000 NA
ATOM     16  N   UNL     1      49.607   2.797  16.995  0.00  0.00    +0.000 NA
ENDBRANCH  10  11
ENDBRANCH   9  10
ENDBRANCH   6   9
ENDBRANCH   2   3
BRANCH   2  17
ATOM     17  N   UNL     1      47.721   6.786  11.696  0.00  0.00    +0.000 N 
ATOM     18  C   UNL     1      46.363   6.864  11.521  0.00  0.00    +0.000 C 
ATOM     19  O   UNL     1      45.710   7.856  11.827  0.00  0.00    +0.000 OA
ATOM     20  H   UNL     1      48.137   5.858  11.712  0.00  0.00    +0.000 HD
BRANCH  18  21
ATOM     21  C   UNL     1      45.726   5.710  10.874  0.00  0.00    +0.000 A 
ATOM     22  C   UNL     1      45.839   5.545   9.501  0.00  0.00    +0.000 A 
ATOM     23  S   UNL     1      45.041   4.160   8.909  0.00  0.00    +0.000 S 
ATOM     24  C   UNL     1      44.482   3.753  10.463  0.00  0.00    +0.000 A 
ATOM     25  N   UNL     1      43.681   2.670  10.658  0.00  0.00    +0.000 NA
ATOM     26  C   UNL     1      43.307   2.496  11.881  0.00  0.00    +0.000 A 
ATOM     27  N   UNL     1      43.676   3.297  12.931  0.00  0.00    +0.000 N 
ATOM     28  C   UNL     1      44.513   4.378  12.789  0.00  0.00    +0.000 A 
ATOM     29  O   UNL     1      44.878   5.039  13.755  0.00  0.00    +0.000 OA
ATOM     30  C   UNL     1      44.931   4.639  11.426  0.00  0.00    +0.000 A 
ATOM     31  H   UNL     1      43.367   3.095  13.870  0.00  0.00    +0.000 HD
ENDBRANCH  18  21
ENDBRANCH   2  17
TORSDOF 6
ENDMDL
MODEL 6
REMARK VINA RESULT:    -7.690      2.849      4.155
REMARK INTER + INTRA:         -11.219
REMARK INTER:                 -10.092
REMARK INTRA:                  -1.127
REMARK UNBOUND:                -0.832
REMARK  Name = 
REMARK  7 active torsions:
REMARK  status: ('A' for Active; 'I' for Inactive)
REMARK    1  A    between atoms: C_1  and  C_2
REMARK    2  A    between atoms: C_2  and  N_3
REMARK    3  A    between atoms: C_2  and  C_16
REMARK    4  A    between atoms: C_4  and  C_6
REMARK    5  A    between atoms: C_19  and  C_20
REMARK    6  A    between atoms: C_20  and  O_21
REMARK    7  A    between atoms: O_21  and  C_22
REMARK                            x       y       z     vdW  Elec       q    Type
REMARK                         _______ _______ _______ _____ _____    ______ ____
ROOT
ATOM      1  C   UNL     1      47.187   4.720  15.096  0.00  0.00    +0.000 C 
ATOM      2  C   UNL     1      46.810   5.754  14.028  0.00  0.00    +0.000 C 
ENDROOT
BRANCH   2   3
ATOM      3  C   UNL     1      46.190   5.059  12.824  0.00  0.00    +0.000 A 
ATOM      4  C   UNL     1      45.797   3.715  12.889  0.00  0.00    +0.000 A 
ATOM      5  C   UNL     1      45.169   3.104  11.799  0.00  0.00    +0.000 A 
ATOM      6  C   UNL     1      44.926   3.822  10.619  0.00  0.00    +0.000 A 
ATOM      7  C   UNL     1      45.326   5.161  10.547  0.00  0.00    +0.000 A 
ATOM      8  C   UNL     1      45.954   5.769  11.634  0.00  0.00    +0.000 A 
BRANCH   6   9
ATOM      9  C   UNL     1      44.237   3.174   9.443  0.00  0.00    +0.000 C 
BRANCH   9  10
ATOM     10  O   UNL     1      44.833   1.899   9.189  0.00  0.00    +0.000 OA
BRANCH  10  11
ATOM     11  C   UNL     1      45.809   1.976   8.217  0.00  0.00    +0.000 A 
ATOM     12  C   UNL     1      45.872   3.129   7.456  0.00  0.00    +0.000 A 
ATOM     13  C   UNL     1      46.859   3.216   6.480  0.00  0.00    +0.000 A 
ATOM     14  C   UNL     1      47.722   2.148   6.326  0.00  0.00    +0.000 A 
ATOM     15  N   UNL     1      47.640   1.034   7.078  0.00  0.00    +0.000 NA
ATOM     16  N   UNL     1      46.674   0.949   8.032  0.00  0.00    +0.000 NA
ENDBRANCH  10  11
ENDBRANCH   9  10
ENDBRANCH   6   9
ENDBRANCH   2   3
BRANCH   2  17
ATOM     17  N   UNL     1      47.946   6.544  13.573  0.00  0.00    +0.000 N 
ATOM     18  C   UNL     1      47.917   7.907  13.430  0.00  0.00    +0.000 C 
ATOM     19  O   UNL     1      46.941   8.586  13.728  0.00  0.00    +0.000 OA
ATOM     20  H   UNL     1      48.642   6.032  13.036  0.00  0.00    +0.000 HD
BRANCH  18  21
ATOM     21  C   UNL     1      49.159   8.536  12.962  0.00  0.00    +0.000 A 
ATOM     22  C   UNL     1      49.130   9.367  11.851  0.00  0.00    +0.000 A 
ATOM     23  S   UNL     1      50.653  10.013  11.438  0.00  0.00    +0.000 S 
ATOM     24  C   UNL     1      51.413   9.172  12.707  0.00  0.00    +0.000 A 
ATOM     25  N   UNL     1      52.759   9.252  12.892  0.00  0.00    +0.000 NA
ATOM     26  C   UNL     1      53.204   8.540  13.873  0.00  0.00    +0.000 A 
ATOM     27  N   UNL     1      52.424   7.770  14.697  0.00  0.00    +0.000 N 
ATOM     28  C   UNL     1      51.058   7.690  14.571  0.00  0.00    +0.000 A 
ATOM     29  O   UNL     1      50.378   7.044  15.361  0.00  0.00    +0.000 OA
ATOM     30  C   UNL     1      50.511   8.441  13.459  0.00  0.00    +0.000 A 
ATOM     31  H   UNL     1      52.832   7.253  15.461  0.00  0.00    +0.000 HD
ENDBRANCH  18  21
ENDBRANCH   2  17
TORSDOF 6
ENDMDL
MODEL 7
REMARK VINA RESULT:    -7.660      2.631      4.376
REMARK INTER + INTRA:         -11.179
REMARK INTER:                  -9.919
REMARK INTRA:                  -1.260
REMARK UNBOUND:                -0.832
REMARK  Name = 
REMARK  7 active torsions:
REMARK  status: ('A' for Active; 'I' for Inactive)
REMARK    1  A    between atoms: C_1  and  C_2
REMARK    2  A    between atoms: C_2  and  N_3
REMARK    3  A    between atoms: C_2  and  C_16
REMARK    4  A    between atoms: C_4  and  C_6
REMARK    5  A    between atoms: C_19  and  C_20
REMARK    6  A    between atoms: C_20  and  O_21
REMARK    7  A    between atoms: O_21  and  C_22
REMARK                            x       y       z     vdW  Elec       q    Type
REMARK                         _______ _______ _______ _____ _____    ______ ____
ROOT
ATOM      1  C   UNL     1      47.241   4.386  15.233  0.00  0.00    +0.000 C 
ATOM      2  C   UNL     1      46.929   5.586  14.331  0.00  0.00    +0.000 C 
ENDROOT
BRANCH   2   3
ATOM      3  C   UNL     1      46.207   5.120  13.073  0.00  0.00    +0.000 A 
ATOM      4  C   UNL     1      46.140   5.936  11.936  0.00  0.00    +0.000 A 
ATOM      5  C   UNL     1      45.532   5.473  10.764  0.00  0.00    +0.000 A 
ATOM      6  C   UNL     1      44.973   4.189  10.708  0.00  0.00    +0.000 A 
ATOM      7  C   UNL     1      45.029   3.376  11.845  0.00  0.00    +0.000 A 
ATOM      8  C   UNL     1      45.634   3.838  13.014  0.00  0.00    +0.000 A 
BRANCH   6   9
ATOM      9  C   UNL     1      44.326   3.677   9.444  0.00  0.00    +0.000 C 
BRANCH   9  10
ATOM     10  O   UNL     1      44.694   2.310   9.244  0.00  0.00    +0.000 OA
BRANCH  10  11
ATOM     11  C   UNL     1      45.670   2.179   8.279  0.00  0.00    +0.000 A 
ATOM     12  C   UNL     1      45.918   3.268   7.462  0.00  0.00    +0.000 A 
ATOM     13  C   UNL     1      46.907   3.146   6.492  0.00  0.00    +0.000 A 
ATOM     14  C   UNL     1      47.587   1.946   6.399  0.00  0.00    +0.000 A 
ATOM     15  N   UNL     1      47.326   0.899   7.204  0.00  0.00    +0.000 NA
ATOM     16  N   UNL     1      46.358   1.019   8.152  0.00  0.00    +0.000 NA
ENDBRANCH  10  11
ENDBRANCH   9  10
ENDBRANCH   6   9
ENDBRANCH   2   3
BRANCH   2  17
ATOM     17  N   UNL     1      48.120   6.325  13.933  0.00  0.00    +0.000 N 
ATOM     18  C   UNL     1      48.734   7.263  14.723  0.00  0.00    +0.000 C 
ATOM     19  O   UNL     1      48.358   7.521  15.861  0.00  0.00    +0.000 OA
ATOM     20  H   UNL     1      48.280   6.381  12.930  0.00  0.00    +0.000 HD
BRANCH  18  21
ATOM     21  C   UNL     1      49.927   7.905  14.158  0.00  0.00    +0.000 A 
ATOM     22  C   UNL     1      51.154   7.748  14.787  0.00  0.00    +0.000 A 
ATOM     23  S   UNL     1      52.434   8.558  14.006  0.00  0.00    +0.000 S 
ATOM     24  C   UNL     1      51.386   9.181  12.819  0.00  0.00    +0.000 A 
ATOM     25  N   UNL     1      51.846  10.014  11.847  0.00  0.00    +0.000 NA
ATOM     26  C   UNL     1      50.938  10.435  11.031  0.00  0.00    +0.000 A 
ATOM     27  N   UNL     1      49.614  10.083  11.089  0.00  0.00    +0.000 N 
ATOM     28  C   UNL     1      49.111   9.215  12.030  0.00  0.00    +0.000 A 
ATOM     29  O   UNL     1      47.936   8.869  12.019  0.00  0.00    +0.000 OA
ATOM     30  C   UNL     1      50.085   8.744  12.994  0.00  0.00    +0.000 A 
ATOM     31  H   UNL     1      48.956  10.429  10.407  0.00  0.00    +0.000 HD
ENDBRANCH  18  21
ENDBRANCH   2  17
TORSDOF 6
ENDMDL
MODEL 8
REMARK VINA RESULT:    -7.134      3.903      6.119
REMARK INTER + INTRA:         -10.468
REMARK INTER:                  -9.492
REMARK INTRA:                  -0.976
REMARK UNBOUND:                -0.832
REMARK  Name = 
REMARK  7 active torsions:
REMARK  status: ('A' for Active; 'I' for Inactive)
REMARK    1  A    between atoms: C_1  and  C_2
REMARK    2  A    between atoms: C_2  and  N_3
REMARK    3  A    between atoms: C_2  and  C_16
REMARK    4  A    between atoms: C_4  and  C_6
REMARK    5  A    between atoms: C_19  and  C_20
REMARK    6  A    between atoms: C_20  and  O_21
REMARK    7  A    between atoms: O_21  and  C_22
REMARK                            x       y       z     vdW  Elec       q    Type
REMARK                         _______ _______ _______ _____ _____    ______ ____
ROOT
ATOM      1  C   UNL     1      46.584   3.547  13.079  0.00  0.00    +0.000 C 
ATOM      2  C   UNL     1      46.310   4.637  14.122  0.00  0.00    +0.000 C 
ENDROOT
BRANCH   2   3
ATOM      3  C   UNL     1      46.076   5.974  13.432  0.00  0.00    +0.000 A 
ATOM      4  C   UNL     1      44.937   6.190  12.645  0.00  0.00    +0.000 A 
ATOM      5  C   UNL     1      44.698   7.442  12.069  0.00  0.00    +0.000 A 
ATOM      6  C   UNL     1      45.596   8.501  12.262  0.00  0.00    +0.000 A 
ATOM      7  C   UNL     1      46.740   8.285  13.038  0.00  0.00    +0.000 A 
ATOM      8  C   UNL     1      46.979   7.036  13.611  0.00  0.00    +0.000 A 
BRANCH   6   9
ATOM      9  C   UNL     1      45.339   9.859  11.654  0.00  0.00    +0.000 C 
BRANCH   9  10
ATOM     10  O   UNL     1      44.308   9.749  10.669  0.00  0.00    +0.000 OA
BRANCH  10  11
ATOM     11  C   UNL     1      43.160  10.407  11.056  0.00  0.00    +0.000 A 
ATOM     12  C   UNL     1      41.948   9.885  10.639  0.00  0.00    +0.000 A 
ATOM     13  C   UNL     1      40.785  10.539  11.032  0.00  0.00    +0.000 A 
ATOM     14  C   UNL     1      40.904  11.670  11.818  0.00  0.00    +0.000 A 
ATOM     15  N   UNL     1      42.095  12.160  12.209  0.00  0.00    +0.000 NA
ATOM     16  N   UNL     1      43.233  11.521  11.823  0.00  0.00    +0.000 NA
ENDBRANCH  10  11
ENDBRANCH   9  10
ENDBRANCH   6   9
ENDBRANCH   2   3
BRANCH   2  17
ATOM     17  N   UNL     1      47.396   4.795  15.081  0.00  0.00    +0.000 N 
ATOM     18  C   UNL     1      47.414   4.202  16.316  0.00  0.00    +0.000 C 
ATOM     19  O   UNL     1      46.533   3.440  16.700  0.00  0.00    +0.000 OA
ATOM     20  H   UNL     1      47.969   5.625  14.952  0.00  0.00    +0.000 HD
BRANCH  18  21
ATOM     21  C   UNL     1      48.594   4.472  17.148  0.00  0.00    +0.000 A 
ATOM     22  C   UNL     1      48.687   5.674  17.835  0.00  0.00    +0.000 A 
ATOM     23  S   UNL     1      50.117   5.831  18.750  0.00  0.00    +0.000 S 
ATOM     24  C   UNL     1      50.680   4.313  18.229  0.00  0.00    +0.000 A 
ATOM     25  N   UNL     1      51.898   3.847  18.618  0.00  0.00    +0.000 NA
ATOM     26  C   UNL     1      52.211   2.696  18.124  0.00  0.00    +0.000 A 
ATOM     27  N   UNL     1      51.408   1.959  17.292  0.00  0.00    +0.000 N 
ATOM     28  C   UNL     1      50.155   2.372  16.904  0.00  0.00    +0.000 A 
ATOM     29  O   UNL     1      49.433   1.664  16.211  0.00  0.00    +0.000 OA
ATOM     30  C   UNL     1      49.772   3.678  17.401  0.00  0.00    +0.000 A 
ATOM     31  H   UNL     1      51.701   1.054  16.957  0.00  0.00    +0.000 HD
ENDBRANCH  18  21
ENDBRANCH   2  17
TORSDOF 6
ENDMDL
MODEL 9
REMARK VINA RESULT:    -7.117      4.289      9.773
REMARK INTER + INTRA:         -10.446
REMARK INTER:                  -9.167
REMARK INTRA:                  -1.279
REMARK UNBOUND:                -0.832
REMARK  Name = 
REMARK  7 active torsions:
REMARK  status: ('A' for Active; 'I' for Inactive)
REMARK    1  A    between atoms: C_1  and  C_2
REMARK    2  A    between atoms: C_2  and  N_3
REMARK    3  A    between atoms: C_2  and  C_16
REMARK    4  A    between atoms: C_4  and  C_6
REMARK    5  A    between atoms: C_19  and  C_20
REMARK    6  A    between atoms: C_20  and  O_21
REMARK    7  A    between atoms: O_21  and  C_22
REMARK                            x       y       z     vdW  Elec       q    Type
REMARK                         _______ _______ _______ _____ _____    ______ ____
ROOT
ATOM      1  C   UNL     1      47.985   3.106  16.792  0.00  0.00    +0.000 C 
ATOM      2  C   UNL     1      48.143   4.535  16.258  0.00  0.00    +0.000 C 
ENDROOT
BRANCH   2   3
ATOM      3  C   UNL     1      47.985   5.538  17.393  0.00  0.00    +0.000 A 
ATOM      4  C   UNL     1      47.115   5.286  18.462  0.00  0.00    +0.000 A 
ATOM      5  C   UNL     1      47.026   6.182  19.532  0.00  0.00    +0.000 A 
ATOM      6  C   UNL     1      47.799   7.351  19.552  0.00  0.00    +0.000 A 
ATOM      7  C   UNL     1      48.661   7.611  18.481  0.00  0.00    +0.000 A 
ATOM      8  C   UNL     1      48.749   6.718  17.413  0.00  0.00    +0.000 A 
BRANCH   6   9
ATOM      9  C   UNL     1      47.719   8.318  20.709  0.00  0.00    +0.000 C 
BRANCH   9  10
ATOM     10  O   UNL     1      48.102   9.621  20.263  0.00  0.00    +0.000 OA
BRANCH  10  11
ATOM     11  C   UNL     1      47.040  10.501  20.283  0.00  0.00    +0.000 A 
ATOM     12  C   UNL     1      46.018  10.257  21.183  0.00  0.00    +0.000 A 
ATOM     13  C   UNL     1      44.948  11.145  21.213  0.00  0.00    +0.000 A 
ATOM     14  C   UNL     1      44.966  12.221  20.346  0.00  0.00    +0.000 A 
ATOM     15  N   UNL     1      45.972  12.436  19.477  0.00  0.00    +0.000 NA
ATOM     16  N   UNL     1      47.018  11.567  19.447  0.00  0.00    +0.000 NA
ENDBRANCH  10  11
ENDBRANCH   9  10
ENDBRANCH   6   9
ENDBRANCH   2   3
BRANCH   2  17
ATOM     17  N   UNL     1      47.182   4.863  15.213  0.00  0.00    +0.000 N 
ATOM     18  C   UNL     1      47.480   5.632  14.118  0.00  0.00    +0.000 C 
ATOM     19  O   UNL     1      48.604   6.067  13.898  0.00  0.00    +0.000 OA
ATOM     20  H   UNL     1      46.205   4.800  15.489  0.00  0.00    +0.000 HD
BRANCH  18  21
ATOM     21  C   UNL     1      46.384   5.855  13.166  0.00  0.00    +0.000 A 
ATOM     22  C   UNL     1      46.063   7.150  12.782  0.00  0.00    +0.000 A 
ATOM     23  S   UNL     1      44.769   7.235  11.676  0.00  0.00    +0.000 S 
ATOM     24  C   UNL     1      44.565   5.546  11.701  0.00  0.00    +0.000 A 
ATOM     25  N   UNL     1      43.571   4.950  10.988  0.00  0.00    +0.000 NA
ATOM     26  C   UNL     1      43.514   3.667  11.123  0.00  0.00    +0.000 A 
ATOM     27  N   UNL     1      44.373   2.924  11.893  0.00  0.00    +0.000 N 
ATOM     28  C   UNL     1      45.413   3.479  12.599  0.00  0.00    +0.000 A 
ATOM     29  O   UNL     1      46.204   2.784  13.228  0.00  0.00    +0.000 OA
ATOM     30  C   UNL     1      45.497   4.923  12.511  0.00  0.00    +0.000 A 
ATOM     31  H   UNL     1      44.289   1.920  11.939  0.00  0.00    +0.000 HD
ENDBRANCH  18  21
ENDBRANCH   2  17
TORSDOF 6
ENDMDL
