MODEL 1
REMARK VINA RESULT:    -8.567      0.000      0.000
REMARK INTER + INTRA:         -13.153
REMARK INTER:                 -12.323
REMARK INTRA:                  -0.830
REMARK UNBOUND:                -0.830
REMARK  Name = 
REMARK  8 active torsions:
REMARK  status: ('A' for Active; 'I' for Inactive)
REMARK    1  A    between atoms: N_1  and  C_2
REMARK    2  A    between atoms: C_2  and  C_3
REMARK    3  A    between atoms: C_2  and  C_24
REMARK    4  A    between atoms: C_3  and  C_4
REMARK    5  A    between atoms: C_7  and  C_8
REMARK    6  A    between atoms: C_8  and  N_9
REMARK    7  A    between atoms: C_10  and  C_12
REMARK    8  A    between atoms: C_24  and  C_26
REMARK                            x       y       z     vdW  Elec       q    Type
REMARK                         _______ _______ _______ _____ _____    ______ ____
ROOT
ATOM      1  C   UNL     1      45.709   4.834  12.013  0.00  0.00    +0.000 A 
ATOM      2  C   UNL     1      46.154   4.436  13.278  0.00  0.00    +0.000 A 
ATOM      3  C   UNL     1      47.103   5.191  13.974  0.00  0.00    +0.000 A 
ATOM      4  C   UNL     1      47.605   6.381  13.425  0.00  0.00    +0.000 A 
ATOM      5  C   UNL     1      47.153   6.782  12.162  0.00  0.00    +0.000 A 
ATOM      6  C   UNL     1      46.207   6.024  11.467  0.00  0.00    +0.000 A 
ENDROOT
BRANCH   1   7
ATOM      7  C   UNL     1      44.800   3.928  11.216  0.00  0.00    +0.000 C 
BRANCH   7   8
ATOM      8  C   UNL     1      44.835   4.013   9.680  0.00  0.00    +0.000 C 
BRANCH   8   9
ATOM      9  N   UNL     1      43.613   4.644   9.139  0.00  0.00    +0.000 NA
ATOM     10  H   UNL     1      43.257   5.325   9.807  0.00  0.00    +0.000 HD
ATOM     11  H   UNL     1      42.899   3.911   9.074  0.00  0.00    +0.000 HD
ENDBRANCH   8   9
BRANCH   8  12
ATOM     12  C   UNL     1      45.051   2.646   9.001  0.00  0.00    +0.000 C 
ATOM     13  O   UNL     1      44.446   1.635   9.367  0.00  0.00    +0.000 OA
BRANCH  12  14
ATOM     14  C   UNL     1      46.025   2.519   7.877  0.00  0.00    +0.000 A 
ATOM     15  C   UNL     1      46.230   3.489   6.892  0.00  0.00    +0.000 A 
ATOM     16  C   UNL     1      47.127   3.240   5.851  0.00  0.00    +0.000 A 
ATOM     17  C   UNL     1      47.822   2.043   5.845  0.00  0.00    +0.000 A 
ATOM     18  N   UNL     1      47.675   1.096   6.795  0.00  0.00    +0.000 NA
ATOM     19  C   UNL     1      46.777   1.351   7.782  0.00  0.00    +0.000 A 
ENDBRANCH  12  14
ENDBRANCH   8  12
ENDBRANCH   7   8
ENDBRANCH   1   7
BRANCH   4  20
ATOM     20  C   UNL     1      48.622   7.220  14.149  0.00  0.00    +0.000 C 
BRANCH  20  21
ATOM     21  N   UNL     1      48.348   7.293  15.561  0.00  0.00    +0.000 N 
ATOM     22  C   UNL     1      49.186   6.717  16.483  0.00  0.00    +0.000 C 
ATOM     23  O   UNL     1      50.207   6.119  16.172  0.00  0.00    +0.000 OA
ATOM     24  H   UNL     1      47.390   7.492  15.828  0.00  0.00    +0.000 HD
BRANCH  22  25
ATOM     25  C   UNL     1      48.807   6.932  17.884  0.00  0.00    +0.000 A 
ATOM     26  C   UNL     1      48.511   8.211  18.334  0.00  0.00    +0.000 A 
ATOM     27  S   UNL     1      48.026   8.259  19.969  0.00  0.00    +0.000 S 
ATOM     28  C   UNL     1      48.251   6.580  20.145  0.00  0.00    +0.000 A 
ATOM     29  N   UNL     1      48.043   5.966  21.341  0.00  0.00    +0.000 NA
ATOM     30  C   UNL     1      48.270   4.698  21.335  0.00  0.00    +0.000 A 
ATOM     31  N   UNL     1      48.694   3.982  20.245  0.00  0.00    +0.000 N 
ATOM     32  C   UNL     1      48.875   4.550  19.007  0.00  0.00    +0.000 A 
ATOM     33  O   UNL     1      49.167   3.867  18.034  0.00  0.00    +0.000 OA
ATOM     34  C   UNL     1      48.658   5.986  18.966  0.00  0.00    +0.000 A 
ATOM     35  H   UNL     1      48.847   2.986  20.303  0.00  0.00    +0.000 HD
ENDBRANCH  22  25
ENDBRANCH  20  21
ENDBRANCH   4  20
TORSDOF 8
ENDMDL
MODEL 2
REMARK VINA RESULT:    -8.406      1.408      2.122
REMARK INTER + INTRA:         -12.923
REMARK INTER:                 -11.928
REMARK INTRA:                  -0.994
REMARK UNBOUND:                -0.830
REMARK  Name = 
REMARK  8 active torsions:
REMARK  status: ('A' for Active; 'I' for Inactive)
REMARK    1  A    between atoms: N_1  and  C_2
REMARK    2  A    between atoms: C_2  and  C_3
REMARK    3  A    between atoms: C_2  and  C_24
REMARK    4  A    between atoms: C_3  and  C_4
REMARK    5  A    between atoms: C_7  and  C_8
REMARK    6  A    between atoms: C_8  and  N_9
REMARK    7  A    between atoms: C_10  and  C_12
REMARK    8  A    between atoms: C_24  and  C_26
REMARK                            x       y       z     vdW  Elec       q    Type
REMARK                         _______ _______ _______ _____ _____    ______ ____
ROOT
ATOM      1  C   UNL     1      45.580   4.650  12.074  0.00  0.00    +0.000 A 
ATOM      2  C   UNL     1      46.028   4.143  13.299  0.00  0.00    +0.000 A 
ATOM      3  C   UNL     1      46.968   4.843  14.062  0.00  0.00    +0.000 A 
ATOM      4  C   UNL     1      47.457   6.083  13.625  0.00  0.00    +0.000 A 
ATOM      5  C   UNL     1      47.003   6.592  12.403  0.00  0.00    +0.000 A 
ATOM      6  C   UNL     1      46.066   5.890  11.639  0.00  0.00    +0.000 A 
ENDROOT
BRANCH   1   7
ATOM      7  C   UNL     1      44.683   3.810  11.196  0.00  0.00    +0.000 C 
BRANCH   7   8
ATOM      8  C   UNL     1      44.812   3.941   9.668  0.00  0.00    +0.000 C 
BRANCH   8   9
ATOM      9  N   UNL     1      43.642   4.622   9.076  0.00  0.00    +0.000 NA
ATOM     10  H   UNL     1      43.896   5.573   8.817  0.00  0.00    +0.000 HD
ATOM     11  H   UNL     1      42.938   4.708   9.815  0.00  0.00    +0.000 HD
ENDBRANCH   8   9
BRANCH   8  12
ATOM     12  C   UNL     1      45.033   2.590   8.960  0.00  0.00    +0.000 C 
ATOM     13  O   UNL     1      44.420   1.573   9.293  0.00  0.00    +0.000 OA
BRANCH  12  14
ATOM     14  C   UNL     1      46.020   2.486   7.845  0.00  0.00    +0.000 A 
ATOM     15  C   UNL     1      46.209   3.459   6.860  0.00  0.00    +0.000 A 
ATOM     16  C   UNL     1      47.123   3.231   5.828  0.00  0.00    +0.000 A 
ATOM     17  C   UNL     1      47.850   2.053   5.833  0.00  0.00    +0.000 A 
ATOM     18  N   UNL     1      47.719   1.105   6.784  0.00  0.00    +0.000 NA
ATOM     19  C   UNL     1      46.805   1.338   7.762  0.00  0.00    +0.000 A 
ENDBRANCH  12  14
ENDBRANCH   8  12
ENDBRANCH   7   8
ENDBRANCH   1   7
BRANCH   4  20
ATOM     20  C   UNL     1      48.464   6.864  14.424  0.00  0.00    +0.000 C 
BRANCH  20  21
ATOM     21  N   UNL     1      48.147   6.863  15.830  0.00  0.00    +0.000 N 
ATOM     22  C   UNL     1      48.988   6.294  16.752  0.00  0.00    +0.000 C 
ATOM     23  O   UNL     1      50.048   5.762  16.448  0.00  0.00    +0.000 OA
ATOM     24  H   UNL     1      47.173   7.001  16.076  0.00  0.00    +0.000 HD
BRANCH  22  25
ATOM     25  C   UNL     1      48.560   6.430  18.149  0.00  0.00    +0.000 A 
ATOM     26  C   UNL     1      48.587   5.329  18.992  0.00  0.00    +0.000 A 
ATOM     27  S   UNL     1      48.120   5.689  20.593  0.00  0.00    +0.000 S 
ATOM     28  C   UNL     1      47.811   7.317  20.198  0.00  0.00    +0.000 A 
ATOM     29  N   UNL     1      47.336   8.186  21.129  0.00  0.00    +0.000 NA
ATOM     30  C   UNL     1      47.128   9.379  20.687  0.00  0.00    +0.000 A 
ATOM     31  N   UNL     1      47.344   9.786  19.395  0.00  0.00    +0.000 N 
ATOM     32  C   UNL     1      47.865   8.955  18.432  0.00  0.00    +0.000 A 
ATOM     33  O   UNL     1      48.130   9.373  17.312  0.00  0.00    +0.000 OA
ATOM     34  C   UNL     1      48.090   7.589  18.872  0.00  0.00    +0.000 A 
ATOM     35  H   UNL     1      47.170  10.738  19.113  0.00  0.00    +0.000 HD
ENDBRANCH  22  25
ENDBRANCH  20  21
ENDBRANCH   4  20
TORSDOF 8
ENDMDL
MODEL 3
REMARK VINA RESULT:    -8.024      2.241      2.703
REMARK INTER + INTRA:         -12.373
REMARK INTER:                 -11.365
REMARK INTRA:                  -1.008
REMARK UNBOUND:                -0.830
REMARK  Name = 
REMARK  8 active torsions:
REMARK  status: ('A' for Active; 'I' for Inactive)
REMARK    1  A    between atoms: N_1  and  C_2
REMARK    2  A    between atoms: C_2  and  C_3
REMARK    3  A    between atoms: C_2  and  C_24
REMARK    4  A    between atoms: C_3  and  C_4
REMARK    5  A    between atoms: C_7  and  C_8
REMARK    6  A    between atoms: C_8  and  N_9
REMARK    7  A    between atoms: C_10  and  C_12
REMARK    8  A    between atoms: C_24  and  C_26
REMARK                            x       y       z     vdW  Elec       q    Type
REMARK                         _______ _______ _______ _____ _____    ______ ____
ROOT
ATOM      1  C   UNL     1      45.894   4.854  12.243  0.00  0.00    +0.000 A 
ATOM      2  C   UNL     1      46.189   6.128  11.747  0.00  0.00    +0.000 A 
ATOM      3  C   UNL     1      46.977   7.019  12.483  0.00  0.00    +0.000 A 
ATOM      4  C   UNL     1      47.510   6.637  13.723  0.00  0.00    +0.000 A 
ATOM      5  C   UNL     1      47.220   5.359  14.216  0.00  0.00    +0.000 A 
ATOM      6  C   UNL     1      46.430   4.472  13.480  0.00  0.00    +0.000 A 
ENDROOT
BRANCH   1   7
ATOM      7  C   UNL     1      44.920   3.966  11.504  0.00  0.00    +0.000 C 
BRANCH   7   8
ATOM      8  C   UNL     1      44.795   4.117   9.978  0.00  0.00    +0.000 C 
BRANCH   8   9
ATOM      9  N   UNL     1      43.581   4.870   9.600  0.00  0.00    +0.000 NA
ATOM     10  H   UNL     1      42.758   4.294   9.764  0.00  0.00    +0.000 HD
ATOM     11  H   UNL     1      43.623   5.022   8.588  0.00  0.00    +0.000 HD
ENDBRANCH   8   9
BRANCH   8  12
ATOM     12  C   UNL     1      44.817   2.768   9.231  0.00  0.00    +0.000 C 
ATOM     13  O   UNL     1      44.057   1.845   9.535  0.00  0.00    +0.000 OA
BRANCH  12  14
ATOM     14  C   UNL     1      45.784   2.550   8.116  0.00  0.00    +0.000 A 
ATOM     15  C   UNL     1      46.066   3.486   7.116  0.00  0.00    +0.000 A 
ATOM     16  C   UNL     1      46.948   3.153   6.086  0.00  0.00    +0.000 A 
ATOM     17  C   UNL     1      47.553   1.908   6.105  0.00  0.00    +0.000 A 
ATOM     18  N   UNL     1      47.331   0.992   7.070  0.00  0.00    +0.000 NA
ATOM     19  C   UNL     1      46.449   1.329   8.046  0.00  0.00    +0.000 A 
ENDBRANCH  12  14
ENDBRANCH   8  12
ENDBRANCH   7   8
ENDBRANCH   1   7
BRANCH   4  20
ATOM     20  C   UNL     1      48.366   7.568  14.538  0.00  0.00    +0.000 C 
BRANCH  20  21
ATOM     21  N   UNL     1      49.516   6.895  15.085  0.00  0.00    +0.000 N 
ATOM     22  C   UNL     1      49.707   6.793  16.440  0.00  0.00    +0.000 C 
ATOM     23  O   UNL     1      48.926   7.255  17.260  0.00  0.00    +0.000 OA
ATOM     24  H   UNL     1      50.313   6.784  14.469  0.00  0.00    +0.000 HD
BRANCH  22  25
ATOM     25  C   UNL     1      50.890   6.022  16.842  0.00  0.00    +0.000 A 
ATOM     26  C   UNL     1      52.134   6.634  16.885  0.00  0.00    +0.000 A 
ATOM     27  S   UNL     1      53.377   5.606  17.439  0.00  0.00    +0.000 S 
ATOM     28  C   UNL     1      52.303   4.291  17.586  0.00  0.00    +0.000 A 
ATOM     29  N   UNL     1      52.743   3.068  17.985  0.00  0.00    +0.000 NA
ATOM     30  C   UNL     1      51.827   2.163  18.032  0.00  0.00    +0.000 A 
ATOM     31  N   UNL     1      50.509   2.362  17.710  0.00  0.00    +0.000 N 
ATOM     32  C   UNL     1      50.011   3.590  17.344  0.00  0.00    +0.000 A 
ATOM     33  O   UNL     1      48.813   3.755  17.150  0.00  0.00    +0.000 OA
ATOM     34  C   UNL     1      51.010   4.641  17.248  0.00  0.00    +0.000 A 
ATOM     35  H   UNL     1      49.838   1.613  17.775  0.00  0.00    +0.000 HD
ENDBRANCH  22  25
ENDBRANCH  20  21
ENDBRANCH   4  20
TORSDOF 8
ENDMDL
MODEL 4
REMARK VINA RESULT:    -7.997      2.509      3.313
REMARK INTER + INTRA:         -12.334
REMARK INTER:                 -10.948
REMARK INTRA:                  -1.386
REMARK UNBOUND:                -0.830
REMARK  Name = 
REMARK  8 active torsions:
REMARK  status: ('A' for Active; 'I' for Inactive)
REMARK    1  A    between atoms: N_1  and  C_2
REMARK    2  A    between atoms: C_2  and  C_3
REMARK    3  A    between atoms: C_2  and  C_24
REMARK    4  A    between atoms: C_3  and  C_4
REMARK    5  A    between atoms: C_7  and  C_8
REMARK    6  A    between atoms: C_8  and  N_9
REMARK    7  A    between atoms: C_10  and  C_12
REMARK    8  A    between atoms: C_24  and  C_26
REMARK                            x       y       z     vdW  Elec       q    Type
REMARK                         _______ _______ _______ _____ _____    ______ ____
ROOT
ATOM      1  C   UNL     1      45.421   6.154  12.549  0.00  0.00    +0.000 A 
ATOM      2  C   UNL     1      45.593   7.481  12.140  0.00  0.00    +0.000 A 
ATOM      3  C   UNL     1      46.854   8.082  12.174  0.00  0.00    +0.000 A 
ATOM      4  C   UNL     1      47.977   7.354  12.593  0.00  0.00    +0.000 A 
ATOM      5  C   UNL     1      47.806   6.024  12.996  0.00  0.00    +0.000 A 
ATOM      6  C   UNL     1      46.543   5.425  12.964  0.00  0.00    +0.000 A 
ENDROOT
BRANCH   1   7
ATOM      7  C   UNL     1      44.030   5.572  12.647  0.00  0.00    +0.000 C 
BRANCH   7   8
ATOM      8  C   UNL     1      43.294   5.196  11.349  0.00  0.00    +0.000 C 
BRANCH   8   9
ATOM      9  N   UNL     1      41.834   5.392  11.472  0.00  0.00    +0.000 NA
ATOM     10  H   UNL     1      41.359   4.502  11.337  0.00  0.00    +0.000 HD
ATOM     11  H   UNL     1      41.543   5.989  10.692  0.00  0.00    +0.000 HD
ENDBRANCH   8   9
BRANCH   8  12
ATOM     12  C   UNL     1      43.582   3.755  10.884  0.00  0.00    +0.000 C 
ATOM     13  O   UNL     1      43.067   2.779  11.435  0.00  0.00    +0.000 OA
BRANCH  12  14
ATOM     14  C   UNL     1      44.516   3.512   9.745  0.00  0.00    +0.000 A 
ATOM     15  C   UNL     1      44.898   2.248   9.289  0.00  0.00    +0.000 A 
ATOM     16  C   UNL     1      45.825   2.138   8.250  0.00  0.00    +0.000 A 
ATOM     17  C   UNL     1      46.315   3.297   7.671  0.00  0.00    +0.000 A 
ATOM     18  N   UNL     1      45.945   4.533   8.063  0.00  0.00    +0.000 NA
ATOM     19  C   UNL     1      45.062   4.614   9.092  0.00  0.00    +0.000 A 
ENDBRANCH  12  14
ENDBRANCH   8  12
ENDBRANCH   7   8
ENDBRANCH   1   7
BRANCH   4  20
ATOM     20  C   UNL     1      49.350   7.969  12.637  0.00  0.00    +0.000 C 
BRANCH  20  21
ATOM     21  N   UNL     1      50.190   7.330  13.619  0.00  0.00    +0.000 N 
ATOM     22  C   UNL     1      50.709   8.030  14.679  0.00  0.00    +0.000 C 
ATOM     23  O   UNL     1      50.494   9.220  14.861  0.00  0.00    +0.000 OA
ATOM     24  H   UNL     1      50.634   6.462  13.341  0.00  0.00    +0.000 HD
BRANCH  22  25
ATOM     25  C   UNL     1      51.491   7.227  15.628  0.00  0.00    +0.000 A 
ATOM     26  C   UNL     1      52.869   7.375  15.689  0.00  0.00    +0.000 A 
ATOM     27  S   UNL     1      53.601   6.414  16.893  0.00  0.00    +0.000 S 
ATOM     28  C   UNL     1      52.105   5.725  17.334  0.00  0.00    +0.000 A 
ATOM     29  N   UNL     1      52.030   4.773  18.302  0.00  0.00    +0.000 NA
ATOM     30  C   UNL     1      50.840   4.327  18.517  0.00  0.00    +0.000 A 
ATOM     31  N   UNL     1      49.715   4.737  17.850  0.00  0.00    +0.000 N 
ATOM     32  C   UNL     1      49.736   5.727  16.896  0.00  0.00    +0.000 A 
ATOM     33  O   UNL     1      48.701   6.133  16.383  0.00  0.00    +0.000 OA
ATOM     34  C   UNL     1      51.060   6.245  16.595  0.00  0.00    +0.000 A 
ATOM     35  H   UNL     1      48.809   4.354  18.072  0.00  0.00    +0.000 HD
ENDBRANCH  22  25
ENDBRANCH  20  21
ENDBRANCH   4  20
TORSDOF 8
ENDMDL
MODEL 5
REMARK VINA RESULT:    -7.938      2.972      3.906
REMARK INTER + INTRA:         -12.249
REMARK INTER:                 -11.275
REMARK INTRA:                  -0.974
REMARK UNBOUND:                -0.830
REMARK  Name = 
REMARK  8 active torsions:
REMARK  status: ('A' for Active; 'I' for Inactive)
REMARK    1  A    between atoms: N_1  and  C_2
REMARK    2  A    between atoms: C_2  and  C_3
REMARK    3  A    between atoms: C_2  and  C_24
REMARK    4  A    between atoms: C_3  and  C_4
REMARK    5  A    between atoms: C_7  and  C_8
REMARK    6  A    between atoms: C_8  and  N_9
REMARK    7  A    between atoms: C_10  and  C_12
REMARK    8  A    between atoms: C_24  and  C_26
REMARK                            x       y       z     vdW  Elec       q    Type
REMARK                         _______ _______ _______ _____ _____    ______ ____
ROOT
ATOM      1  C   UNL     1      46.706   4.832  13.668  0.00  0.00    +0.000 A 
ATOM      2  C   UNL     1      47.346   5.993  13.222  0.00  0.00    +0.000 A 
ATOM      3  C   UNL     1      48.225   6.691  14.054  0.00  0.00    +0.000 A 
ATOM      4  C   UNL     1      48.505   6.221  15.346  0.00  0.00    +0.000 A 
ATOM      5  C   UNL     1      47.871   5.055  15.789  0.00  0.00    +0.000 A 
ATOM      6  C   UNL     1      46.989   4.360  14.957  0.00  0.00    +0.000 A 
ENDROOT
BRANCH   1   7
ATOM      7  C   UNL     1      45.648   4.178  12.811  0.00  0.00    +0.000 C 
BRANCH   7   8
ATOM      8  C   UNL     1      44.726   5.075  11.966  0.00  0.00    +0.000 C 
BRANCH   8   9
ATOM      9  N   UNL     1      43.737   5.785  12.803  0.00  0.00    +0.000 NA
ATOM     10  H   UNL     1      44.068   5.822  13.765  0.00  0.00    +0.000 HD
ATOM     11  H   UNL     1      42.887   5.212  12.818  0.00  0.00    +0.000 HD
ENDBRANCH   8   9
BRANCH   8  12
ATOM     12  C   UNL     1      43.995   4.308  10.845  0.00  0.00    +0.000 C 
ATOM     13  O   UNL     1      42.775   4.129  10.869  0.00  0.00    +0.000 OA
BRANCH  12  14
ATOM     14  C   UNL     1      44.769   3.749   9.698  0.00  0.00    +0.000 A 
ATOM     15  C   UNL     1      44.970   2.386   9.467  0.00  0.00    +0.000 A 
ATOM     16  C   UNL     1      45.761   1.975   8.392  0.00  0.00    +0.000 A 
ATOM     17  C   UNL     1      46.298   2.940   7.556  0.00  0.00    +0.000 A 
ATOM     18  N   UNL     1      46.099   4.263   7.728  0.00  0.00    +0.000 NA
ATOM     19  C   UNL     1      45.348   4.637   8.795  0.00  0.00    +0.000 A 
ENDBRANCH  12  14
ENDBRANCH   8  12
ENDBRANCH   7   8
ENDBRANCH   1   7
BRANCH   4  20
ATOM     20  C   UNL     1      49.451   6.945  16.266  0.00  0.00    +0.000 C 
BRANCH  20  21
ATOM     21  N   UNL     1      50.498   6.079  16.743  0.00  0.00    +0.000 N 
ATOM     22  C   UNL     1      50.447   5.517  17.994  0.00  0.00    +0.000 C 
ATOM     23  O   UNL     1      49.522   5.708  18.772  0.00  0.00    +0.000 OA
ATOM     24  H   UNL     1      51.395   6.150  16.275  0.00  0.00    +0.000 HD
BRANCH  22  25
ATOM     25  C   UNL     1      51.554   4.607  18.311  0.00  0.00    +0.000 A 
ATOM     26  C   UNL     1      52.660   5.077  19.005  0.00  0.00    +0.000 A 
ATOM     27  S   UNL     1      53.813   3.867  19.343  0.00  0.00    +0.000 S 
ATOM     28  C   UNL     1      52.898   2.686  18.522  0.00  0.00    +0.000 A 
ATOM     29  N   UNL     1      53.349   1.409  18.402  0.00  0.00    +0.000 NA
ATOM     30  C   UNL     1      52.566   0.628  17.740  0.00  0.00    +0.000 A 
ATOM     31  N   UNL     1      51.374   1.005  17.178  0.00  0.00    +0.000 N 
ATOM     32  C   UNL     1      50.857   2.272  17.311  0.00  0.00    +0.000 A 
ATOM     33  O   UNL     1      49.748   2.552  16.875  0.00  0.00    +0.000 OA
ATOM     34  C   UNL     1      51.716   3.201  18.026  0.00  0.00    +0.000 A 
ATOM     35  H   UNL     1      50.801   0.343  16.678  0.00  0.00    +0.000 HD
ENDBRANCH  22  25
ENDBRANCH  20  21
ENDBRANCH   4  20
TORSDOF 8
ENDMDL
MODEL 6
REMARK VINA RESULT:    -7.666      1.488      2.102
REMARK INTER + INTRA:         -11.857
REMARK INTER:                 -11.108
REMARK INTRA:                  -0.749
REMARK UNBOUND:                -0.830
REMARK  Name = 
REMARK  8 active torsions:
REMARK  status: ('A' for Active; 'I' for Inactive)
REMARK    1  A    between atoms: N_1  and  C_2
REMARK    2  A    between atoms: C_2  and  C_3
REMARK    3  A    between atoms: C_2  and  C_24
REMARK    4  A    between atoms: C_3  and  C_4
REMARK    5  A    between atoms: C_7  and  C_8
REMARK    6  A    between atoms: C_8  and  N_9
REMARK    7  A    between atoms: C_10  and  C_12
REMARK    8  A    between atoms: C_24  and  C_26
REMARK                            x       y       z     vdW  Elec       q    Type
REMARK                         _______ _______ _______ _____ _____    ______ ____
ROOT
ATOM      1  C   UNL     1      46.208   4.246  12.853  0.00  0.00    +0.000 A 
ATOM      2  C   UNL     1      46.213   5.491  12.215  0.00  0.00    +0.000 A 
ATOM      3  C   UNL     1      46.908   6.573  12.763  0.00  0.00    +0.000 A 
ATOM      4  C   UNL     1      47.641   6.420  13.949  0.00  0.00    +0.000 A 
ATOM      5  C   UNL     1      47.642   5.172  14.583  0.00  0.00    +0.000 A 
ATOM      6  C   UNL     1      46.943   4.092  14.036  0.00  0.00    +0.000 A 
ENDROOT
BRANCH   1   7
ATOM      7  C   UNL     1      45.330   3.135  12.327  0.00  0.00    +0.000 C 
BRANCH   7   8
ATOM      8  C   UNL     1      43.927   3.488  11.802  0.00  0.00    +0.000 C 
BRANCH   8   9
ATOM      9  N   UNL     1      43.036   2.310  11.787  0.00  0.00    +0.000 NA
ATOM     10  H   UNL     1      43.595   1.459  11.803  0.00  0.00    +0.000 HD
ATOM     11  H   UNL     1      42.549   2.312  10.885  0.00  0.00    +0.000 HD
ENDBRANCH   8   9
BRANCH   8  12
ATOM     12  C   UNL     1      43.948   4.135  10.403  0.00  0.00    +0.000 C 
ATOM     13  O   UNL     1      43.204   5.074  10.110  0.00  0.00    +0.000 OA
BRANCH  12  14
ATOM     14  C   UNL     1      44.878   3.617   9.357  0.00  0.00    +0.000 A 
ATOM     15  C   UNL     1      45.117   2.262   9.110  0.00  0.00    +0.000 A 
ATOM     16  C   UNL     1      46.053   1.890   8.143  0.00  0.00    +0.000 A 
ATOM     17  C   UNL     1      46.695   2.883   7.423  0.00  0.00    +0.000 A 
ATOM     18  N   UNL     1      46.466   4.199   7.609  0.00  0.00    +0.000 NA
ATOM     19  C   UNL     1      45.571   4.536   8.574  0.00  0.00    +0.000 A 
ENDBRANCH  12  14
ENDBRANCH   8  12
ENDBRANCH   7   8
ENDBRANCH   1   7
BRANCH   4  20
ATOM     20  C   UNL     1      48.405   7.562  14.562  0.00  0.00    +0.000 C 
BRANCH  20  21
ATOM     21  N   UNL     1      48.073   7.741  15.953  0.00  0.00    +0.000 N 
ATOM     22  C   UNL     1      49.039   7.717  16.927  0.00  0.00    +0.000 C 
ATOM     23  O   UNL     1      50.226   7.549  16.684  0.00  0.00    +0.000 OA
ATOM     24  H   UNL     1      47.109   7.569  16.216  0.00  0.00    +0.000 HD
BRANCH  22  25
ATOM     25  C   UNL     1      48.554   7.978  18.288  0.00  0.00    +0.000 A 
ATOM     26  C   UNL     1      48.399   9.284  18.729  0.00  0.00    +0.000 A 
ATOM     27  S   UNL     1      47.763   9.396  20.308  0.00  0.00    +0.000 S 
ATOM     28  C   UNL     1      47.726   7.701  20.474  0.00  0.00    +0.000 A 
ATOM     29  N   UNL     1      47.312   7.120  21.632  0.00  0.00    +0.000 NA
ATOM     30  C   UNL     1      47.355   5.831  21.626  0.00  0.00    +0.000 A 
ATOM     31  N   UNL     1      47.781   5.066  20.571  0.00  0.00    +0.000 N 
ATOM     32  C   UNL     1      48.166   5.607  19.367  0.00  0.00    +0.000 A 
ATOM     33  O   UNL     1      48.455   4.892  18.416  0.00  0.00    +0.000 OA
ATOM     34  C   UNL     1      48.163   7.059  19.331  0.00  0.00    +0.000 A 
ATOM     35  H   UNL     1      47.783   4.059  20.626  0.00  0.00    +0.000 HD
ENDBRANCH  22  25
ENDBRANCH  20  21
ENDBRANCH   4  20
TORSDOF 8
ENDMDL
MODEL 7
REMARK VINA RESULT:    -7.564      3.074      4.138
REMARK INTER + INTRA:         -11.710
REMARK INTER:                 -10.421
REMARK INTRA:                  -1.289
REMARK UNBOUND:                -0.830
REMARK  Name = 
REMARK  8 active torsions:
REMARK  status: ('A' for Active; 'I' for Inactive)
REMARK    1  A    between atoms: N_1  and  C_2
REMARK    2  A    between atoms: C_2  and  C_3
REMARK    3  A    between atoms: C_2  and  C_24
REMARK    4  A    between atoms: C_3  and  C_4
REMARK    5  A    between atoms: C_7  and  C_8
REMARK    6  A    between atoms: C_8  and  N_9
REMARK    7  A    between atoms: C_10  and  C_12
REMARK    8  A    between atoms: C_24  and  C_26
REMARK                            x       y       z     vdW  Elec       q    Type
REMARK                         _______ _______ _______ _____ _____    ______ ____
ROOT
ATOM      1  C   UNL     1      45.402   6.162  12.600  0.00  0.00    +0.000 A 
ATOM      2  C   UNL     1      45.569   7.525  12.330  0.00  0.00    +0.000 A 
ATOM      3  C   UNL     1      46.833   8.118  12.394  0.00  0.00    +0.000 A 
ATOM      4  C   UNL     1      47.964   7.347  12.702  0.00  0.00    +0.000 A 
ATOM      5  C   UNL     1      47.797   5.983  12.965  0.00  0.00    +0.000 A 
ATOM      6  C   UNL     1      46.532   5.392  12.904  0.00  0.00    +0.000 A 
ENDROOT
BRANCH   1   7
ATOM      7  C   UNL     1      44.012   5.575  12.673  0.00  0.00    +0.000 C 
BRANCH   7   8
ATOM      8  C   UNL     1      43.295   5.209  11.362  0.00  0.00    +0.000 C 
BRANCH   8   9
ATOM      9  N   UNL     1      41.832   5.394  11.468  0.00  0.00    +0.000 NA
ATOM     10  H   UNL     1      41.374   4.946  10.677  0.00  0.00    +0.000 HD
ATOM     11  H   UNL     1      41.647   6.397  11.371  0.00  0.00    +0.000 HD
ENDBRANCH   8   9
BRANCH   8  12
ATOM     12  C   UNL     1      43.598   3.775  10.883  0.00  0.00    +0.000 C 
ATOM     13  O   UNL     1      43.092   2.789  11.424  0.00  0.00    +0.000 OA
BRANCH  12  14
ATOM     14  C   UNL     1      44.537   3.553   9.744  0.00  0.00    +0.000 A 
ATOM     15  C   UNL     1      44.910   2.297   9.258  0.00  0.00    +0.000 A 
ATOM     16  C   UNL     1      45.842   2.205   8.222  0.00  0.00    +0.000 A 
ATOM     17  C   UNL     1      46.347   3.374   7.677  0.00  0.00    +0.000 A 
ATOM     18  N   UNL     1      45.986   4.603   8.097  0.00  0.00    +0.000 NA
ATOM     19  C   UNL     1      45.098   4.666   9.123  0.00  0.00    +0.000 A 
ENDBRANCH  12  14
ENDBRANCH   8  12
ENDBRANCH   7   8
ENDBRANCH   1   7
BRANCH   4  20
ATOM     20  C   UNL     1      49.340   7.952  12.774  0.00  0.00    +0.000 C 
BRANCH  20  21
ATOM     21  N   UNL     1      50.160   7.297  13.761  0.00  0.00    +0.000 N 
ATOM     22  C   UNL     1      50.132   7.674  15.079  0.00  0.00    +0.000 C 
ATOM     23  O   UNL     1      49.418   8.575  15.499  0.00  0.00    +0.000 OA
ATOM     24  H   UNL     1      50.965   6.786  13.415  0.00  0.00    +0.000 HD
BRANCH  22  25
ATOM     25  C   UNL     1      50.974   6.870  15.973  0.00  0.00    +0.000 A 
ATOM     26  C   UNL     1      50.387   6.065  16.939  0.00  0.00    +0.000 A 
ATOM     27  S   UNL     1      51.515   5.153  17.837  0.00  0.00    +0.000 S 
ATOM     28  C   UNL     1      52.828   5.847  17.002  0.00  0.00    +0.000 A 
ATOM     29  N   UNL     1      54.110   5.521  17.318  0.00  0.00    +0.000 NA
ATOM     30  C   UNL     1      55.003   6.136  16.621  0.00  0.00    +0.000 A 
ATOM     31  N   UNL     1      54.735   7.056  15.639  0.00  0.00    +0.000 N 
ATOM     32  C   UNL     1      53.456   7.383  15.256  0.00  0.00    +0.000 A 
ATOM     33  O   UNL     1      53.252   8.139  14.315  0.00  0.00    +0.000 OA
ATOM     34  C   UNL     1      52.411   6.737  16.031  0.00  0.00    +0.000 A 
ATOM     35  H   UNL     1      55.480   7.497  15.122  0.00  0.00    +0.000 HD
ENDBRANCH  22  25
ENDBRANCH  20  21
ENDBRANCH   4  20
TORSDOF 8
ENDMDL
MODEL 8
REMARK VINA RESULT:    -7.519      3.461      4.801
REMARK INTER + INTRA:         -11.646
REMARK INTER:                 -10.811
REMARK INTRA:                  -0.835
REMARK UNBOUND:                -0.830
REMARK  Name = 
REMARK  8 active torsions:
REMARK  status: ('A' for Active; 'I' for Inactive)
REMARK    1  A    between atoms: N_1  and  C_2
REMARK    2  A    between atoms: C_2  and  C_3
REMARK    3  A    between atoms: C_2  and  C_24
REMARK    4  A    between atoms: C_3  and  C_4
REMARK    5  A    between atoms: C_7  and  C_8
REMARK    6  A    between atoms: C_8  and  N_9
REMARK    7  A    between atoms: C_10  and  C_12
REMARK    8  A    between atoms: C_24  and  C_26
REMARK                            x       y       z     vdW  Elec       q    Type
REMARK                         _______ _______ _______ _____ _____    ______ ____
ROOT
ATOM      1  C   UNL     1      47.352   5.607  13.489  0.00  0.00    +0.000 A 
ATOM      2  C   UNL     1      47.956   6.204  14.601  0.00  0.00    +0.000 A 
ATOM      3  C   UNL     1      48.061   5.516  15.813  0.00  0.00    +0.000 A 
ATOM      4  C   UNL     1      47.588   4.201  15.927  0.00  0.00    +0.000 A 
ATOM      5  C   UNL     1      46.990   3.602  14.812  0.00  0.00    +0.000 A 
ATOM      6  C   UNL     1      46.882   4.292  13.602  0.00  0.00    +0.000 A 
ENDROOT
BRANCH   1   7
ATOM      7  C   UNL     1      47.113   6.419  12.237  0.00  0.00    +0.000 C 
BRANCH   7   8
ATOM      8  C   UNL     1      45.673   6.839  11.893  0.00  0.00    +0.000 C 
BRANCH   8   9
ATOM      9  N   UNL     1      45.084   7.687  12.950  0.00  0.00    +0.000 NA
ATOM     10  H   UNL     1      44.081   7.771  12.800  0.00  0.00    +0.000 HD
ATOM     11  H   UNL     1      45.469   8.629  12.831  0.00  0.00    +0.000 HD
ENDBRANCH   8   9
BRANCH   8  12
ATOM     12  C   UNL     1      44.742   5.642  11.616  0.00  0.00    +0.000 C 
ATOM     13  O   UNL     1      43.815   5.350  12.375  0.00  0.00    +0.000 OA
BRANCH  12  14
ATOM     14  C   UNL     1      44.960   4.793  10.408  0.00  0.00    +0.000 A 
ATOM     15  C   UNL     1      44.515   3.475  10.274  0.00  0.00    +0.000 A 
ATOM     16  C   UNL     1      44.826   2.753   9.119  0.00  0.00    +0.000 A 
ATOM     17  C   UNL     1      45.540   3.383   8.114  0.00  0.00    +0.000 A 
ATOM     18  N   UNL     1      45.957   4.663   8.193  0.00  0.00    +0.000 NA
ATOM     19  C   UNL     1      45.666   5.336   9.337  0.00  0.00    +0.000 A 
ENDBRANCH  12  14
ENDBRANCH   8  12
ENDBRANCH   7   8
ENDBRANCH   1   7
BRANCH   4  20
ATOM     20  C   UNL     1      47.690   3.430  17.216  0.00  0.00    +0.000 C 
BRANCH  20  21
ATOM     21  N   UNL     1      49.062   3.212  17.600  0.00  0.00    +0.000 N 
ATOM     22  C   UNL     1      49.846   2.287  16.958  0.00  0.00    +0.000 C 
ATOM     23  O   UNL     1      49.441   1.600  16.030  0.00  0.00    +0.000 OA
ATOM     24  H   UNL     1      49.327   3.517  18.530  0.00  0.00    +0.000 HD
BRANCH  22  25
ATOM     25  C   UNL     1      51.238   2.227  17.420  0.00  0.00    +0.000 A 
ATOM     26  C   UNL     1      51.836   0.998  17.659  0.00  0.00    +0.000 A 
ATOM     27  S   UNL     1      53.473   1.120  18.123  0.00  0.00    +0.000 S 
ATOM     28  C   UNL     1      53.419   2.823  18.075  0.00  0.00    +0.000 A 
ATOM     29  N   UNL     1      54.507   3.568  18.410  0.00  0.00    +0.000 NA
ATOM     30  C   UNL     1      54.318   4.841  18.349  0.00  0.00    +0.000 A 
ATOM     31  N   UNL     1      53.140   5.444  17.990  0.00  0.00    +0.000 N 
ATOM     32  C   UNL     1      52.030   4.733  17.601  0.00  0.00    +0.000 A 
ATOM     33  O   UNL     1      51.023   5.302  17.201  0.00  0.00    +0.000 OA
ATOM     34  C   UNL     1      52.181   3.290  17.680  0.00  0.00    +0.000 A 
ATOM     35  H   UNL     1      53.059   6.448  17.954  0.00  0.00    +0.000 HD
ENDBRANCH  22  25
ENDBRANCH  20  21
ENDBRANCH   4  20
TORSDOF 8
ENDMDL
MODEL 9
REMARK VINA RESULT:    -7.516      3.081      9.455
REMARK INTER + INTRA:         -11.642
REMARK INTER:                  -9.936
REMARK INTRA:                  -1.706
REMARK UNBOUND:                -0.830
REMARK  Name = 
REMARK  8 active torsions:
REMARK  status: ('A' for Active; 'I' for Inactive)
REMARK    1  A    between atoms: N_1  and  C_2
REMARK    2  A    between atoms: C_2  and  C_3
REMARK    3  A    between atoms: C_2  and  C_24
REMARK    4  A    between atoms: C_3  and  C_4
REMARK    5  A    between atoms: C_7  and  C_8
REMARK    6  A    between atoms: C_8  and  N_9
REMARK    7  A    between atoms: C_10  and  C_12
REMARK    8  A    between atoms: C_24  and  C_26
REMARK                            x       y       z     vdW  Elec       q    Type
REMARK                         _______ _______ _______ _____ _____    ______ ____
ROOT
ATOM      1  C   UNL     1      48.844   7.891  16.267  0.00  0.00    +0.000 A 
ATOM      2  C   UNL     1      48.944   6.685  15.564  0.00  0.00    +0.000 A 
ATOM      3  C   UNL     1      48.494   6.586  14.244  0.00  0.00    +0.000 A 
ATOM      4  C   UNL     1      47.959   7.706  13.590  0.00  0.00    +0.000 A 
ATOM      5  C   UNL     1      47.865   8.913  14.292  0.00  0.00    +0.000 A 
ATOM      6  C   UNL     1      48.312   9.010  15.612  0.00  0.00    +0.000 A 
ENDROOT
BRANCH   1   7
ATOM      7  C   UNL     1      49.195   7.937  17.735  0.00  0.00    +0.000 C 
BRANCH   7   8
ATOM      8  C   UNL     1      48.102   7.606  18.767  0.00  0.00    +0.000 C 
BRANCH   8   9
ATOM      9  N   UNL     1      48.020   8.634  19.825  0.00  0.00    +0.000 NA
ATOM     10  H   UNL     1      47.066   8.985  19.886  0.00  0.00    +0.000 HD
ATOM     11  H   UNL     1      48.594   9.427  19.521  0.00  0.00    +0.000 HD
ENDBRANCH   8   9
BRANCH   8  12
ATOM     12  C   UNL     1      48.277   6.217  19.412  0.00  0.00    +0.000 C 
ATOM     13  O   UNL     1      48.454   6.082  20.625  0.00  0.00    +0.000 OA
BRANCH  12  14
ATOM     14  C   UNL     1      48.248   4.991  18.561  0.00  0.00    +0.000 A 
ATOM     15  C   UNL     1      49.348   4.162  18.327  0.00  0.00    +0.000 A 
ATOM     16  C   UNL     1      49.221   3.070  17.465  0.00  0.00    +0.000 A 
ATOM     17  C   UNL     1      47.986   2.817  16.891  0.00  0.00    +0.000 A 
ATOM     18  N   UNL     1      46.894   3.575  17.119  0.00  0.00    +0.000 NA
ATOM     19  C   UNL     1      47.050   4.646  17.940  0.00  0.00    +0.000 A 
ENDBRANCH  12  14
ENDBRANCH   8  12
ENDBRANCH   7   8
ENDBRANCH   1   7
BRANCH   4  20
ATOM     20  C   UNL     1      47.470   7.635  12.169  0.00  0.00    +0.000 C 
BRANCH  20  21
ATOM     21  N   UNL     1      46.772   6.403  11.904  0.00  0.00    +0.000 N 
ATOM     22  C   UNL     1      45.402   6.341  11.914  0.00  0.00    +0.000 C 
ATOM     23  O   UNL     1      44.693   7.312  12.140  0.00  0.00    +0.000 OA
ATOM     24  H   UNL     1      47.302   5.546  12.025  0.00  0.00    +0.000 HD
BRANCH  22  25
ATOM     25  C   UNL     1      44.838   5.032  11.563  0.00  0.00    +0.000 A 
ATOM     26  C   UNL     1      44.091   4.327  12.495  0.00  0.00    +0.000 A 
ATOM     27  S   UNL     1      43.461   2.861  11.890  0.00  0.00    +0.000 S 
ATOM     28  C   UNL     1      44.214   3.094  10.380  0.00  0.00    +0.000 A 
ATOM     29  N   UNL     1      44.108   2.164   9.393  0.00  0.00    +0.000 NA
ATOM     30  C   UNL     1      44.744   2.460   8.312  0.00  0.00    +0.000 A 
ATOM     31  N   UNL     1      45.487   3.598   8.125  0.00  0.00    +0.000 N 
ATOM     32  C   UNL     1      45.587   4.585   9.077  0.00  0.00    +0.000 A 
ATOM     33  O   UNL     1      46.184   5.629   8.846  0.00  0.00    +0.000 OA
ATOM     34  C   UNL     1      44.910   4.287  10.327  0.00  0.00    +0.000 A 
ATOM     35  H   UNL     1      45.956   3.776   7.251  0.00  0.00    +0.000 HD
ENDBRANCH  22  25
ENDBRANCH  20  21
ENDBRANCH   4  20
TORSDOF 8
ENDMDL
