MODEL 1
REMARK VINA RESULT:    -7.825      0.000      0.000
REMARK INTER + INTRA:         -11.080
REMARK INTER:                 -10.113
REMARK INTRA:                  -0.967
REMARK UNBOUND:                -0.967
REMARK  Name = 
REMARK  6 active torsions:
REMARK  status: ('A' for Active; 'I' for Inactive)
REMARK    1  A    between atoms: C_1  and  N_2
REMARK    2  A    between atoms: N_2  and  C_3
REMARK    3  A    between atoms: C_3  and  C_4
REMARK    4  A    between atoms: C_7  and  C_8
REMARK    5  A    between atoms: C_8  and  N_9
REMARK    6  A    between atoms: C_18  and  C_20
REMARK                            x       y       z     vdW  Elec       q    Type
REMARK                         _______ _______ _______ _____ _____    ______ ____
ROOT
ATOM      1  C   UNL     1      47.313   7.419  13.754  0.00  0.00    +0.000 C 
ENDROOT
BRANCH   1   2
ATOM      2  C   UNL     1      46.519   6.532  12.842  0.00  0.00    +0.000 A 
ATOM      3  C   UNL     1      46.299   6.895  11.509  0.00  0.00    +0.000 A 
ATOM      4  C   UNL     1      45.474   6.119  10.705  0.00  0.00    +0.000 A 
ATOM      5  C   UNL     1      44.897   4.977  11.250  0.00  0.00    +0.000 A 
ATOM      6  N   UNL     1      45.116   4.593  12.535  0.00  0.00    +0.000 NA
ATOM      7  C   UNL     1      45.914   5.371  13.299  0.00  0.00    +0.000 A 
BRANCH   5   8
ATOM      8  C   UNL     1      43.981   4.115  10.408  0.00  0.00    +0.000 C 
BRANCH   8   9
ATOM      9  N   UNL     1      44.273   4.254   8.992  0.00  0.00    +0.000 N 
ATOM     10  C   UNL     1      45.196   3.430   8.379  0.00  0.00    +0.000 A 
ATOM     11  C   UNL     1      45.435   2.131   8.784  0.00  0.00    +0.000 A 
ATOM     12  C   UNL     1      46.344   1.405   8.050  0.00  0.00    +0.000 A 
ATOM     13  N   UNL     1      46.977   1.888   6.972  0.00  0.00    +0.000 NA
ATOM     14  C   UNL     1      46.664   3.150   6.648  0.00  0.00    +0.000 A 
ATOM     15  N   UNL     1      45.813   3.953   7.309  0.00  0.00    +0.000 NA
ATOM     16  H   UNL     1      44.349   5.197   8.624  0.00  0.00    +0.000 HD
ENDBRANCH   8   9
ENDBRANCH   5   8
ENDBRANCH   1   2
BRANCH   1  18
ATOM     17  C   UNL     1      49.513   7.600  12.527  0.00  0.00    +0.000 C 
ATOM     18  N   UNL     1      48.766   7.288  13.741  0.00  0.00    +0.000 N 
ATOM     19  C   UNL     1      49.545   7.200  14.906  0.00  0.00    +0.000 C 
ATOM     20  O   UNL     1      50.757   7.014  14.840  0.00  0.00    +0.000 OA
BRANCH  19  21
ATOM     21  C   UNL     1      48.947   7.474  16.231  0.00  0.00    +0.000 A 
ATOM     22  C   UNL     1      48.881   8.720  16.835  0.00  0.00    +0.000 A 
ATOM     23  S   UNL     1      48.418   8.671  18.478  0.00  0.00    +0.000 S 
ATOM     24  C   UNL     1      48.348   6.974  18.454  0.00  0.00    +0.000 A 
ATOM     25  N   UNL     1      48.143   6.267  19.595  0.00  0.00    +0.000 NA
ATOM     26  C   UNL     1      48.107   4.988  19.421  0.00  0.00    +0.000 A 
ATOM     27  N   UNL     1      48.210   4.359  18.206  0.00  0.00    +0.000 N 
ATOM     28  C   UNL     1      48.336   5.039  17.014  0.00  0.00    +0.000 A 
ATOM     29  O   UNL     1      48.203   4.472  15.935  0.00  0.00    +0.000 OA
ATOM     30  C   UNL     1      48.527   6.468  17.178  0.00  0.00    +0.000 A 
ATOM     31  H   UNL     1      48.070   3.362  18.130  0.00  0.00    +0.000 HD
ENDBRANCH  19  21
ENDBRANCH   1  18
TORSDOF 5
ENDMDL
MODEL 2
REMARK VINA RESULT:    -7.589      2.123      2.702
REMARK INTER + INTRA:         -10.774
REMARK INTER:                  -9.642
REMARK INTRA:                  -1.133
REMARK UNBOUND:                -0.967
REMARK  Name = 
REMARK  6 active torsions:
REMARK  status: ('A' for Active; 'I' for Inactive)
REMARK    1  A    between atoms: C_1  and  N_2
REMARK    2  A    between atoms: N_2  and  C_3
REMARK    3  A    between atoms: C_3  and  C_4
REMARK    4  A    between atoms: C_7  and  C_8
REMARK    5  A    between atoms: C_8  and  N_9
REMARK    6  A    between atoms: C_18  and  C_20
REMARK                            x       y       z     vdW  Elec       q    Type
REMARK                         _______ _______ _______ _____ _____    ______ ____
ROOT
ATOM      1  C   UNL     1      48.692   6.635  13.841  0.00  0.00    +0.000 C 
ENDROOT
BRANCH   1   2
ATOM      2  C   UNL     1      47.468   6.185  13.100  0.00  0.00    +0.000 A 
ATOM      3  C   UNL     1      46.636   5.195  13.633  0.00  0.00    +0.000 A 
ATOM      4  C   UNL     1      45.567   4.711  12.889  0.00  0.00    +0.000 A 
ATOM      5  C   UNL     1      45.341   5.245  11.625  0.00  0.00    +0.000 A 
ATOM      6  N   UNL     1      46.123   6.224  11.098  0.00  0.00    +0.000 NA
ATOM      7  C   UNL     1      47.161   6.669  11.838  0.00  0.00    +0.000 A 
BRANCH   5   8
ATOM      8  C   UNL     1      44.194   4.732  10.780  0.00  0.00    +0.000 C 
BRANCH   8   9
ATOM      9  N   UNL     1      44.496   4.823   9.362  0.00  0.00    +0.000 N 
ATOM     10  C   UNL     1      45.246   3.846   8.738  0.00  0.00    +0.000 A 
ATOM     11  C   UNL     1      45.244   2.523   9.136  0.00  0.00    +0.000 A 
ATOM     12  C   UNL     1      45.998   1.646   8.391  0.00  0.00    +0.000 A 
ATOM     13  N   UNL     1      46.700   2.010   7.309  0.00  0.00    +0.000 NA
ATOM     14  C   UNL     1      46.623   3.310   6.993  0.00  0.00    +0.000 A 
ATOM     15  N   UNL     1      45.940   4.252   7.665  0.00  0.00    +0.000 NA
ATOM     16  H   UNL     1      44.741   5.737   8.998  0.00  0.00    +0.000 HD
ENDBRANCH   8   9
ENDBRANCH   5   8
ENDBRANCH   1   2
BRANCH   1  18
ATOM     17  C   UNL     1      47.704   8.787  14.720  0.00  0.00    +0.000 C 
ATOM     18  N   UNL     1      48.518   7.594  14.926  0.00  0.00    +0.000 N 
ATOM     19  C   UNL     1      48.803   7.302  16.270  0.00  0.00    +0.000 C 
ATOM     20  O   UNL     1      48.713   8.168  17.136  0.00  0.00    +0.000 OA
BRANCH  19  21
ATOM     21  C   UNL     1      49.077   5.911  16.693  0.00  0.00    +0.000 A 
ATOM     22  C   UNL     1      48.113   4.981  17.053  0.00  0.00    +0.000 A 
ATOM     23  S   UNL     1      48.746   3.574  17.784  0.00  0.00    +0.000 S 
ATOM     24  C   UNL     1      50.328   4.186  17.698  0.00  0.00    +0.000 A 
ATOM     25  N   UNL     1      51.363   3.532  18.286  0.00  0.00    +0.000 NA
ATOM     26  C   UNL     1      52.506   4.112  18.132  0.00  0.00    +0.000 A 
ATOM     27  N   UNL     1      52.712   5.258  17.405  0.00  0.00    +0.000 N 
ATOM     28  C   UNL     1      51.706   5.909  16.723  0.00  0.00    +0.000 A 
ATOM     29  O   UNL     1      51.951   6.791  15.908  0.00  0.00    +0.000 OA
ATOM     30  C   UNL     1      50.384   5.374  16.989  0.00  0.00    +0.000 A 
ATOM     31  H   UNL     1      53.647   5.600  17.240  0.00  0.00    +0.000 HD
ENDBRANCH  19  21
ENDBRANCH   1  18
TORSDOF 5
ENDMDL
MODEL 3
REMARK VINA RESULT:    -7.389      3.515      8.153
REMARK INTER + INTRA:         -10.516
REMARK INTER:                  -9.515
REMARK INTRA:                  -1.000
REMARK UNBOUND:                -0.967
REMARK  Name = 
REMARK  6 active torsions:
REMARK  status: ('A' for Active; 'I' for Inactive)
REMARK    1  A    between atoms: C_1  and  N_2
REMARK    2  A    between atoms: N_2  and  C_3
REMARK    3  A    between atoms: C_3  and  C_4
REMARK    4  A    between atoms: C_7  and  C_8
REMARK    5  A    between atoms: C_8  and  N_9
REMARK    6  A    between atoms: C_18  and  C_20
REMARK                            x       y       z     vdW  Elec       q    Type
REMARK                         _______ _______ _______ _____ _____    ______ ____
ROOT
ATOM      1  C   UNL     1      47.778   6.854  12.360  0.00  0.00    +0.000 C 
ENDROOT
BRANCH   1   2
ATOM      2  C   UNL     1      48.147   6.528  13.777  0.00  0.00    +0.000 A 
ATOM      3  C   UNL     1      49.099   7.293  14.459  0.00  0.00    +0.000 A 
ATOM      4  C   UNL     1      49.509   6.917  15.732  0.00  0.00    +0.000 A 
ATOM      5  C   UNL     1      48.941   5.785  16.307  0.00  0.00    +0.000 A 
ATOM      6  N   UNL     1      47.997   5.041  15.671  0.00  0.00    +0.000 NA
ATOM      7  C   UNL     1      47.624   5.423  14.430  0.00  0.00    +0.000 A 
BRANCH   5   8
ATOM      8  C   UNL     1      49.374   5.337  17.686  0.00  0.00    +0.000 C 
BRANCH   8   9
ATOM      9  N   UNL     1      49.421   3.889  17.786  0.00  0.00    +0.000 N 
ATOM     10  C   UNL     1      50.630   3.223  17.793  0.00  0.00    +0.000 A 
ATOM     11  C   UNL     1      51.789   3.768  18.310  0.00  0.00    +0.000 A 
ATOM     12  C   UNL     1      52.912   2.972  18.301  0.00  0.00    +0.000 A 
ATOM     13  N   UNL     1      52.921   1.713  17.842  0.00  0.00    +0.000 NA
ATOM     14  C   UNL     1      51.744   1.269  17.380  0.00  0.00    +0.000 A 
ATOM     15  N   UNL     1      50.599   1.969  17.319  0.00  0.00    +0.000 NA
ATOM     16  H   UNL     1      48.737   3.365  17.249  0.00  0.00    +0.000 HD
ENDBRANCH   8   9
ENDBRANCH   5   8
ENDBRANCH   1   2
BRANCH   1  18
ATOM     17  C   UNL     1      46.732   9.148  12.212  0.00  0.00    +0.000 C 
ATOM     18  N   UNL     1      46.609   7.696  12.135  0.00  0.00    +0.000 N 
ATOM     19  C   UNL     1      45.432   7.238  11.521  0.00  0.00    +0.000 C 
ATOM     20  O   UNL     1      44.447   7.965  11.424  0.00  0.00    +0.000 OA
BRANCH  19  21
ATOM     21  C   UNL     1      45.401   5.919  10.851  0.00  0.00    +0.000 A 
ATOM     22  C   UNL     1      45.786   5.681   9.540  0.00  0.00    +0.000 A 
ATOM     23  S   UNL     1      45.349   4.135   8.960  0.00  0.00    +0.000 S 
ATOM     24  C   UNL     1      44.576   3.754  10.423  0.00  0.00    +0.000 A 
ATOM     25  N   UNL     1      43.856   2.611  10.556  0.00  0.00    +0.000 NA
ATOM     26  C   UNL     1      43.332   2.452  11.725  0.00  0.00    +0.000 A 
ATOM     27  N   UNL     1      43.504   3.308  12.783  0.00  0.00    +0.000 N 
ATOM     28  C   UNL     1      44.293   4.437  12.719  0.00  0.00    +0.000 A 
ATOM     29  O   UNL     1      44.607   5.058  13.728  0.00  0.00    +0.000 OA
ATOM     30  C   UNL     1      44.781   4.729  11.384  0.00  0.00    +0.000 A 
ATOM     31  H   UNL     1      43.151   3.071  13.699  0.00  0.00    +0.000 HD
ENDBRANCH  19  21
ENDBRANCH   1  18
TORSDOF 5
ENDMDL
MODEL 4
REMARK VINA RESULT:    -7.321      2.037      2.706
REMARK INTER + INTRA:         -10.428
REMARK INTER:                  -9.233
REMARK INTRA:                  -1.195
REMARK UNBOUND:                -0.967
REMARK  Name = 
REMARK  6 active torsions:
REMARK  status: ('A' for Active; 'I' for Inactive)
REMARK    1  A    between atoms: C_1  and  N_2
REMARK    2  A    between atoms: N_2  and  C_3
REMARK    3  A    between atoms: C_3  and  C_4
REMARK    4  A    between atoms: C_7  and  C_8
REMARK    5  A    between atoms: C_8  and  N_9
REMARK    6  A    between atoms: C_18  and  C_20
REMARK                            x       y       z     vdW  Elec       q    Type
REMARK                         _______ _______ _______ _____ _____    ______ ____
ROOT
ATOM      1  C   UNL     1      49.265   7.030  14.722  0.00  0.00    +0.000 C 
ENDROOT
BRANCH   1   2
ATOM      2  C   UNL     1      48.003   6.622  14.022  0.00  0.00    +0.000 A 
ATOM      3  C   UNL     1      47.347   5.436  14.370  0.00  0.00    +0.000 A 
ATOM      4  C   UNL     1      46.241   5.016  13.643  0.00  0.00    +0.000 A 
ATOM      5  C   UNL     1      45.800   5.806  12.586  0.00  0.00    +0.000 A 
ATOM      6  N   UNL     1      46.408   6.973  12.247  0.00  0.00    +0.000 NA
ATOM      7  C   UNL     1      47.488   7.353  12.963  0.00  0.00    +0.000 A 
BRANCH   5   8
ATOM      8  C   UNL     1      44.606   5.371  11.763  0.00  0.00    +0.000 C 
BRANCH   8   9
ATOM      9  N   UNL     1      44.839   5.568  10.343  0.00  0.00    +0.000 N 
ATOM     10  C   UNL     1      45.234   4.515   9.542  0.00  0.00    +0.000 A 
ATOM     11  C   UNL     1      44.867   3.205   9.782  0.00  0.00    +0.000 A 
ATOM     12  C   UNL     1      45.287   2.262   8.872  0.00  0.00    +0.000 A 
ATOM     13  N   UNL     1      46.003   2.558   7.778  0.00  0.00    +0.000 NA
ATOM     14  C   UNL     1      46.291   3.857   7.624  0.00  0.00    +0.000 A 
ATOM     15  N   UNL     1      45.954   4.852   8.462  0.00  0.00    +0.000 NA
ATOM     16  H   UNL     1      45.321   6.417  10.065  0.00  0.00    +0.000 HD
ENDBRANCH   8   9
ENDBRANCH   5   8
ENDBRANCH   1   2
BRANCH   1  18
ATOM     17  C   UNL     1      48.259   9.072  15.820  0.00  0.00    +0.000 C 
ATOM     18  N   UNL     1      49.150   7.916  15.876  0.00  0.00    +0.000 N 
ATOM     19  C   UNL     1      49.578   7.566  17.167  0.00  0.00    +0.000 C 
ATOM     20  O   UNL     1      49.530   8.376  18.089  0.00  0.00    +0.000 OA
BRANCH  19  21
ATOM     21  C   UNL     1      49.962   6.171  17.476  0.00  0.00    +0.000 A 
ATOM     22  C   UNL     1      51.244   5.654  17.371  0.00  0.00    +0.000 A 
ATOM     23  S   UNL     1      51.318   3.952  17.495  0.00  0.00    +0.000 S 
ATOM     24  C   UNL     1      49.630   3.844  17.633  0.00  0.00    +0.000 A 
ATOM     25  N   UNL     1      49.004   2.638  17.632  0.00  0.00    +0.000 NA
ATOM     26  C   UNL     1      47.721   2.712  17.751  0.00  0.00    +0.000 A 
ATOM     27  N   UNL     1      47.014   3.876  17.918  0.00  0.00    +0.000 N 
ATOM     28  C   UNL     1      47.614   5.115  18.008  0.00  0.00    +0.000 A 
ATOM     29  O   UNL     1      46.990   6.103  18.377  0.00  0.00    +0.000 OA
ATOM     30  C   UNL     1      49.038   5.092  17.734  0.00  0.00    +0.000 A 
ATOM     31  H   UNL     1      46.024   3.853  18.108  0.00  0.00    +0.000 HD
ENDBRANCH  19  21
ENDBRANCH   1  18
TORSDOF 5
ENDMDL
MODEL 5
REMARK VINA RESULT:    -7.189      2.902      4.604
REMARK INTER + INTRA:         -10.258
REMARK INTER:                  -8.935
REMARK INTRA:                  -1.323
REMARK UNBOUND:                -0.967
REMARK  Name = 
REMARK  6 active torsions:
REMARK  status: ('A' for Active; 'I' for Inactive)
REMARK    1  A    between atoms: C_1  and  N_2
REMARK    2  A    between atoms: N_2  and  C_3
REMARK    3  A    between atoms: C_3  and  C_4
REMARK    4  A    between atoms: C_7  and  C_8
REMARK    5  A    between atoms: C_8  and  N_9
REMARK    6  A    between atoms: C_18  and  C_20
REMARK                            x       y       z     vdW  Elec       q    Type
REMARK                         _______ _______ _______ _____ _____    ______ ____
ROOT
ATOM      1  C   UNL     1      48.828   6.692  13.659  0.00  0.00    +0.000 C 
ENDROOT
BRANCH   1   2
ATOM      2  C   UNL     1      47.664   6.124  12.903  0.00  0.00    +0.000 A 
ATOM      3  C   UNL     1      47.346   6.594  11.625  0.00  0.00    +0.000 A 
ATOM      4  C   UNL     1      46.204   6.136  10.980  0.00  0.00    +0.000 A 
ATOM      5  C   UNL     1      45.407   5.196  11.626  0.00  0.00    +0.000 A 
ATOM      6  N   UNL     1      45.710   4.708  12.858  0.00  0.00    +0.000 NA
ATOM      7  C   UNL     1      46.821   5.178  13.467  0.00  0.00    +0.000 A 
BRANCH   5   8
ATOM      8  C   UNL     1      44.147   4.686  10.960  0.00  0.00    +0.000 C 
BRANCH   8   9
ATOM      9  N   UNL     1      44.255   4.731   9.512  0.00  0.00    +0.000 N 
ATOM     10  C   UNL     1      45.012   3.796   8.833  0.00  0.00    +0.000 A 
ATOM     11  C   UNL     1      45.189   2.501   9.279  0.00  0.00    +0.000 A 
ATOM     12  C   UNL     1      45.923   1.659   8.475  0.00  0.00    +0.000 A 
ATOM     13  N   UNL     1      46.443   2.030   7.297  0.00  0.00    +0.000 NA
ATOM     14  C   UNL     1      46.200   3.299   6.944  0.00  0.00    +0.000 A 
ATOM     15  N   UNL     1      45.520   4.208   7.663  0.00  0.00    +0.000 NA
ATOM     16  H   UNL     1      44.362   5.644   9.083  0.00  0.00    +0.000 HD
ENDBRANCH   8   9
ENDBRANCH   5   8
ENDBRANCH   1   2
BRANCH   1  18
ATOM     17  C   UNL     1      48.912   6.981  16.167  0.00  0.00    +0.000 C 
ATOM     18  N   UNL     1      48.546   7.489  14.849  0.00  0.00    +0.000 N 
ATOM     19  C   UNL     1      48.247   8.861  14.808  0.00  0.00    +0.000 C 
ATOM     20  O   UNL     1      47.942   9.469  15.830  0.00  0.00    +0.000 OA
BRANCH  19  21
ATOM     21  C   UNL     1      48.433   9.631  13.559  0.00  0.00    +0.000 A 
ATOM     22  C   UNL     1      49.634  10.172  13.126  0.00  0.00    +0.000 A 
ATOM     23  S   UNL     1      49.473  11.261  11.820  0.00  0.00    +0.000 S 
ATOM     24  C   UNL     1      47.783  11.092  11.828  0.00  0.00    +0.000 A 
ATOM     25  N   UNL     1      46.999  11.870  11.038  0.00  0.00    +0.000 NA
ATOM     26  C   UNL     1      45.736  11.624  11.146  0.00  0.00    +0.000 A 
ATOM     27  N   UNL     1      45.194  10.641  11.935  0.00  0.00    +0.000 N 
ATOM     28  C   UNL     1      45.955   9.775  12.689  0.00  0.00    +0.000 A 
ATOM     29  O   UNL     1      45.468   8.775  13.205  0.00  0.00    +0.000 OA
ATOM     30  C   UNL     1      47.367  10.109  12.710  0.00  0.00    +0.000 A 
ATOM     31  H   UNL     1      44.207  10.436  11.893  0.00  0.00    +0.000 HD
ENDBRANCH  19  21
ENDBRANCH   1  18
TORSDOF 5
ENDMDL
MODEL 6
REMARK VINA RESULT:    -6.991      3.009      4.444
REMARK INTER + INTRA:         -10.002
REMARK INTER:                  -8.974
REMARK INTRA:                  -1.028
REMARK UNBOUND:                -0.967
REMARK  Name = 
REMARK  6 active torsions:
REMARK  status: ('A' for Active; 'I' for Inactive)
REMARK    1  A    between atoms: C_1  and  N_2
REMARK    2  A    between atoms: N_2  and  C_3
REMARK    3  A    between atoms: C_3  and  C_4
REMARK    4  A    between atoms: C_7  and  C_8
REMARK    5  A    between atoms: C_8  and  N_9
REMARK    6  A    between atoms: C_18  and  C_20
REMARK                            x       y       z     vdW  Elec       q    Type
REMARK                         _______ _______ _______ _____ _____    ______ ____
ROOT
ATOM      1  C   UNL     1      49.700   8.190  17.144  0.00  0.00    +0.000 C 
ENDROOT
BRANCH   1   2
ATOM      2  C   UNL     1      49.009   7.842  15.859  0.00  0.00    +0.000 A 
ATOM      3  C   UNL     1      48.318   8.818  15.135  0.00  0.00    +0.000 A 
ATOM      4  C   UNL     1      47.593   8.462  14.005  0.00  0.00    +0.000 A 
ATOM      5  C   UNL     1      47.590   7.128  13.610  0.00  0.00    +0.000 A 
ATOM      6  N   UNL     1      48.274   6.167  14.286  0.00  0.00    +0.000 NA
ATOM      7  C   UNL     1      48.962   6.539  15.387  0.00  0.00    +0.000 A 
BRANCH   5   8
ATOM      8  C   UNL     1      46.800   6.700  12.392  0.00  0.00    +0.000 C 
BRANCH   8   9
ATOM      9  N   UNL     1      46.554   5.269  12.392  0.00  0.00    +0.000 N 
ATOM     10  C   UNL     1      45.318   4.767  12.035  0.00  0.00    +0.000 A 
ATOM     11  C   UNL     1      44.485   5.388  11.125  0.00  0.00    +0.000 A 
ATOM     12  C   UNL     1      43.305   4.749  10.821  0.00  0.00    +0.000 A 
ATOM     13  N   UNL     1      42.948   3.568  11.345  0.00  0.00    +0.000 NA
ATOM     14  C   UNL     1      43.831   3.038  12.202  0.00  0.00    +0.000 A 
ATOM     15  N   UNL     1      44.996   3.588  12.586  0.00  0.00    +0.000 NA
ATOM     16  H   UNL     1      46.939   4.733  13.162  0.00  0.00    +0.000 HD
ENDBRANCH   8   9
ENDBRANCH   5   8
ENDBRANCH   1   2
BRANCH   1  18
ATOM     17  C   UNL     1      47.836   9.125  18.569  0.00  0.00    +0.000 C 
ATOM     18  N   UNL     1      48.913   8.161  18.372  0.00  0.00    +0.000 N 
ATOM     19  C   UNL     1      48.890   7.065  19.251  0.00  0.00    +0.000 C 
ATOM     20  O   UNL     1      48.272   7.120  20.310  0.00  0.00    +0.000 OA
BRANCH  19  21
ATOM     21  C   UNL     1      49.488   5.772  18.852  0.00  0.00    +0.000 A 
ATOM     22  C   UNL     1      50.839   5.463  18.919  0.00  0.00    +0.000 A 
ATOM     23  S   UNL     1      51.261   4.022  18.107  0.00  0.00    +0.000 S 
ATOM     24  C   UNL     1      49.661   3.793  17.586  0.00  0.00    +0.000 A 
ATOM     25  N   UNL     1      49.345   2.801  16.714  0.00  0.00    +0.000 NA
ATOM     26  C   UNL     1      48.091   2.744  16.415  0.00  0.00    +0.000 A 
ATOM     27  N   UNL     1      47.121   3.558  16.943  0.00  0.00    +0.000 N 
ATOM     28  C   UNL     1      47.383   4.523  17.893  0.00  0.00    +0.000 A 
ATOM     29  O   UNL     1      46.480   5.079  18.507  0.00  0.00    +0.000 OA
ATOM     30  C   UNL     1      48.798   4.717  18.149  0.00  0.00    +0.000 A 
ATOM     31  H   UNL     1      46.146   3.392  16.744  0.00  0.00    +0.000 HD
ENDBRANCH  19  21
ENDBRANCH   1  18
TORSDOF 5
ENDMDL
MODEL 7
REMARK VINA RESULT:    -6.873      3.151      9.319
REMARK INTER + INTRA:          -9.850
REMARK INTER:                  -8.826
REMARK INTRA:                  -1.024
REMARK UNBOUND:                -0.967
REMARK  Name = 
REMARK  6 active torsions:
REMARK  status: ('A' for Active; 'I' for Inactive)
REMARK    1  A    between atoms: C_1  and  N_2
REMARK    2  A    between atoms: N_2  and  C_3
REMARK    3  A    between atoms: C_3  and  C_4
REMARK    4  A    between atoms: C_7  and  C_8
REMARK    5  A    between atoms: C_8  and  N_9
REMARK    6  A    between atoms: C_18  and  C_20
REMARK                            x       y       z     vdW  Elec       q    Type
REMARK                         _______ _______ _______ _____ _____    ______ ____
ROOT
ATOM      1  C   UNL     1      47.114   5.382  12.737  0.00  0.00    +0.000 C 
ENDROOT
BRANCH   1   2
ATOM      2  C   UNL     1      47.340   5.195  14.208  0.00  0.00    +0.000 A 
ATOM      3  C   UNL     1      48.208   6.038  14.909  0.00  0.00    +0.000 A 
ATOM      4  C   UNL     1      48.491   5.789  16.246  0.00  0.00    +0.000 A 
ATOM      5  C   UNL     1      47.881   4.702  16.863  0.00  0.00    +0.000 A 
ATOM      6  N   UNL     1      47.016   3.884  16.207  0.00  0.00    +0.000 NA
ATOM      7  C   UNL     1      46.767   4.143  14.905  0.00  0.00    +0.000 A 
BRANCH   5   8
ATOM      8  C   UNL     1      48.177   4.391  18.315  0.00  0.00    +0.000 C 
BRANCH   8   9
ATOM      9  N   UNL     1      47.305   5.135  19.207  0.00  0.00    +0.000 N 
ATOM     10  C   UNL     1      47.826   6.055  20.095  0.00  0.00    +0.000 A 
ATOM     11  C   UNL     1      48.973   6.782  19.843  0.00  0.00    +0.000 A 
ATOM     12  C   UNL     1      49.349   7.703  20.793  0.00  0.00    +0.000 A 
ATOM     13  N   UNL     1      48.655   7.933  21.916  0.00  0.00    +0.000 NA
ATOM     14  C   UNL     1      47.547   7.192  22.059  0.00  0.00    +0.000 A 
ATOM     15  N   UNL     1      47.105   6.251  21.209  0.00  0.00    +0.000 NA
ATOM     16  H   UNL     1      46.541   4.627  19.639  0.00  0.00    +0.000 HD
ENDBRANCH   8   9
ENDBRANCH   5   8
ENDBRANCH   1   2
BRANCH   1  18
ATOM     17  C   UNL     1      47.068   7.803  12.019  0.00  0.00    +0.000 C 
ATOM     18  N   UNL     1      46.365   6.557  12.306  0.00  0.00    +0.000 N 
ATOM     19  C   UNL     1      45.048   6.500  11.821  0.00  0.00    +0.000 C 
ATOM     20  O   UNL     1      44.434   7.526  11.543  0.00  0.00    +0.000 OA
BRANCH  19  21
ATOM     21  C   UNL     1      44.423   5.198  11.501  0.00  0.00    +0.000 A 
ATOM     22  C   UNL     1      43.565   4.497  12.335  0.00  0.00    +0.000 A 
ATOM     23  S   UNL     1      43.256   2.897  11.825  0.00  0.00    +0.000 S 
ATOM     24  C   UNL     1      44.307   3.066  10.503  0.00  0.00    +0.000 A 
ATOM     25  N   UNL     1      44.619   2.004   9.716  0.00  0.00    +0.000 NA
ATOM     26  C   UNL     1      45.424   2.286   8.747  0.00  0.00    +0.000 A 
ATOM     27  N   UNL     1      45.905   3.540   8.466  0.00  0.00    +0.000 N 
ATOM     28  C   UNL     1      45.550   4.661   9.187  0.00  0.00    +0.000 A 
ATOM     29  O   UNL     1      45.812   5.789   8.786  0.00  0.00    +0.000 OA
ATOM     30  C   UNL     1      44.765   4.367  10.371  0.00  0.00    +0.000 A 
ATOM     31  H   UNL     1      46.447   3.707   7.632  0.00  0.00    +0.000 HD
ENDBRANCH  19  21
ENDBRANCH   1  18
TORSDOF 5
ENDMDL
MODEL 8
REMARK VINA RESULT:    -6.457      2.010      3.077
REMARK INTER + INTRA:          -9.311
REMARK INTER:                  -7.848
REMARK INTRA:                  -1.464
REMARK UNBOUND:                -0.967
REMARK  Name = 
REMARK  6 active torsions:
REMARK  status: ('A' for Active; 'I' for Inactive)
REMARK    1  A    between atoms: C_1  and  N_2
REMARK    2  A    between atoms: N_2  and  C_3
REMARK    3  A    between atoms: C_3  and  C_4
REMARK    4  A    between atoms: C_7  and  C_8
REMARK    5  A    between atoms: C_8  and  N_9
REMARK    6  A    between atoms: C_18  and  C_20
REMARK                            x       y       z     vdW  Elec       q    Type
REMARK                         _______ _______ _______ _____ _____    ______ ____
ROOT
ATOM      1  C   UNL     1      50.106   9.175  14.208  0.00  0.00    +0.000 C 
ENDROOT
BRANCH   1   2
ATOM      2  C   UNL     1      48.843   8.599  13.640  0.00  0.00    +0.000 A 
ATOM      3  C   UNL     1      48.886   7.734  12.542  0.00  0.00    +0.000 A 
ATOM      4  C   UNL     1      47.705   7.292  11.959  0.00  0.00    +0.000 A 
ATOM      5  C   UNL     1      46.497   7.714  12.503  0.00  0.00    +0.000 A 
ATOM      6  N   UNL     1      46.432   8.535  13.585  0.00  0.00    +0.000 NA
ATOM      7  C   UNL     1      47.595   8.958  14.125  0.00  0.00    +0.000 A 
BRANCH   5   8
ATOM      8  C   UNL     1      45.190   7.264  11.885  0.00  0.00    +0.000 C 
BRANCH   8   9
ATOM      9  N   UNL     1      44.699   6.046  12.506  0.00  0.00    +0.000 N 
ATOM     10  C   UNL     1      44.423   4.929  11.742  0.00  0.00    +0.000 A 
ATOM     11  C   UNL     1      45.100   4.625  10.577  0.00  0.00    +0.000 A 
ATOM     12  C   UNL     1      44.758   3.452   9.944  0.00  0.00    +0.000 A 
ATOM     13  N   UNL     1      43.833   2.602  10.412  0.00  0.00    +0.000 NA
ATOM     14  C   UNL     1      43.247   2.976  11.557  0.00  0.00    +0.000 A 
ATOM     15  N   UNL     1      43.487   4.109  12.240  0.00  0.00    +0.000 NA
ATOM     16  H   UNL     1      44.007   6.146  13.240  0.00  0.00    +0.000 HD
ENDBRANCH   8   9
ENDBRANCH   5   8
ENDBRANCH   1   2
BRANCH   1  18
ATOM     17  C   UNL     1      52.468   8.342  13.882  0.00  0.00    +0.000 C 
ATOM     18  N   UNL     1      51.179   8.253  14.561  0.00  0.00    +0.000 N 
ATOM     19  C   UNL     1      51.187   7.490  15.741  0.00  0.00    +0.000 C 
ATOM     20  O   UNL     1      52.077   6.671  15.955  0.00  0.00    +0.000 OA
BRANCH  19  21
ATOM     21  C   UNL     1      50.205   7.760  16.814  0.00  0.00    +0.000 A 
ATOM     22  C   UNL     1      50.332   8.743  17.784  0.00  0.00    +0.000 A 
ATOM     23  S   UNL     1      49.203   8.609  19.058  0.00  0.00    +0.000 S 
ATOM     24  C   UNL     1      48.544   7.196  18.387  0.00  0.00    +0.000 A 
ATOM     25  N   UNL     1      47.613   6.471  19.059  0.00  0.00    +0.000 NA
ATOM     26  C   UNL     1      47.199   5.427  18.422  0.00  0.00    +0.000 A 
ATOM     27  N   UNL     1      47.598   5.070  17.158  0.00  0.00    +0.000 N 
ATOM     28  C   UNL     1      48.478   5.820  16.407  0.00  0.00    +0.000 A 
ATOM     29  O   UNL     1      48.645   5.604  15.212  0.00  0.00    +0.000 OA
ATOM     30  C   UNL     1      49.077   6.920  17.139  0.00  0.00    +0.000 A 
ATOM     31  H   UNL     1      47.157   4.299  16.679  0.00  0.00    +0.000 HD
ENDBRANCH  19  21
ENDBRANCH   1  18
TORSDOF 5
ENDMDL
MODEL 9
REMARK VINA RESULT:    -6.382      2.270      3.380
REMARK INTER + INTRA:          -9.214
REMARK INTER:                  -8.287
REMARK INTRA:                  -0.927
REMARK UNBOUND:                -0.967
REMARK  Name = 
REMARK  6 active torsions:
REMARK  status: ('A' for Active; 'I' for Inactive)
REMARK    1  A    between atoms: C_1  and  N_2
REMARK    2  A    between atoms: N_2  and  C_3
REMARK    3  A    between atoms: C_3  and  C_4
REMARK    4  A    between atoms: C_7  and  C_8
REMARK    5  A    between atoms: C_8  and  N_9
REMARK    6  A    between atoms: C_18  and  C_20
REMARK                            x       y       z     vdW  Elec       q    Type
REMARK                         _______ _______ _______ _____ _____    ______ ____
ROOT
ATOM      1  C   UNL     1      49.368   7.764  15.136  0.00  0.00    +0.000 C 
ENDROOT
BRANCH   1   2
ATOM      2  C   UNL     1      48.271   7.521  14.142  0.00  0.00    +0.000 A 
ATOM      3  C   UNL     1      47.264   8.472  13.946  0.00  0.00    +0.000 A 
ATOM      4  C   UNL     1      46.197   8.189  13.103  0.00  0.00    +0.000 A 
ATOM      5  C   UNL     1      46.169   6.960  12.454  0.00  0.00    +0.000 A 
ATOM      6  N   UNL     1      47.150   6.031  12.612  0.00  0.00    +0.000 NA
ATOM      7  C   UNL     1      48.170   6.327  13.446  0.00  0.00    +0.000 A 
BRANCH   5   8
ATOM      8  C   UNL     1      45.015   6.612  11.539  0.00  0.00    +0.000 C 
BRANCH   8   9
ATOM      9  N   UNL     1      44.840   5.174  11.425  0.00  0.00    +0.000 N 
ATOM     10  C   UNL     1      44.966   4.544  10.203  0.00  0.00    +0.000 A 
ATOM     11  C   UNL     1      45.805   4.997   9.203  0.00  0.00    +0.000 A 
ATOM     12  C   UNL     1      45.873   4.242   8.056  0.00  0.00    +0.000 A 
ATOM     13  N   UNL     1      45.192   3.101   7.880  0.00  0.00    +0.000 NA
ATOM     14  C   UNL     1      44.421   2.736   8.914  0.00  0.00    +0.000 A 
ATOM     15  N   UNL     1      44.263   3.411  10.065  0.00  0.00    +0.000 NA
ATOM     16  H   UNL     1      44.084   4.756  11.957  0.00  0.00    +0.000 HD
ENDBRANCH   8   9
ENDBRANCH   5   8
ENDBRANCH   1   2
BRANCH   1  18
ATOM     17  C   UNL     1      48.424   9.392  16.821  0.00  0.00    +0.000 C 
ATOM     18  N   UNL     1      48.988   8.083  16.508  0.00  0.00    +0.000 N 
ATOM     19  C   UNL     1      48.812   7.111  17.507  0.00  0.00    +0.000 C 
ATOM     20  O   UNL     1      48.567   7.437  18.666  0.00  0.00    +0.000 OA
BRANCH  19  21
ATOM     21  C   UNL     1      48.776   5.674  17.158  0.00  0.00    +0.000 A 
ATOM     22  C   UNL     1      47.626   4.946  16.894  0.00  0.00    +0.000 A 
ATOM     23  S   UNL     1      47.874   3.258  16.827  0.00  0.00    +0.000 S 
ATOM     24  C   UNL     1      49.519   3.439  17.209  0.00  0.00    +0.000 A 
ATOM     25  N   UNL     1      50.304   2.358  17.451  0.00  0.00    +0.000 NA
ATOM     26  C   UNL     1      51.532   2.649  17.721  0.00  0.00    +0.000 A 
ATOM     27  N   UNL     1      52.054   3.919  17.723  0.00  0.00    +0.000 N 
ATOM     28  C   UNL     1      51.315   5.038  17.403  0.00  0.00    +0.000 A 
ATOM     29  O   UNL     1      51.850   6.121  17.197  0.00  0.00    +0.000 OA
ATOM     30  C   UNL     1      49.899   4.770  17.236  0.00  0.00    +0.000 A 
ATOM     31  H   UNL     1      53.045   4.066  17.841  0.00  0.00    +0.000 HD
ENDBRANCH  19  21
ENDBRANCH   1  18
TORSDOF 5
ENDMDL
