MODEL 1
REMARK VINA RESULT:    -7.261      0.000      0.000
REMARK INTER + INTRA:         -10.114
REMARK INTER:                  -9.383
REMARK INTRA:                  -0.731
REMARK UNBOUND:                -0.731
REMARK  Name = 
REMARK  5 active torsions:
REMARK  status: ('A' for Active; 'I' for Inactive)
REMARK    1  A    between atoms: C_2  and  C_18
REMARK    2  A    between atoms: N_3  and  C_4
REMARK    3  A    between atoms: C_4  and  C_5
REMARK    4  A    between atoms: C_8  and  C_9
REMARK    5  A    between atoms: C_9  and  N_10
REMARK                            x       y       z     vdW  Elec       q    Type
REMARK                         _______ _______ _______ _____ _____    ______ ____
ROOT
ATOM      1  O   UNL     1      48.601   6.828  12.963  0.00  0.00    +0.000 OA
ATOM      2  C   UNL     1      47.900   6.841  13.967  0.00  0.00    +0.000 C 
ATOM      3  N   UNL     1      46.594   7.234  13.961  0.00  0.00    +0.000 N 
ATOM      4  H   UNL     1      45.990   7.010  14.738  0.00  0.00    +0.000 HD
ENDROOT
BRANCH   2   5
ATOM      5  C   UNL     1      48.440   6.513  15.282  0.00  0.00    +0.000 A 
ATOM      6  C   UNL     1      49.292   7.332  16.007  0.00  0.00    +0.000 A 
ATOM      7  S   UNL     1      50.029   6.507  17.318  0.00  0.00    +0.000 S 
ATOM      8  C   UNL     1      49.177   5.073  16.969  0.00  0.00    +0.000 A 
ATOM      9  N   UNL     1      49.400   3.914  17.646  0.00  0.00    +0.000 NA
ATOM     10  C   UNL     1      48.643   2.933  17.274  0.00  0.00    +0.000 A 
ATOM     11  N   UNL     1      47.653   3.015  16.323  0.00  0.00    +0.000 N 
ATOM     12  C   UNL     1      47.343   4.186  15.670  0.00  0.00    +0.000 A 
ATOM     13  O   UNL     1      46.318   4.300  15.005  0.00  0.00    +0.000 OA
ATOM     14  C   UNL     1      48.266   5.262  15.952  0.00  0.00    +0.000 A 
ATOM     15  H   UNL     1      47.021   2.246  16.164  0.00  0.00    +0.000 HD
ENDBRANCH   2   5
BRANCH   3  16
ATOM     16  C   UNL     1      45.987   7.697  12.730  0.00  0.00    +0.000 C 
BRANCH  16  17
ATOM     17  C   UNL     1      45.610   6.548  11.830  0.00  0.00    +0.000 A 
ATOM     18  N   UNL     1      44.843   5.566  12.343  0.00  0.00    +0.000 NA
ATOM     19  C   UNL     1      44.566   4.533  11.523  0.00  0.00    +0.000 A 
ATOM     20  C   UNL     1      45.036   4.434  10.231  0.00  0.00    +0.000 A 
ATOM     21  C   UNL     1      45.849   5.471   9.823  0.00  0.00    +0.000 A 
ATOM     22  N   UNL     1      46.161   6.525  10.598  0.00  0.00    +0.000 NA
BRANCH  20  23
ATOM     23  C   UNL     1      44.688   3.288   9.334  0.00  0.00    +0.000 C 
BRANCH  23  24
ATOM     24  N   UNL     1      45.831   2.803   8.535  0.00  0.00    +0.000 NA
ATOM     25  C   UNL     1      45.812   1.333   8.417  0.00  0.00    +0.000 C 
ATOM     26  C   UNL     1      46.930   0.800   7.520  0.00  0.00    +0.000 C 
ATOM     27  C   UNL     1      46.882   1.451   6.145  0.00  0.00    +0.000 C 
ATOM     28  C   UNL     1      46.928   2.964   6.296  0.00  0.00    +0.000 C 
ATOM     29  C   UNL     1      45.811   3.457   7.216  0.00  0.00    +0.000 C 
ENDBRANCH  23  24
ENDBRANCH  20  23
ENDBRANCH  16  17
ENDBRANCH   3  16
TORSDOF 5
ENDMDL
MODEL 2
REMARK VINA RESULT:    -7.168      2.018      2.638
REMARK INTER + INTRA:          -9.994
REMARK INTER:                  -9.708
REMARK INTRA:                  -0.286
REMARK UNBOUND:                -0.731
REMARK  Name = 
REMARK  5 active torsions:
REMARK  status: ('A' for Active; 'I' for Inactive)
REMARK    1  A    between atoms: C_2  and  C_18
REMARK    2  A    between atoms: N_3  and  C_4
REMARK    3  A    between atoms: C_4  and  C_5
REMARK    4  A    between atoms: C_8  and  C_9
REMARK    5  A    between atoms: C_9  and  N_10
REMARK                            x       y       z     vdW  Elec       q    Type
REMARK                         _______ _______ _______ _____ _____    ______ ____
ROOT
ATOM      1  O   UNL     1      50.291   6.570  15.710  0.00  0.00    +0.000 OA
ATOM      2  C   UNL     1      49.110   6.597  16.031  0.00  0.00    +0.000 C 
ATOM      3  N   UNL     1      48.089   6.502  15.132  0.00  0.00    +0.000 N 
ATOM      4  H   UNL     1      47.152   6.291  15.444  0.00  0.00    +0.000 HD
ENDROOT
BRANCH   2   5
ATOM      5  C   UNL     1      48.698   6.822  17.412  0.00  0.00    +0.000 A 
ATOM      6  C   UNL     1      48.549   8.072  17.994  0.00  0.00    +0.000 A 
ATOM      7  S   UNL     1      48.422   7.985  19.702  0.00  0.00    +0.000 S 
ATOM      8  C   UNL     1      48.504   6.283  19.678  0.00  0.00    +0.000 A 
ATOM      9  N   UNL     1      48.549   5.544  20.820  0.00  0.00    +0.000 NA
ATOM     10  C   UNL     1      48.575   4.266  20.618  0.00  0.00    +0.000 A 
ATOM     11  N   UNL     1      48.511   3.659  19.386  0.00  0.00    +0.000 N 
ATOM     12  C   UNL     1      48.387   4.366  18.212  0.00  0.00    +0.000 A 
ATOM     13  O   UNL     1      48.098   3.813  17.155  0.00  0.00    +0.000 OA
ATOM     14  C   UNL     1      48.506   5.796  18.389  0.00  0.00    +0.000 A 
ATOM     15  H   UNL     1      48.416   2.658  19.305  0.00  0.00    +0.000 HD
ENDBRANCH   2   5
BRANCH   3  16
ATOM     16  C   UNL     1      48.383   6.398  13.718  0.00  0.00    +0.000 C 
BRANCH  16  17
ATOM     17  C   UNL     1      47.173   5.964  12.929  0.00  0.00    +0.000 A 
ATOM     18  N   UNL     1      46.553   4.824  13.293  0.00  0.00    +0.000 NA
ATOM     19  C   UNL     1      45.506   4.445  12.536  0.00  0.00    +0.000 A 
ATOM     20  C   UNL     1      45.068   5.142  11.430  0.00  0.00    +0.000 A 
ATOM     21  C   UNL     1      45.801   6.267  11.121  0.00  0.00    +0.000 A 
ATOM     22  N   UNL     1      46.857   6.693  11.838  0.00  0.00    +0.000 NA
BRANCH  20  23
ATOM     23  C   UNL     1      43.883   4.710  10.625  0.00  0.00    +0.000 C 
BRANCH  23  24
ATOM     24  N   UNL     1      44.240   3.872   9.463  0.00  0.00    +0.000 NA
ATOM     25  C   UNL     1      45.379   4.447   8.723  0.00  0.00    +0.000 C 
ATOM     26  C   UNL     1      45.836   3.559   7.565  0.00  0.00    +0.000 C 
ATOM     27  C   UNL     1      46.164   2.155   8.051  0.00  0.00    +0.000 C 
ATOM     28  C   UNL     1      44.965   1.578   8.789  0.00  0.00    +0.000 C 
ATOM     29  C   UNL     1      44.524   2.502   9.923  0.00  0.00    +0.000 C 
ENDBRANCH  23  24
ENDBRANCH  20  23
ENDBRANCH  16  17
ENDBRANCH   3  16
TORSDOF 5
ENDMDL
MODEL 3
REMARK VINA RESULT:    -7.103      3.730      9.338
REMARK INTER + INTRA:          -9.910
REMARK INTER:                  -9.209
REMARK INTRA:                  -0.701
REMARK UNBOUND:                -0.731
REMARK  Name = 
REMARK  5 active torsions:
REMARK  status: ('A' for Active; 'I' for Inactive)
REMARK    1  A    between atoms: C_2  and  C_18
REMARK    2  A    between atoms: N_3  and  C_4
REMARK    3  A    between atoms: C_4  and  C_5
REMARK    4  A    between atoms: C_8  and  C_9
REMARK    5  A    between atoms: C_9  and  N_10
REMARK                            x       y       z     vdW  Elec       q    Type
REMARK                         _______ _______ _______ _____ _____    ______ ____
ROOT
ATOM      1  O   UNL     1      47.297   3.102  13.909  0.00  0.00    +0.000 OA
ATOM      2  C   UNL     1      46.840   4.195  14.218  0.00  0.00    +0.000 C 
ATOM      3  N   UNL     1      46.698   4.608  15.510  0.00  0.00    +0.000 N 
ATOM      4  H   UNL     1      46.547   5.584  15.721  0.00  0.00    +0.000 HD
ENDROOT
BRANCH   2   5
ATOM      5  C   UNL     1      46.326   5.120  13.214  0.00  0.00    +0.000 A 
ATOM      6  C   UNL     1      46.970   6.281  12.812  0.00  0.00    +0.000 A 
ATOM      7  S   UNL     1      45.942   7.316  11.910  0.00  0.00    +0.000 S 
ATOM      8  C   UNL     1      44.653   6.205  11.994  0.00  0.00    +0.000 A 
ATOM      9  N   UNL     1      43.415   6.493  11.508  0.00  0.00    +0.000 NA
ATOM     10  C   UNL     1      42.566   5.524  11.625  0.00  0.00    +0.000 A 
ATOM     11  N   UNL     1      42.851   4.281  12.138  0.00  0.00    +0.000 N 
ATOM     12  C   UNL     1      44.107   3.923  12.570  0.00  0.00    +0.000 A 
ATOM     13  O   UNL     1      44.399   2.754  12.803  0.00  0.00    +0.000 OA
ATOM     14  C   UNL     1      45.042   5.026  12.593  0.00  0.00    +0.000 A 
ATOM     15  H   UNL     1      42.175   3.533  12.093  0.00  0.00    +0.000 HD
ENDBRANCH   2   5
BRANCH   3  16
ATOM     16  C   UNL     1      47.064   3.719  16.594  0.00  0.00    +0.000 C 
BRANCH  16  17
ATOM     17  C   UNL     1      48.514   3.878  16.978  0.00  0.00    +0.000 A 
ATOM     18  N   UNL     1      49.003   5.128  17.103  0.00  0.00    +0.000 NA
ATOM     19  C   UNL     1      50.313   5.230  17.401  0.00  0.00    +0.000 A 
ATOM     20  C   UNL     1      51.150   4.145  17.557  0.00  0.00    +0.000 A 
ATOM     21  C   UNL     1      50.556   2.916  17.361  0.00  0.00    +0.000 A 
ATOM     22  N   UNL     1      49.255   2.754  17.061  0.00  0.00    +0.000 NA
BRANCH  20  23
ATOM     23  C   UNL     1      52.595   4.290  17.915  0.00  0.00    +0.000 C 
BRANCH  23  24
ATOM     24  N   UNL     1      52.949   3.639  19.192  0.00  0.00    +0.000 NA
ATOM     25  C   UNL     1      54.317   3.087  19.146  0.00  0.00    +0.000 C 
ATOM     26  C   UNL     1      54.753   2.484  20.482  0.00  0.00    +0.000 C 
ATOM     27  C   UNL     1      54.620   3.500  21.607  0.00  0.00    +0.000 C 
ATOM     28  C   UNL     1      53.196   4.034  21.646  0.00  0.00    +0.000 C 
ATOM     29  C   UNL     1      52.788   4.607  20.289  0.00  0.00    +0.000 C 
ENDBRANCH  23  24
ENDBRANCH  20  23
ENDBRANCH  16  17
ENDBRANCH   3  16
TORSDOF 5
ENDMDL
MODEL 4
REMARK VINA RESULT:    -6.855      2.400      4.240
REMARK INTER + INTRA:          -9.590
REMARK INTER:                  -9.196
REMARK INTRA:                  -0.393
REMARK UNBOUND:                -0.731
REMARK  Name = 
REMARK  5 active torsions:
REMARK  status: ('A' for Active; 'I' for Inactive)
REMARK    1  A    between atoms: C_2  and  C_18
REMARK    2  A    between atoms: N_3  and  C_4
REMARK    3  A    between atoms: C_4  and  C_5
REMARK    4  A    between atoms: C_8  and  C_9
REMARK    5  A    between atoms: C_9  and  N_10
REMARK                            x       y       z     vdW  Elec       q    Type
REMARK                         _______ _______ _______ _____ _____    ______ ____
ROOT
ATOM      1  O   UNL     1      49.518   6.148  15.590  0.00  0.00    +0.000 OA
ATOM      2  C   UNL     1      48.767   6.918  15.007  0.00  0.00    +0.000 C 
ATOM      3  N   UNL     1      47.647   6.511  14.342  0.00  0.00    +0.000 N 
ATOM      4  H   UNL     1      46.936   7.179  14.083  0.00  0.00    +0.000 HD
ENDROOT
BRANCH   2   5
ATOM      5  C   UNL     1      49.061   8.344  14.906  0.00  0.00    +0.000 A 
ATOM      6  C   UNL     1      49.264   9.183  15.991  0.00  0.00    +0.000 A 
ATOM      7  S   UNL     1      49.216  10.840  15.551  0.00  0.00    +0.000 S 
ATOM      8  C   UNL     1      48.984  10.455  13.906  0.00  0.00    +0.000 A 
ATOM      9  N   UNL     1      48.762  11.410  12.963  0.00  0.00    +0.000 NA
ATOM     10  C   UNL     1      48.642  10.945  11.762  0.00  0.00    +0.000 A 
ATOM     11  N   UNL     1      48.770   9.622  11.410  0.00  0.00    +0.000 N 
ATOM     12  C   UNL     1      49.071   8.635  12.320  0.00  0.00    +0.000 A 
ATOM     13  O   UNL     1      49.411   7.511  11.962  0.00  0.00    +0.000 OA
ATOM     14  C   UNL     1      49.064   9.097  13.690  0.00  0.00    +0.000 A 
ATOM     15  H   UNL     1      48.782   9.342  10.442  0.00  0.00    +0.000 HD
ENDBRANCH   2   5
BRANCH   3  16
ATOM     16  C   UNL     1      47.324   5.101  14.275  0.00  0.00    +0.000 C 
BRANCH  16  17
ATOM     17  C   UNL     1      46.477   4.782  13.068  0.00  0.00    +0.000 A 
ATOM     18  N   UNL     1      46.296   5.749  12.147  0.00  0.00    +0.000 NA
ATOM     19  C   UNL     1      45.496   5.443  11.108  0.00  0.00    +0.000 A 
ATOM     20  C   UNL     1      44.860   4.228  10.963  0.00  0.00    +0.000 A 
ATOM     21  C   UNL     1      45.078   3.329  11.986  0.00  0.00    +0.000 A 
ATOM     22  N   UNL     1      45.864   3.580  13.048  0.00  0.00    +0.000 NA
BRANCH  20  23
ATOM     23  C   UNL     1      43.999   3.907   9.783  0.00  0.00    +0.000 C 
BRANCH  23  24
ATOM     24  N   UNL     1      44.749   3.323   8.653  0.00  0.00    +0.000 NA
ATOM     25  C   UNL     1      45.749   4.273   8.131  0.00  0.00    +0.000 C 
ATOM     26  C   UNL     1      46.609   3.670   7.019  0.00  0.00    +0.000 C 
ATOM     27  C   UNL     1      47.279   2.386   7.483  0.00  0.00    +0.000 C 
ATOM     28  C   UNL     1      46.223   1.416   7.994  0.00  0.00    +0.000 C 
ATOM     29  C   UNL     1      45.371   2.061   9.087  0.00  0.00    +0.000 C 
ENDBRANCH  23  24
ENDBRANCH  20  23
ENDBRANCH  16  17
ENDBRANCH   3  16
TORSDOF 5
ENDMDL
MODEL 5
REMARK VINA RESULT:    -6.580      2.752      3.981
REMARK INTER + INTRA:          -9.234
REMARK INTER:                  -8.896
REMARK INTRA:                  -0.338
REMARK UNBOUND:                -0.731
REMARK  Name = 
REMARK  5 active torsions:
REMARK  status: ('A' for Active; 'I' for Inactive)
REMARK    1  A    between atoms: C_2  and  C_18
REMARK    2  A    between atoms: N_3  and  C_4
REMARK    3  A    between atoms: C_4  and  C_5
REMARK    4  A    between atoms: C_8  and  C_9
REMARK    5  A    between atoms: C_9  and  N_10
REMARK                            x       y       z     vdW  Elec       q    Type
REMARK                         _______ _______ _______ _____ _____    ______ ____
ROOT
ATOM      1  O   UNL     1      49.999   5.780  16.085  0.00  0.00    +0.000 OA
ATOM      2  C   UNL     1      48.942   6.356  16.309  0.00  0.00    +0.000 C 
ATOM      3  N   UNL     1      48.083   6.751  15.327  0.00  0.00    +0.000 N 
ATOM      4  H   UNL     1      47.131   7.001  15.551  0.00  0.00    +0.000 HD
ENDROOT
BRANCH   2   5
ATOM      5  C   UNL     1      48.556   6.745  17.661  0.00  0.00    +0.000 A 
ATOM      6  C   UNL     1      48.271   5.854  18.684  0.00  0.00    +0.000 A 
ATOM      7  S   UNL     1      47.500   6.613  20.014  0.00  0.00    +0.000 S 
ATOM      8  C   UNL     1      47.593   8.143  19.268  0.00  0.00    +0.000 A 
ATOM      9  N   UNL     1      47.027   9.252  19.816  0.00  0.00    +0.000 NA
ATOM     10  C   UNL     1      47.222  10.334  19.134  0.00  0.00    +0.000 A 
ATOM     11  N   UNL     1      47.969  10.418  17.982  0.00  0.00    +0.000 N 
ATOM     12  C   UNL     1      48.622   9.337  17.437  0.00  0.00    +0.000 A 
ATOM     13  O   UNL     1      49.464   9.471  16.555  0.00  0.00    +0.000 OA
ATOM     14  C   UNL     1      48.303   8.086  18.088  0.00  0.00    +0.000 A 
ATOM     15  H   UNL     1      48.179  11.312  17.564  0.00  0.00    +0.000 HD
ENDBRANCH   2   5
BRANCH   3  16
ATOM     16  C   UNL     1      48.424   6.523  13.938  0.00  0.00    +0.000 C 
BRANCH  16  17
ATOM     17  C   UNL     1      47.218   6.121  13.127  0.00  0.00    +0.000 A 
ATOM     18  N   UNL     1      46.788   6.965  12.168  0.00  0.00    +0.000 NA
ATOM     19  C   UNL     1      45.681   6.594  11.498  0.00  0.00    +0.000 A 
ATOM     20  C   UNL     1      44.981   5.434  11.757  0.00  0.00    +0.000 A 
ATOM     21  C   UNL     1      45.482   4.668  12.788  0.00  0.00    +0.000 A 
ATOM     22  N   UNL     1      46.581   4.989  13.493  0.00  0.00    +0.000 NA
BRANCH  20  23
ATOM     23  C   UNL     1      43.769   5.035  10.975  0.00  0.00    +0.000 C 
BRANCH  23  24
ATOM     24  N   UNL     1      44.082   4.197   9.800  0.00  0.00    +0.000 NA
ATOM     25  C   UNL     1      45.301   4.672   9.118  0.00  0.00    +0.000 C 
ATOM     26  C   UNL     1      45.708   3.774   7.949  0.00  0.00    +0.000 C 
ATOM     27  C   UNL     1      45.871   2.330   8.401  0.00  0.00    +0.000 C 
ATOM     28  C   UNL     1      44.591   1.861   9.078  0.00  0.00    +0.000 C 
ATOM     29  C   UNL     1      44.205   2.794  10.226  0.00  0.00    +0.000 C 
ENDBRANCH  23  24
ENDBRANCH  20  23
ENDBRANCH  16  17
ENDBRANCH   3  16
TORSDOF 5
ENDMDL
MODEL 6
REMARK VINA RESULT:    -6.511      3.016      4.010
REMARK INTER + INTRA:          -9.145
REMARK INTER:                  -8.413
REMARK INTRA:                  -0.732
REMARK UNBOUND:                -0.731
REMARK  Name = 
REMARK  5 active torsions:
REMARK  status: ('A' for Active; 'I' for Inactive)
REMARK    1  A    between atoms: C_2  and  C_18
REMARK    2  A    between atoms: N_3  and  C_4
REMARK    3  A    between atoms: C_4  and  C_5
REMARK    4  A    between atoms: C_8  and  C_9
REMARK    5  A    between atoms: C_9  and  N_10
REMARK                            x       y       z     vdW  Elec       q    Type
REMARK                         _______ _______ _______ _____ _____    ______ ____
ROOT
ATOM      1  O   UNL     1      50.504   5.415  16.639  0.00  0.00    +0.000 OA
ATOM      2  C   UNL     1      49.483   5.863  17.145  0.00  0.00    +0.000 C 
ATOM      3  N   UNL     1      48.552   6.574  16.447  0.00  0.00    +0.000 N 
ATOM      4  H   UNL     1      47.629   6.720  16.829  0.00  0.00    +0.000 HD
ENDROOT
BRANCH   2   5
ATOM      5  C   UNL     1      49.222   5.741  18.576  0.00  0.00    +0.000 A 
ATOM      6  C   UNL     1      49.265   4.550  19.283  0.00  0.00    +0.000 A 
ATOM      7  S   UNL     1      48.555   4.690  20.838  0.00  0.00    +0.000 S 
ATOM      8  C   UNL     1      48.239   6.349  20.608  0.00  0.00    +0.000 A 
ATOM      9  N   UNL     1      47.549   7.088  21.518  0.00  0.00    +0.000 NA
ATOM     10  C   UNL     1      47.430   8.337  21.199  0.00  0.00    +0.000 A 
ATOM     11  N   UNL     1      47.975   8.922  20.081  0.00  0.00    +0.000 N 
ATOM     12  C   UNL     1      48.745   8.228  19.176  0.00  0.00    +0.000 A 
ATOM     13  O   UNL     1      49.412   8.804  18.322  0.00  0.00    +0.000 OA
ATOM     14  C   UNL     1      48.773   6.804  19.421  0.00  0.00    +0.000 A 
ATOM     15  H   UNL     1      47.945   9.922  19.952  0.00  0.00    +0.000 HD
ENDBRANCH   2   5
BRANCH   3  16
ATOM     16  C   UNL     1      48.769   6.860  15.044  0.00  0.00    +0.000 C 
BRANCH  16  17
ATOM     17  C   UNL     1      47.664   6.299  14.185  0.00  0.00    +0.000 A 
ATOM     18  N   UNL     1      47.417   4.976  14.254  0.00  0.00    +0.000 NA
ATOM     19  C   UNL     1      46.456   4.503  13.438  0.00  0.00    +0.000 A 
ATOM     20  C   UNL     1      45.751   5.288  12.550  0.00  0.00    +0.000 A 
ATOM     21  C   UNL     1      46.116   6.618  12.529  0.00  0.00    +0.000 A 
ATOM     22  N   UNL     1      47.069   7.145  13.318  0.00  0.00    +0.000 NA
BRANCH  20  23
ATOM     23  C   UNL     1      44.669   4.739  11.675  0.00  0.00    +0.000 C 
BRANCH  23  24
ATOM     24  N   UNL     1      45.182   3.977  10.519  0.00  0.00    +0.000 NA
ATOM     25  C   UNL     1      44.267   2.877  10.159  0.00  0.00    +0.000 C 
ATOM     26  C   UNL     1      44.719   2.122   8.908  0.00  0.00    +0.000 C 
ATOM     27  C   UNL     1      44.907   3.072   7.735  0.00  0.00    +0.000 C 
ATOM     28  C   UNL     1      45.872   4.182   8.127  0.00  0.00    +0.000 C 
ATOM     29  C   UNL     1      45.399   4.898   9.391  0.00  0.00    +0.000 C 
ENDBRANCH  23  24
ENDBRANCH  20  23
ENDBRANCH  16  17
ENDBRANCH   3  16
TORSDOF 5
ENDMDL
MODEL 7
REMARK VINA RESULT:    -6.245      3.764      9.540
REMARK INTER + INTRA:          -8.801
REMARK INTER:                  -8.229
REMARK INTRA:                  -0.572
REMARK UNBOUND:                -0.731
REMARK  Name = 
REMARK  5 active torsions:
REMARK  status: ('A' for Active; 'I' for Inactive)
REMARK    1  A    between atoms: C_2  and  C_18
REMARK    2  A    between atoms: N_3  and  C_4
REMARK    3  A    between atoms: C_4  and  C_5
REMARK    4  A    between atoms: C_8  and  C_9
REMARK    5  A    between atoms: C_9  and  N_10
REMARK                            x       y       z     vdW  Elec       q    Type
REMARK                         _______ _______ _______ _____ _____    ______ ____
ROOT
ATOM      1  O   UNL     1      47.235   3.212  13.790  0.00  0.00    +0.000 OA
ATOM      2  C   UNL     1      46.845   4.332  14.093  0.00  0.00    +0.000 C 
ATOM      3  N   UNL     1      46.819   4.792  15.377  0.00  0.00    +0.000 N 
ATOM      4  H   UNL     1      46.722   5.779  15.564  0.00  0.00    +0.000 HD
ENDROOT
BRANCH   2   5
ATOM      5  C   UNL     1      46.291   5.244  13.099  0.00  0.00    +0.000 A 
ATOM      6  C   UNL     1      46.913   6.404  12.663  0.00  0.00    +0.000 A 
ATOM      7  S   UNL     1      45.850   7.425  11.788  0.00  0.00    +0.000 S 
ATOM      8  C   UNL     1      44.570   6.308  11.929  0.00  0.00    +0.000 A 
ATOM      9  N   UNL     1      43.314   6.584  11.483  0.00  0.00    +0.000 NA
ATOM     10  C   UNL     1      42.475   5.612  11.640  0.00  0.00    +0.000 A 
ATOM     11  N   UNL     1      42.784   4.376  12.155  0.00  0.00    +0.000 N 
ATOM     12  C   UNL     1      44.057   4.029  12.546  0.00  0.00    +0.000 A 
ATOM     13  O   UNL     1      44.364   2.864  12.780  0.00  0.00    +0.000 OA
ATOM     14  C   UNL     1      44.986   5.137  12.525  0.00  0.00    +0.000 A 
ATOM     15  H   UNL     1      42.112   3.625  12.141  0.00  0.00    +0.000 HD
ENDBRANCH   2   5
BRANCH   3  16
ATOM     16  C   UNL     1      47.234   3.925  16.461  0.00  0.00    +0.000 C 
BRANCH  16  17
ATOM     17  C   UNL     1      48.273   4.582  17.332  0.00  0.00    +0.000 A 
ATOM     18  N   UNL     1      49.572   4.369  17.042  0.00  0.00    +0.000 NA
ATOM     19  C   UNL     1      50.471   4.934  17.871  0.00  0.00    +0.000 A 
ATOM     20  C   UNL     1      50.128   5.680  18.978  0.00  0.00    +0.000 A 
ATOM     21  C   UNL     1      48.774   5.796  19.208  0.00  0.00    +0.000 A 
ATOM     22  N   UNL     1      47.831   5.253  18.417  0.00  0.00    +0.000 NA
BRANCH  20  23
ATOM     23  C   UNL     1      51.151   6.318  19.865  0.00  0.00    +0.000 C 
BRANCH  23  24
ATOM     24  N   UNL     1      51.442   7.721  19.505  0.00  0.00    +0.000 NA
ATOM     25  C   UNL     1      51.158   8.628  20.633  0.00  0.00    +0.000 C 
ATOM     26  C   UNL     1      51.534  10.079  20.329  0.00  0.00    +0.000 C 
ATOM     27  C   UNL     1      52.991  10.187  19.904  0.00  0.00    +0.000 C 
ATOM     28  C   UNL     1      53.249   9.260  18.726  0.00  0.00    +0.000 C 
ATOM     29  C   UNL     1      52.841   7.825  19.059  0.00  0.00    +0.000 C 
ENDBRANCH  23  24
ENDBRANCH  20  23
ENDBRANCH  16  17
ENDBRANCH   3  16
TORSDOF 5
ENDMDL
MODEL 8
REMARK VINA RESULT:    -6.044      3.924      7.849
REMARK INTER + INTRA:          -8.542
REMARK INTER:                  -7.511
REMARK INTRA:                  -1.031
REMARK UNBOUND:                -0.731
REMARK  Name = 
REMARK  5 active torsions:
REMARK  status: ('A' for Active; 'I' for Inactive)
REMARK    1  A    between atoms: C_2  and  C_18
REMARK    2  A    between atoms: N_3  and  C_4
REMARK    3  A    between atoms: C_4  and  C_5
REMARK    4  A    between atoms: C_8  and  C_9
REMARK    5  A    between atoms: C_9  and  N_10
REMARK                            x       y       z     vdW  Elec       q    Type
REMARK                         _______ _______ _______ _____ _____    ______ ____
ROOT
ATOM      1  O   UNL     1      48.525   9.376  13.009  0.00  0.00    +0.000 OA
ATOM      2  C   UNL     1      47.536   8.874  13.526  0.00  0.00    +0.000 C 
ATOM      3  N   UNL     1      47.363   8.784  14.876  0.00  0.00    +0.000 N 
ATOM      4  H   UNL     1      46.451   8.587  15.262  0.00  0.00    +0.000 HD
ENDROOT
BRANCH   2   5
ATOM      5  C   UNL     1      46.490   8.246  12.726  0.00  0.00    +0.000 A 
ATOM      6  C   UNL     1      45.602   8.936  11.915  0.00  0.00    +0.000 A 
ATOM      7  S   UNL     1      44.284   7.959  11.415  0.00  0.00    +0.000 S 
ATOM      8  C   UNL     1      44.913   6.596  12.222  0.00  0.00    +0.000 A 
ATOM      9  N   UNL     1      44.235   5.419  12.293  0.00  0.00    +0.000 NA
ATOM     10  C   UNL     1      44.874   4.481  12.914  0.00  0.00    +0.000 A 
ATOM     11  N   UNL     1      46.144   4.596  13.428  0.00  0.00    +0.000 N 
ATOM     12  C   UNL     1      46.895   5.743  13.310  0.00  0.00    +0.000 A 
ATOM     13  O   UNL     1      48.096   5.755  13.561  0.00  0.00    +0.000 OA
ATOM     14  C   UNL     1      46.157   6.856  12.756  0.00  0.00    +0.000 A 
ATOM     15  H   UNL     1      46.630   3.792  13.795  0.00  0.00    +0.000 HD
ENDBRANCH   2   5
BRANCH   3  16
ATOM     16  C   UNL     1      48.398   9.266  15.768  0.00  0.00    +0.000 C 
BRANCH  16  17
ATOM     17  C   UNL     1      49.012   8.143  16.565  0.00  0.00    +0.000 A 
ATOM     18  N   UNL     1      48.622   7.986  17.845  0.00  0.00    +0.000 NA
ATOM     19  C   UNL     1      49.228   7.003  18.539  0.00  0.00    +0.000 A 
ATOM     20  C   UNL     1      50.211   6.190  18.016  0.00  0.00    +0.000 A 
ATOM     21  C   UNL     1      50.566   6.467  16.712  0.00  0.00    +0.000 A 
ATOM     22  N   UNL     1      49.998   7.436  15.972  0.00  0.00    +0.000 NA
BRANCH  20  23
ATOM     23  C   UNL     1      50.846   5.088  18.803  0.00  0.00    +0.000 C 
BRANCH  23  24
ATOM     24  N   UNL     1      51.316   3.967  17.965  0.00  0.00    +0.000 NA
ATOM     25  C   UNL     1      52.518   3.337  18.545  0.00  0.00    +0.000 C 
ATOM     26  C   UNL     1      52.981   2.114  17.752  0.00  0.00    +0.000 C 
ATOM     27  C   UNL     1      51.857   1.099  17.611  0.00  0.00    +0.000 C 
ATOM     28  C   UNL     1      50.640   1.768  16.989  0.00  0.00    +0.000 C 
ATOM     29  C   UNL     1      50.221   2.997  17.795  0.00  0.00    +0.000 C 
ENDBRANCH  23  24
ENDBRANCH  20  23
ENDBRANCH  16  17
ENDBRANCH   3  16
TORSDOF 5
ENDMDL
MODEL 9
REMARK VINA RESULT:    -5.917      2.460      3.290
REMARK INTER + INTRA:          -8.377
REMARK INTER:                  -7.588
REMARK INTRA:                  -0.789
REMARK UNBOUND:                -0.731
REMARK  Name = 
REMARK  5 active torsions:
REMARK  status: ('A' for Active; 'I' for Inactive)
REMARK    1  A    between atoms: C_2  and  C_18
REMARK    2  A    between atoms: N_3  and  C_4
REMARK    3  A    between atoms: C_4  and  C_5
REMARK    4  A    between atoms: C_8  and  C_9
REMARK    5  A    between atoms: C_9  and  N_10
REMARK                            x       y       z     vdW  Elec       q    Type
REMARK                         _______ _______ _______ _____ _____    ______ ____
ROOT
ATOM      1  O   UNL     1      51.218   7.989  15.745  0.00  0.00    +0.000 OA
ATOM      2  C   UNL     1      50.469   7.107  16.145  0.00  0.00    +0.000 C 
ATOM      3  N   UNL     1      49.272   6.819  15.556  0.00  0.00    +0.000 N 
ATOM      4  H   UNL     1      48.801   5.949  15.756  0.00  0.00    +0.000 HD
ENDROOT
BRANCH   2   5
ATOM      5  C   UNL     1      50.764   6.341  17.351  0.00  0.00    +0.000 A 
ATOM      6  C   UNL     1      51.870   5.521  17.509  0.00  0.00    +0.000 A 
ATOM      7  S   UNL     1      51.728   4.492  18.874  0.00  0.00    +0.000 S 
ATOM      8  C   UNL     1      50.223   5.168  19.299  0.00  0.00    +0.000 A 
ATOM      9  N   UNL     1      49.476   4.685  20.329  0.00  0.00    +0.000 NA
ATOM     10  C   UNL     1      48.378   5.338  20.534  0.00  0.00    +0.000 A 
ATOM     11  N   UNL     1      47.982   6.456  19.838  0.00  0.00    +0.000 N 
ATOM     12  C   UNL     1      48.743   7.023  18.842  0.00  0.00    +0.000 A 
ATOM     13  O   UNL     1      48.493   8.139  18.397  0.00  0.00    +0.000 OA
ATOM     14  C   UNL     1      49.901   6.234  18.486  0.00  0.00    +0.000 A 
ATOM     15  H   UNL     1      47.174   6.986  20.125  0.00  0.00    +0.000 HD
ENDBRANCH   2   5
BRANCH   3  16
ATOM     16  C   UNL     1      48.822   7.600  14.422  0.00  0.00    +0.000 C 
BRANCH  16  17
ATOM     17  C   UNL     1      47.705   6.910  13.680  0.00  0.00    +0.000 A 
ATOM     18  N   UNL     1      47.582   5.575  13.818  0.00  0.00    +0.000 NA
ATOM     19  C   UNL     1      46.604   4.987  13.103  0.00  0.00    +0.000 A 
ATOM     20  C   UNL     1      45.763   5.671  12.250  0.00  0.00    +0.000 A 
ATOM     21  C   UNL     1      46.007   7.024  12.149  0.00  0.00    +0.000 A 
ATOM     22  N   UNL     1      46.970   7.664  12.837  0.00  0.00    +0.000 NA
BRANCH  20  23
ATOM     23  C   UNL     1      44.666   4.994  11.490  0.00  0.00    +0.000 C 
BRANCH  23  24
ATOM     24  N   UNL     1      45.160   4.107  10.417  0.00  0.00    +0.000 NA
ATOM     25  C   UNL     1      44.203   3.017  10.146  0.00  0.00    +0.000 C 
ATOM     26  C   UNL     1      44.637   2.131   8.978  0.00  0.00    +0.000 C 
ATOM     27  C   UNL     1      44.878   2.959   7.725  0.00  0.00    +0.000 C 
ATOM     28  C   UNL     1      45.886   4.058   8.027  0.00  0.00    +0.000 C 
ATOM     29  C   UNL     1      45.429   4.909   9.212  0.00  0.00    +0.000 C 
ENDBRANCH  23  24
ENDBRANCH  20  23
ENDBRANCH  16  17
ENDBRANCH   3  16
TORSDOF 5
ENDMDL
