MODEL 1
REMARK VINA RESULT:    -8.730      0.000      0.000
REMARK INTER + INTRA:         -12.694
REMARK INTER:                 -12.303
REMARK INTRA:                  -0.392
REMARK UNBOUND:                -0.392
REMARK  Name = 
REMARK  7 active torsions:
REMARK  status: ('A' for Active; 'I' for Inactive)
REMARK    1  A    between atoms: C_2  and  C_3
REMARK    2  A    between atoms: C_3  and  C_4
REMARK    3  A    between atoms: C_3  and  N_11
REMARK    4  A    between atoms: C_4  and  C_5
REMARK    5  A    between atoms: C_15  and  C_16
REMARK    6  A    between atoms: C_16  and  N_17
REMARK    7  A    between atoms: C_18  and  C_20
REMARK                            x       y       z     vdW  Elec       q    Type
REMARK                         _______ _______ _______ _____ _____    ______ ____
ROOT
ATOM      1  N   UNL     1      45.234   2.925  11.881  0.00  0.00    +0.000 N 
ATOM      2  C   UNL     1      45.937   3.789  12.746  0.00  0.00    +0.000 A 
ATOM      3  C   UNL     1      46.682   3.229  13.780  0.00  0.00    +0.000 A 
ATOM      4  C   UNL     1      47.428   4.058  14.617  0.00  0.00    +0.000 A 
ATOM      5  C   UNL     1      47.371   5.442  14.455  0.00  0.00    +0.000 A 
ATOM      6  C   UNL     1      46.549   5.915  13.442  0.00  0.00    +0.000 A 
ATOM      7  N   UNL     1      45.851   5.122  12.590  0.00  0.00    +0.000 NA
ATOM      8  H   UNL     1      45.803   2.090  11.752  0.00  0.00    +0.000 HD
ENDROOT
BRANCH   1   9
ATOM      9  C   UNL     1      44.927   3.549  10.570  0.00  0.00    +0.000 C 
BRANCH   9  11
ATOM     10  N   UNL     1      42.862   5.209  10.718  0.00  0.00    +0.000 NA
ATOM     11  C   UNL     1      43.746   4.457  10.627  0.00  0.00    +0.000 C 
ENDBRANCH   9  11
BRANCH   9  12
ATOM     12  C   UNL     1      44.639   2.440   9.520  0.00  0.00    +0.000 C 
BRANCH  12  13
ATOM     13  C   UNL     1      45.623   2.398   8.365  0.00  0.00    +0.000 A 
ATOM     14  C   UNL     1      45.806   3.526   7.551  0.00  0.00    +0.000 A 
ATOM     15  C   UNL     1      46.686   3.484   6.468  0.00  0.00    +0.000 A 
ATOM     16  C   UNL     1      47.398   2.319   6.190  0.00  0.00    +0.000 A 
ATOM     17  C   UNL     1      47.240   1.199   7.003  0.00  0.00    +0.000 A 
ATOM     18  C   UNL     1      46.363   1.239   8.088  0.00  0.00    +0.000 A 
ENDBRANCH  12  13
ENDBRANCH   9  12
ENDBRANCH   1   9
BRANCH   5  19
ATOM     19  C   UNL     1      48.191   6.374  15.299  0.00  0.00    +0.000 C 
BRANCH  19  20
ATOM     20  N   UNL     1      49.348   5.726  15.867  0.00  0.00    +0.000 N 
ATOM     21  C   UNL     1      49.322   5.216  17.141  0.00  0.00    +0.000 C 
ATOM     22  O   UNL     1      48.301   5.235  17.826  0.00  0.00    +0.000 OA
ATOM     23  H   UNL     1      50.244   5.874  15.414  0.00  0.00    +0.000 HD
BRANCH  21  24
ATOM     24  C   UNL     1      50.560   4.592  17.624  0.00  0.00    +0.000 A 
ATOM     25  C   UNL     1      51.529   5.376  18.236  0.00  0.00    +0.000 A 
ATOM     26  S   UNL     1      52.879   4.491  18.783  0.00  0.00    +0.000 S 
ATOM     27  C   UNL     1      52.243   3.036  18.172  0.00  0.00    +0.000 A 
ATOM     28  N   UNL     1      52.931   1.870  18.288  0.00  0.00    +0.000 NA
ATOM     29  C   UNL     1      52.346   0.849  17.753  0.00  0.00    +0.000 A 
ATOM     30  N   UNL     1      51.133   0.891  17.116  0.00  0.00    +0.000 N 
ATOM     31  C   UNL     1      50.389   2.041  17.000  0.00  0.00    +0.000 A 
ATOM     32  O   UNL     1      49.288   2.036  16.460  0.00  0.00    +0.000 OA
ATOM     33  C   UNL     1      51.007   3.220  17.576  0.00  0.00    +0.000 A 
ATOM     34  H   UNL     1      50.726   0.053  16.727  0.00  0.00    +0.000 HD
ENDBRANCH  21  24
ENDBRANCH  19  20
ENDBRANCH   5  19
TORSDOF 7
ENDMDL
MODEL 2
REMARK VINA RESULT:    -8.373      2.570      3.923
REMARK INTER + INTRA:         -12.191
REMARK INTER:                 -11.539
REMARK INTRA:                  -0.652
REMARK UNBOUND:                -0.392
REMARK  Name = 
REMARK  7 active torsions:
REMARK  status: ('A' for Active; 'I' for Inactive)
REMARK    1  A    between atoms: C_2  and  C_3
REMARK    2  A    between atoms: C_3  and  C_4
REMARK    3  A    between atoms: C_3  and  N_11
REMARK    4  A    between atoms: C_4  and  C_5
REMARK    5  A    between atoms: C_15  and  C_16
REMARK    6  A    between atoms: C_16  and  N_17
REMARK    7  A    between atoms: C_18  and  C_20
REMARK                            x       y       z     vdW  Elec       q    Type
REMARK                         _______ _______ _______ _____ _____    ______ ____
ROOT
ATOM      1  N   UNL     1      45.040   3.160  11.927  0.00  0.00    +0.000 N 
ATOM      2  C   UNL     1      45.857   4.000  12.712  0.00  0.00    +0.000 A 
ATOM      3  C   UNL     1      46.636   3.422  13.710  0.00  0.00    +0.000 A 
ATOM      4  C   UNL     1      47.490   4.223  14.466  0.00  0.00    +0.000 A 
ATOM      5  C   UNL     1      47.512   5.602  14.262  0.00  0.00    +0.000 A 
ATOM      6  C   UNL     1      46.652   6.100  13.293  0.00  0.00    +0.000 A 
ATOM      7  N   UNL     1      45.846   5.331  12.517  0.00  0.00    +0.000 NA
ATOM      8  H   UNL     1      45.544   2.286  11.787  0.00  0.00    +0.000 HD
ENDROOT
BRANCH   1   9
ATOM      9  C   UNL     1      44.681   3.765  10.620  0.00  0.00    +0.000 C 
BRANCH   9  11
ATOM     10  N   UNL     1      42.590   5.382  10.845  0.00  0.00    +0.000 NA
ATOM     11  C   UNL     1      43.495   4.663  10.707  0.00  0.00    +0.000 C 
ENDBRANCH   9  11
BRANCH   9  12
ATOM     12  C   UNL     1      44.367   2.641   9.594  0.00  0.00    +0.000 C 
BRANCH  12  13
ATOM     13  C   UNL     1      45.388   2.505   8.479  0.00  0.00    +0.000 A 
ATOM     14  C   UNL     1      46.063   1.290   8.285  0.00  0.00    +0.000 A 
ATOM     15  C   UNL     1      47.027   1.168   7.282  0.00  0.00    +0.000 A 
ATOM     16  C   UNL     1      47.322   2.253   6.458  0.00  0.00    +0.000 A 
ATOM     17  C   UNL     1      46.644   3.457   6.629  0.00  0.00    +0.000 A 
ATOM     18  C   UNL     1      45.678   3.582   7.629  0.00  0.00    +0.000 A 
ENDBRANCH  12  13
ENDBRANCH   9  12
ENDBRANCH   1   9
BRANCH   5  19
ATOM     19  C   UNL     1      48.448   6.502  15.016  0.00  0.00    +0.000 C 
BRANCH  19  20
ATOM     20  N   UNL     1      48.248   6.430  16.443  0.00  0.00    +0.000 N 
ATOM     21  C   UNL     1      49.180   5.840  17.260  0.00  0.00    +0.000 C 
ATOM     22  O   UNL     1      50.242   5.404  16.823  0.00  0.00    +0.000 OA
ATOM     23  H   UNL     1      47.312   6.593  16.799  0.00  0.00    +0.000 HD
BRANCH  21  24
ATOM     24  C   UNL     1      48.867   5.807  18.694  0.00  0.00    +0.000 A 
ATOM     25  C   UNL     1      49.107   4.649  19.423  0.00  0.00    +0.000 A 
ATOM     26  S   UNL     1      48.737   4.795  21.080  0.00  0.00    +0.000 S 
ATOM     27  C   UNL     1      48.191   6.393  20.875  0.00  0.00    +0.000 A 
ATOM     28  N   UNL     1      47.703   7.105  21.925  0.00  0.00    +0.000 NA
ATOM     29  C   UNL     1      47.295   8.293  21.621  0.00  0.00    +0.000 A 
ATOM     30  N   UNL     1      47.334   8.833  20.362  0.00  0.00    +0.000 N 
ATOM     31  C   UNL     1      47.844   8.161  19.276  0.00  0.00    +0.000 A 
ATOM     32  O   UNL     1      47.903   8.689  18.170  0.00  0.00    +0.000 OA
ATOM     33  C   UNL     1      48.307   6.817  19.562  0.00  0.00    +0.000 A 
ATOM     34  H   UNL     1      47.007   9.773  20.194  0.00  0.00    +0.000 HD
ENDBRANCH  21  24
ENDBRANCH  19  20
ENDBRANCH   5  19
TORSDOF 7
ENDMDL
MODEL 3
REMARK VINA RESULT:    -8.165      2.439      2.867
REMARK INTER + INTRA:         -11.898
REMARK INTER:                 -11.177
REMARK INTRA:                  -0.721
REMARK UNBOUND:                -0.392
REMARK  Name = 
REMARK  7 active torsions:
REMARK  status: ('A' for Active; 'I' for Inactive)
REMARK    1  A    between atoms: C_2  and  C_3
REMARK    2  A    between atoms: C_3  and  C_4
REMARK    3  A    between atoms: C_3  and  N_11
REMARK    4  A    between atoms: C_4  and  C_5
REMARK    5  A    between atoms: C_15  and  C_16
REMARK    6  A    between atoms: C_16  and  N_17
REMARK    7  A    between atoms: C_18  and  C_20
REMARK                            x       y       z     vdW  Elec       q    Type
REMARK                         _______ _______ _______ _____ _____    ______ ____
ROOT
ATOM      1  N   UNL     1      45.105   3.328  12.073  0.00  0.00    +0.000 N 
ATOM      2  C   UNL     1      45.947   4.282  12.682  0.00  0.00    +0.000 A 
ATOM      3  C   UNL     1      46.878   3.842  13.618  0.00  0.00    +0.000 A 
ATOM      4  C   UNL     1      47.757   4.756  14.195  0.00  0.00    +0.000 A 
ATOM      5  C   UNL     1      47.655   6.111  13.883  0.00  0.00    +0.000 A 
ATOM      6  C   UNL     1      46.653   6.468  12.992  0.00  0.00    +0.000 A 
ATOM      7  N   UNL     1      45.818   5.588  12.386  0.00  0.00    +0.000 NA
ATOM      8  H   UNL     1      45.649   2.478  11.941  0.00  0.00    +0.000 HD
ENDROOT
BRANCH   1   9
ATOM      9  C   UNL     1      44.551   3.794  10.778  0.00  0.00    +0.000 C 
BRANCH   9  11
ATOM     10  N   UNL     1      42.248   5.076  11.083  0.00  0.00    +0.000 NA
ATOM     11  C   UNL     1      43.238   4.484  10.927  0.00  0.00    +0.000 C 
ENDBRANCH   9  11
BRANCH   9  12
ATOM     12  C   UNL     1      44.357   2.580   9.826  0.00  0.00    +0.000 C 
BRANCH  12  13
ATOM     13  C   UNL     1      45.366   2.503   8.694  0.00  0.00    +0.000 A 
ATOM     14  C   UNL     1      45.651   3.639   7.923  0.00  0.00    +0.000 A 
ATOM     15  C   UNL     1      46.554   3.566   6.860  0.00  0.00    +0.000 A 
ATOM     16  C   UNL     1      47.186   2.362   6.560  0.00  0.00    +0.000 A 
ATOM     17  C   UNL     1      46.926   1.232   7.331  0.00  0.00    +0.000 A 
ATOM     18  C   UNL     1      46.026   1.301   8.396  0.00  0.00    +0.000 A 
ENDBRANCH  12  13
ENDBRANCH   9  12
ENDBRANCH   1   9
BRANCH   5  19
ATOM     19  C   UNL     1      48.608   7.128  14.441  0.00  0.00    +0.000 C 
BRANCH  19  20
ATOM     20  N   UNL     1      48.486   7.268  15.872  0.00  0.00    +0.000 N 
ATOM     21  C   UNL     1      49.410   6.711  16.720  0.00  0.00    +0.000 C 
ATOM     22  O   UNL     1      50.405   6.125  16.300  0.00  0.00    +0.000 OA
ATOM     23  H   UNL     1      47.589   7.562  16.244  0.00  0.00    +0.000 HD
BRANCH  21  24
ATOM     24  C   UNL     1      49.179   6.901  18.157  0.00  0.00    +0.000 A 
ATOM     25  C   UNL     1      49.200   8.182  18.692  0.00  0.00    +0.000 A 
ATOM     26  S   UNL     1      48.863   8.232  20.363  0.00  0.00    +0.000 S 
ATOM     27  C   UNL     1      48.732   6.538  20.443  0.00  0.00    +0.000 A 
ATOM     28  N   UNL     1      48.474   5.912  21.621  0.00  0.00    +0.000 NA
ATOM     29  C   UNL     1      48.432   4.622  21.543  0.00  0.00    +0.000 A 
ATOM     30  N   UNL     1      48.621   3.904  20.392  0.00  0.00    +0.000 N 
ATOM     31  C   UNL     1      48.855   4.495  19.173  0.00  0.00    +0.000 A 
ATOM     32  O   UNL     1      48.978   3.824  18.153  0.00  0.00    +0.000 OA
ATOM     33  C   UNL     1      48.923   5.943  19.207  0.00  0.00    +0.000 A 
ATOM     34  H   UNL     1      48.565   2.896  20.398  0.00  0.00    +0.000 HD
ENDBRANCH  21  24
ENDBRANCH  19  20
ENDBRANCH   5  19
TORSDOF 7
ENDMDL
MODEL 4
REMARK VINA RESULT:    -8.041      3.692      4.454
REMARK INTER + INTRA:         -11.723
REMARK INTER:                 -11.172
REMARK INTRA:                  -0.550
REMARK UNBOUND:                -0.392
REMARK  Name = 
REMARK  7 active torsions:
REMARK  status: ('A' for Active; 'I' for Inactive)
REMARK    1  A    between atoms: C_2  and  C_3
REMARK    2  A    between atoms: C_3  and  C_4
REMARK    3  A    between atoms: C_3  and  N_11
REMARK    4  A    between atoms: C_4  and  C_5
REMARK    5  A    between atoms: C_15  and  C_16
REMARK    6  A    between atoms: C_16  and  N_17
REMARK    7  A    between atoms: C_18  and  C_20
REMARK                            x       y       z     vdW  Elec       q    Type
REMARK                         _______ _______ _______ _____ _____    ______ ____
ROOT
ATOM      1  N   UNL     1      45.307   4.150  12.109  0.00  0.00    +0.000 N 
ATOM      2  C   UNL     1      45.909   5.315  12.633  0.00  0.00    +0.000 A 
ATOM      3  C   UNL     1      47.063   5.177  13.397  0.00  0.00    +0.000 A 
ATOM      4  C   UNL     1      47.705   6.314  13.883  0.00  0.00    +0.000 A 
ATOM      5  C   UNL     1      47.154   7.575  13.656  0.00  0.00    +0.000 A 
ATOM      6  C   UNL     1      45.965   7.612  12.942  0.00  0.00    +0.000 A 
ATOM      7  N   UNL     1      45.349   6.520  12.423  0.00  0.00    +0.000 NA
ATOM      8  H   UNL     1      46.054   3.507  11.856  0.00  0.00    +0.000 HD
ENDROOT
BRANCH   1   9
ATOM      9  C   UNL     1      44.444   4.428  10.934  0.00  0.00    +0.000 C 
BRANCH   9  11
ATOM     10  N   UNL     1      42.096   5.422  11.666  0.00  0.00    +0.000 NA
ATOM     11  C   UNL     1      43.107   4.964  11.315  0.00  0.00    +0.000 C 
ENDBRANCH   9  11
BRANCH   9  12
ATOM     12  C   UNL     1      44.232   3.120  10.122  0.00  0.00    +0.000 C 
BRANCH  12  13
ATOM     13  C   UNL     1      45.207   2.927   8.975  0.00  0.00    +0.000 A 
ATOM     14  C   UNL     1      45.700   1.649   8.674  0.00  0.00    +0.000 A 
ATOM     15  C   UNL     1      46.622   1.469   7.641  0.00  0.00    +0.000 A 
ATOM     16  C   UNL     1      47.056   2.562   6.893  0.00  0.00    +0.000 A 
ATOM     17  C   UNL     1      46.558   3.833   7.169  0.00  0.00    +0.000 A 
ATOM     18  C   UNL     1      45.635   4.015   8.200  0.00  0.00    +0.000 A 
ENDBRANCH  12  13
ENDBRANCH   9  12
ENDBRANCH   1   9
BRANCH   5  19
ATOM     19  C   UNL     1      47.832   8.833  14.116  0.00  0.00    +0.000 C 
BRANCH  19  20
ATOM     20  N   UNL     1      47.569   9.121  15.505  0.00  0.00    +0.000 N 
ATOM     21  C   UNL     1      48.508   8.864  16.473  0.00  0.00    +0.000 C 
ATOM     22  O   UNL     1      49.626   8.436  16.194  0.00  0.00    +0.000 OA
ATOM     23  H   UNL     1      46.606   9.278  15.782  0.00  0.00    +0.000 HD
BRANCH  21  24
ATOM     24  C   UNL     1      48.129   9.181  17.855  0.00  0.00    +0.000 A 
ATOM     25  C   UNL     1      47.960  10.506  18.233  0.00  0.00    +0.000 A 
ATOM     26  S   UNL     1      47.471  10.697  19.855  0.00  0.00    +0.000 S 
ATOM     27  C   UNL     1      47.522   9.019  20.127  0.00  0.00    +0.000 A 
ATOM     28  N   UNL     1      47.230   8.499  21.348  0.00  0.00    +0.000 NA
ATOM     29  C   UNL     1      47.338   7.214  21.422  0.00  0.00    +0.000 A 
ATOM     30  N   UNL     1      47.709   6.401  20.382  0.00  0.00    +0.000 N 
ATOM     31  C   UNL     1      47.985   6.879  19.122  0.00  0.00    +0.000 A 
ATOM     32  O   UNL     1      48.273   6.120  18.202  0.00  0.00    +0.000 OA
ATOM     33  C   UNL     1      47.888   8.320  18.989  0.00  0.00    +0.000 A 
ATOM     34  H   UNL     1      47.765   5.401  20.504  0.00  0.00    +0.000 HD
ENDBRANCH  21  24
ENDBRANCH  19  20
ENDBRANCH   5  19
TORSDOF 7
ENDMDL
MODEL 5
REMARK VINA RESULT:    -7.850      2.403      3.205
REMARK INTER + INTRA:         -11.454
REMARK INTER:                 -11.656
REMARK INTRA:                   0.201
REMARK UNBOUND:                -0.392
REMARK  Name = 
REMARK  7 active torsions:
REMARK  status: ('A' for Active; 'I' for Inactive)
REMARK    1  A    between atoms: C_2  and  C_3
REMARK    2  A    between atoms: C_3  and  C_4
REMARK    3  A    between atoms: C_3  and  N_11
REMARK    4  A    between atoms: C_4  and  C_5
REMARK    5  A    between atoms: C_15  and  C_16
REMARK    6  A    between atoms: C_16  and  N_17
REMARK    7  A    between atoms: C_18  and  C_20
REMARK                            x       y       z     vdW  Elec       q    Type
REMARK                         _______ _______ _______ _____ _____    ______ ____
ROOT
ATOM      1  N   UNL     1      43.797   4.980  10.168  0.00  0.00    +0.000 N 
ATOM      2  C   UNL     1      44.661   5.780  10.946  0.00  0.00    +0.000 A 
ATOM      3  C   UNL     1      44.253   7.068  11.275  0.00  0.00    +0.000 A 
ATOM      4  C   UNL     1      45.065   7.860  12.086  0.00  0.00    +0.000 A 
ATOM      5  C   UNL     1      46.306   7.382  12.506  0.00  0.00    +0.000 A 
ATOM      6  C   UNL     1      46.659   6.112  12.074  0.00  0.00    +0.000 A 
ATOM      7  N   UNL     1      45.864   5.310  11.322  0.00  0.00    +0.000 NA
ATOM      8  H   UNL     1      42.843   5.194  10.452  0.00  0.00    +0.000 HD
ENDROOT
BRANCH   1   9
ATOM      9  C   UNL     1      44.068   3.529  10.316  0.00  0.00    +0.000 C 
BRANCH   9  11
ATOM     10  N   UNL     1      43.310   2.548  12.661  0.00  0.00    +0.000 NA
ATOM     11  C   UNL     1      43.671   3.002  11.652  0.00  0.00    +0.000 C 
ENDBRANCH   9  11
BRANCH   9  12
ATOM     12  C   UNL     1      45.586   3.259  10.117  0.00  0.00    +0.000 C 
BRANCH  12  13
ATOM     13  C   UNL     1      45.984   2.932   8.689  0.00  0.00    +0.000 A 
ATOM     14  C   UNL     1      46.215   1.602   8.307  0.00  0.00    +0.000 A 
ATOM     15  C   UNL     1      46.613   1.298   7.003  0.00  0.00    +0.000 A 
ATOM     16  C   UNL     1      46.777   2.316   6.066  0.00  0.00    +0.000 A 
ATOM     17  C   UNL     1      46.531   3.638   6.428  0.00  0.00    +0.000 A 
ATOM     18  C   UNL     1      46.131   3.945   7.730  0.00  0.00    +0.000 A 
ENDBRANCH  12  13
ENDBRANCH   9  12
ENDBRANCH   1   9
BRANCH   5  19
ATOM     19  C   UNL     1      47.195   8.176  13.418  0.00  0.00    +0.000 C 
BRANCH  19  20
ATOM     20  N   UNL     1      47.561   7.442  14.605  0.00  0.00    +0.000 N 
ATOM     21  C   UNL     1      48.808   6.886  14.738  0.00  0.00    +0.000 C 
ATOM     22  O   UNL     1      49.680   7.038  13.886  0.00  0.00    +0.000 OA
ATOM     23  H   UNL     1      46.815   7.132  15.219  0.00  0.00    +0.000 HD
BRANCH  21  24
ATOM     24  C   UNL     1      49.067   6.146  15.980  0.00  0.00    +0.000 A 
ATOM     25  C   UNL     1      50.119   6.531  16.801  0.00  0.00    +0.000 A 
ATOM     26  S   UNL     1      50.250   5.603  18.224  0.00  0.00    +0.000 S 
ATOM     27  C   UNL     1      48.941   4.617  17.768  0.00  0.00    +0.000 A 
ATOM     28  N   UNL     1      48.538   3.583  18.554  0.00  0.00    +0.000 NA
ATOM     29  C   UNL     1      47.553   2.899  18.072  0.00  0.00    +0.000 A 
ATOM     30  N   UNL     1      46.934   3.158  16.877  0.00  0.00    +0.000 N 
ATOM     31  C   UNL     1      47.289   4.208  16.064  0.00  0.00    +0.000 A 
ATOM     32  O   UNL     1      46.687   4.438  15.020  0.00  0.00    +0.000 OA
ATOM     33  C   UNL     1      48.398   5.003  16.555  0.00  0.00    +0.000 A 
ATOM     34  H   UNL     1      46.162   2.589  16.562  0.00  0.00    +0.000 HD
ENDBRANCH  21  24
ENDBRANCH  19  20
ENDBRANCH   5  19
TORSDOF 7
ENDMDL
MODEL 6
REMARK VINA RESULT:    -7.655      2.608      3.928
REMARK INTER + INTRA:         -11.179
REMARK INTER:                 -11.598
REMARK INTRA:                   0.419
REMARK UNBOUND:                -0.392
REMARK  Name = 
REMARK  7 active torsions:
REMARK  status: ('A' for Active; 'I' for Inactive)
REMARK    1  A    between atoms: C_2  and  C_3
REMARK    2  A    between atoms: C_3  and  C_4
REMARK    3  A    between atoms: C_3  and  N_11
REMARK    4  A    between atoms: C_4  and  C_5
REMARK    5  A    between atoms: C_15  and  C_16
REMARK    6  A    between atoms: C_16  and  N_17
REMARK    7  A    between atoms: C_18  and  C_20
REMARK                            x       y       z     vdW  Elec       q    Type
REMARK                         _______ _______ _______ _____ _____    ______ ____
ROOT
ATOM      1  N   UNL     1      45.395   5.671  10.371  0.00  0.00    +0.000 N 
ATOM      2  C   UNL     1      45.884   5.310  11.645  0.00  0.00    +0.000 A 
ATOM      3  C   UNL     1      46.773   6.171  12.280  0.00  0.00    +0.000 A 
ATOM      4  C   UNL     1      47.231   5.864  13.560  0.00  0.00    +0.000 A 
ATOM      5  C   UNL     1      46.846   4.669  14.168  0.00  0.00    +0.000 A 
ATOM      6  C   UNL     1      46.011   3.840  13.433  0.00  0.00    +0.000 A 
ATOM      7  N   UNL     1      45.520   4.142  12.204  0.00  0.00    +0.000 NA
ATOM      8  H   UNL     1      45.275   6.682  10.363  0.00  0.00    +0.000 HD
ENDROOT
BRANCH   1   9
ATOM      9  C   UNL     1      44.118   4.995  10.032  0.00  0.00    +0.000 C 
BRANCH   9  11
ATOM     10  N   UNL     1      42.232   5.399  11.854  0.00  0.00    +0.000 NA
ATOM     11  C   UNL     1      43.046   5.255  11.034  0.00  0.00    +0.000 C 
ENDBRANCH   9  11
BRANCH   9  12
ATOM     12  C   UNL     1      44.346   3.460   9.951  0.00  0.00    +0.000 C 
BRANCH  12  13
ATOM     13  C   UNL     1      45.249   3.018   8.814  0.00  0.00    +0.000 A 
ATOM     14  C   UNL     1      45.708   1.694   8.749  0.00  0.00    +0.000 A 
ATOM     15  C   UNL     1      46.565   1.290   7.723  0.00  0.00    +0.000 A 
ATOM     16  C   UNL     1      46.968   2.201   6.748  0.00  0.00    +0.000 A 
ATOM     17  C   UNL     1      46.503   3.513   6.791  0.00  0.00    +0.000 A 
ATOM     18  C   UNL     1      45.644   3.919   7.813  0.00  0.00    +0.000 A 
ENDBRANCH  12  13
ENDBRANCH   9  12
ENDBRANCH   1   9
BRANCH   5  19
ATOM     19  C   UNL     1      47.272   4.315  15.563  0.00  0.00    +0.000 C 
BRANCH  19  20
ATOM     20  N   UNL     1      47.785   5.453  16.286  0.00  0.00    +0.000 N 
ATOM     21  C   UNL     1      49.012   5.408  16.901  0.00  0.00    +0.000 C 
ATOM     22  O   UNL     1      49.746   4.427  16.812  0.00  0.00    +0.000 OA
ATOM     23  H   UNL     1      47.131   6.184  16.543  0.00  0.00    +0.000 HD
BRANCH  21  24
ATOM     24  C   UNL     1      49.428   6.617  17.622  0.00  0.00    +0.000 A 
ATOM     25  C   UNL     1      50.568   7.299  17.218  0.00  0.00    +0.000 A 
ATOM     26  S   UNL     1      50.881   8.707  18.127  0.00  0.00    +0.000 S 
ATOM     27  C   UNL     1      49.536   8.425  19.130  0.00  0.00    +0.000 A 
ATOM     28  N   UNL     1      49.242   9.266  20.157  0.00  0.00    +0.000 NA
ATOM     29  C   UNL     1      48.213   8.916  20.855  0.00  0.00    +0.000 A 
ATOM     30  N   UNL     1      47.450   7.803  20.617  0.00  0.00    +0.000 N 
ATOM     31  C   UNL     1      47.692   6.940  19.574  0.00  0.00    +0.000 A 
ATOM     32  O   UNL     1      46.965   5.975  19.363  0.00  0.00    +0.000 OA
ATOM     33  C   UNL     1      48.845   7.283  18.763  0.00  0.00    +0.000 A 
ATOM     34  H   UNL     1      46.651   7.592  21.197  0.00  0.00    +0.000 HD
ENDBRANCH  21  24
ENDBRANCH  19  20
ENDBRANCH   5  19
TORSDOF 7
ENDMDL
MODEL 7
REMARK VINA RESULT:    -7.550      2.981      3.791
REMARK INTER + INTRA:         -11.031
REMARK INTER:                 -10.160
REMARK INTRA:                  -0.871
REMARK UNBOUND:                -0.392
REMARK  Name = 
REMARK  7 active torsions:
REMARK  status: ('A' for Active; 'I' for Inactive)
REMARK    1  A    between atoms: C_2  and  C_3
REMARK    2  A    between atoms: C_3  and  C_4
REMARK    3  A    between atoms: C_3  and  N_11
REMARK    4  A    between atoms: C_4  and  C_5
REMARK    5  A    between atoms: C_15  and  C_16
REMARK    6  A    between atoms: C_16  and  N_17
REMARK    7  A    between atoms: C_18  and  C_20
REMARK                            x       y       z     vdW  Elec       q    Type
REMARK                         _______ _______ _______ _____ _____    ______ ____
ROOT
ATOM      1  N   UNL     1      45.780   4.644  10.440  0.00  0.00    +0.000 N 
ATOM      2  C   UNL     1      46.002   5.777  11.251  0.00  0.00    +0.000 A 
ATOM      3  C   UNL     1      47.286   6.312  11.302  0.00  0.00    +0.000 A 
ATOM      4  C   UNL     1      47.522   7.461  12.054  0.00  0.00    +0.000 A 
ATOM      5  C   UNL     1      46.489   8.028  12.801  0.00  0.00    +0.000 A 
ATOM      6  C   UNL     1      45.259   7.388  12.744  0.00  0.00    +0.000 A 
ATOM      7  N   UNL     1      44.999   6.295  11.983  0.00  0.00    +0.000 NA
ATOM      8  H   UNL     1      46.362   4.740   9.611  0.00  0.00    +0.000 HD
ENDROOT
BRANCH   1   9
ATOM      9  C   UNL     1      44.355   4.484  10.055  0.00  0.00    +0.000 C 
BRANCH   9  11
ATOM     10  N   UNL     1      43.148   2.610  11.495  0.00  0.00    +0.000 NA
ATOM     11  C   UNL     1      43.648   3.460  10.875  0.00  0.00    +0.000 C 
ENDBRANCH   9  11
BRANCH   9  12
ATOM     12  C   UNL     1      44.263   4.062   8.562  0.00  0.00    +0.000 C 
BRANCH  12  13
ATOM     13  C   UNL     1      45.394   3.165   8.092  0.00  0.00    +0.000 A 
ATOM     14  C   UNL     1      46.391   3.671   7.244  0.00  0.00    +0.000 A 
ATOM     15  C   UNL     1      47.416   2.843   6.782  0.00  0.00    +0.000 A 
ATOM     16  C   UNL     1      47.462   1.505   7.168  0.00  0.00    +0.000 A 
ATOM     17  C   UNL     1      46.490   0.996   8.026  0.00  0.00    +0.000 A 
ATOM     18  C   UNL     1      45.465   1.822   8.491  0.00  0.00    +0.000 A 
ENDBRANCH  12  13
ENDBRANCH   9  12
ENDBRANCH   1   9
BRANCH   5  19
ATOM     19  C   UNL     1      46.679   9.292  13.589  0.00  0.00    +0.000 C 
BRANCH  19  20
ATOM     20  N   UNL     1      47.159   9.038  14.925  0.00  0.00    +0.000 N 
ATOM     21  C   UNL     1      48.466   9.281  15.268  0.00  0.00    +0.000 C 
ATOM     22  O   UNL     1      49.262   9.776  14.474  0.00  0.00    +0.000 OA
ATOM     23  H   UNL     1      46.592   8.452  15.529  0.00  0.00    +0.000 HD
BRANCH  21  24
ATOM     24  C   UNL     1      48.849   8.972  16.650  0.00  0.00    +0.000 A 
ATOM     25  C   UNL     1      49.181  10.005  17.518  0.00  0.00    +0.000 A 
ATOM     26  S   UNL     1      49.552   9.479  19.096  0.00  0.00    +0.000 S 
ATOM     27  C   UNL     1      49.338   7.848  18.664  0.00  0.00    +0.000 A 
ATOM     28  N   UNL     1      49.532   6.854  19.570  0.00  0.00    +0.000 NA
ATOM     29  C   UNL     1      49.365   5.662  19.099  0.00  0.00    +0.000 A 
ATOM     30  N   UNL     1      49.018   5.377  17.804  0.00  0.00    +0.000 N 
ATOM     31  C   UNL     1      48.784   6.350  16.861  0.00  0.00    +0.000 A 
ATOM     32  O   UNL     1      48.434   6.061  15.721  0.00  0.00    +0.000 OA
ATOM     33  C   UNL     1      48.968   7.707  17.337  0.00  0.00    +0.000 A 
ATOM     34  H   UNL     1      48.894   4.421  17.502  0.00  0.00    +0.000 HD
ENDBRANCH  21  24
ENDBRANCH  19  20
ENDBRANCH   5  19
TORSDOF 7
ENDMDL
MODEL 8
REMARK VINA RESULT:    -7.517      3.856      9.148
REMARK INTER + INTRA:         -10.985
REMARK INTER:                  -9.631
REMARK INTRA:                  -1.354
REMARK UNBOUND:                -0.392
REMARK  Name = 
REMARK  7 active torsions:
REMARK  status: ('A' for Active; 'I' for Inactive)
REMARK    1  A    between atoms: C_2  and  C_3
REMARK    2  A    between atoms: C_3  and  C_4
REMARK    3  A    between atoms: C_3  and  N_11
REMARK    4  A    between atoms: C_4  and  C_5
REMARK    5  A    between atoms: C_15  and  C_16
REMARK    6  A    between atoms: C_16  and  N_17
REMARK    7  A    between atoms: C_18  and  C_20
REMARK                            x       y       z     vdW  Elec       q    Type
REMARK                         _______ _______ _______ _____ _____    ______ ____
ROOT
ATOM      1  N   UNL     1      50.971   7.744  16.513  0.00  0.00    +0.000 N 
ATOM      2  C   UNL     1      50.179   7.813  15.347  0.00  0.00    +0.000 A 
ATOM      3  C   UNL     1      50.813   8.031  14.128  0.00  0.00    +0.000 A 
ATOM      4  C   UNL     1      50.060   8.051  12.956  0.00  0.00    +0.000 A 
ATOM      5  C   UNL     1      48.673   7.919  13.017  0.00  0.00    +0.000 A 
ATOM      6  C   UNL     1      48.120   7.773  14.282  0.00  0.00    +0.000 A 
ATOM      7  N   UNL     1      48.840   7.707  15.430  0.00  0.00    +0.000 NA
ATOM      8  H   UNL     1      51.844   7.285  16.264  0.00  0.00    +0.000 HD
ENDROOT
BRANCH   1   9
ATOM      9  C   UNL     1      50.301   7.017  17.620  0.00  0.00    +0.000 C 
BRANCH   9  11
ATOM     10  N   UNL     1      50.292   8.357  19.910  0.00  0.00    +0.000 NA
ATOM     11  C   UNL     1      50.272   7.800  18.889  0.00  0.00    +0.000 C 
ENDBRANCH   9  11
BRANCH   9  12
ATOM     12  C   UNL     1      51.045   5.679  17.890  0.00  0.00    +0.000 C 
BRANCH  12  13
ATOM     13  C   UNL     1      50.264   4.437  17.500  0.00  0.00    +0.000 A 
ATOM     14  C   UNL     1      50.898   3.186  17.467  0.00  0.00    +0.000 A 
ATOM     15  C   UNL     1      50.193   2.045  17.078  0.00  0.00    +0.000 A 
ATOM     16  C   UNL     1      48.849   2.139  16.726  0.00  0.00    +0.000 A 
ATOM     17  C   UNL     1      48.204   3.372  16.775  0.00  0.00    +0.000 A 
ATOM     18  C   UNL     1      48.904   4.514  17.165  0.00  0.00    +0.000 A 
ENDBRANCH  12  13
ENDBRANCH   9  12
ENDBRANCH   1   9
BRANCH   5  19
ATOM     19  C   UNL     1      47.823   7.886  11.781  0.00  0.00    +0.000 C 
BRANCH  19  20
ATOM     20  N   UNL     1      47.079   6.656  11.658  0.00  0.00    +0.000 N 
ATOM     21  C   UNL     1      45.707   6.656  11.643  0.00  0.00    +0.000 C 
ATOM     22  O   UNL     1      45.058   7.699  11.675  0.00  0.00    +0.000 OA
ATOM     23  H   UNL     1      47.571   5.786  11.833  0.00  0.00    +0.000 HD
BRANCH  21  24
ATOM     24  C   UNL     1      45.052   5.347  11.531  0.00  0.00    +0.000 A 
ATOM     25  C   UNL     1      44.365   4.828  12.620  0.00  0.00    +0.000 A 
ATOM     26  S   UNL     1      43.622   3.326  12.307  0.00  0.00    +0.000 S 
ATOM     27  C   UNL     1      44.239   3.288  10.722  0.00  0.00    +0.000 A 
ATOM     28  N   UNL     1      43.990   2.234   9.901  0.00  0.00    +0.000 NA
ATOM     29  C   UNL     1      44.545   2.322   8.737  0.00  0.00    +0.000 A 
ATOM     30  N   UNL     1      45.323   3.370   8.321  0.00  0.00    +0.000 N 
ATOM     31  C   UNL     1      45.578   4.469   9.106  0.00  0.00    +0.000 A 
ATOM     32  O   UNL     1      46.245   5.411   8.688  0.00  0.00    +0.000 OA
ATOM     33  C   UNL     1      44.986   4.416  10.429  0.00  0.00    +0.000 A 
ATOM     34  H   UNL     1      45.720   3.381   7.392  0.00  0.00    +0.000 HD
ENDBRANCH  21  24
ENDBRANCH  19  20
ENDBRANCH   5  19
TORSDOF 7
ENDMDL
MODEL 9
REMARK VINA RESULT:    -7.416      1.351      2.391
REMARK INTER + INTRA:         -10.843
REMARK INTER:                 -11.134
REMARK INTRA:                   0.291
REMARK UNBOUND:                -0.392
REMARK  Name = 
REMARK  7 active torsions:
REMARK  status: ('A' for Active; 'I' for Inactive)
REMARK    1  A    between atoms: C_2  and  C_3
REMARK    2  A    between atoms: C_3  and  C_4
REMARK    3  A    between atoms: C_3  and  N_11
REMARK    4  A    between atoms: C_4  and  C_5
REMARK    5  A    between atoms: C_15  and  C_16
REMARK    6  A    between atoms: C_16  and  N_17
REMARK    7  A    between atoms: C_18  and  C_20
REMARK                            x       y       z     vdW  Elec       q    Type
REMARK                         _______ _______ _______ _____ _____    ______ ____
ROOT
ATOM      1  N   UNL     1      46.569   6.094  11.392  0.00  0.00    +0.000 N 
ATOM      2  C   UNL     1      47.395   6.462  12.475  0.00  0.00    +0.000 A 
ATOM      3  C   UNL     1      48.315   7.489  12.289  0.00  0.00    +0.000 A 
ATOM      4  C   UNL     1      49.106   7.906  13.357  0.00  0.00    +0.000 A 
ATOM      5  C   UNL     1      49.018   7.251  14.585  0.00  0.00    +0.000 A 
ATOM      6  C   UNL     1      48.122   6.193  14.661  0.00  0.00    +0.000 A 
ATOM      7  N   UNL     1      47.312   5.802  13.645  0.00  0.00    +0.000 NA
ATOM      8  H   UNL     1      46.341   6.944  10.879  0.00  0.00    +0.000 HD
ENDROOT
BRANCH   1   9
ATOM      9  C   UNL     1      45.330   5.401  11.822  0.00  0.00    +0.000 C 
BRANCH   9  11
ATOM     10  N   UNL     1      45.741   3.058  12.997  0.00  0.00    +0.000 NA
ATOM     11  C   UNL     1      45.602   4.094  12.486  0.00  0.00    +0.000 C 
ENDBRANCH   9  11
BRANCH   9  12
ATOM     12  C   UNL     1      44.422   5.141  10.588  0.00  0.00    +0.000 C 
BRANCH  12  13
ATOM     13  C   UNL     1      45.014   4.193   9.561  0.00  0.00    +0.000 A 
ATOM     14  C   UNL     1      44.770   2.815   9.648  0.00  0.00    +0.000 A 
ATOM     15  C   UNL     1      45.338   1.934   8.725  0.00  0.00    +0.000 A 
ATOM     16  C   UNL     1      46.149   2.420   7.702  0.00  0.00    +0.000 A 
ATOM     17  C   UNL     1      46.383   3.789   7.594  0.00  0.00    +0.000 A 
ATOM     18  C   UNL     1      45.815   4.672   8.513  0.00  0.00    +0.000 A 
ENDBRANCH  12  13
ENDBRANCH   9  12
ENDBRANCH   1   9
BRANCH   5  19
ATOM     19  C   UNL     1      49.813   7.692  15.780  0.00  0.00    +0.000 C 
BRANCH  19  20
ATOM     20  N   UNL     1      50.731   6.676  16.234  0.00  0.00    +0.000 N 
ATOM     21  C   UNL     1      50.472   5.940  17.363  0.00  0.00    +0.000 C 
ATOM     22  O   UNL     1      49.428   6.072  17.997  0.00  0.00    +0.000 OA
ATOM     23  H   UNL     1      51.673   6.687  15.857  0.00  0.00    +0.000 HD
BRANCH  21  24
ATOM     24  C   UNL     1      51.482   4.944  17.742  0.00  0.00    +0.000 A 
ATOM     25  C   UNL     1      52.698   5.366  18.264  0.00  0.00    +0.000 A 
ATOM     26  S   UNL     1      53.736   4.085  18.700  0.00  0.00    +0.000 S 
ATOM     27  C   UNL     1      52.620   2.922  18.156  0.00  0.00    +0.000 A 
ATOM     28  N   UNL     1      52.906   1.595  18.221  0.00  0.00    +0.000 NA
ATOM     29  C   UNL     1      51.983   0.826  17.745  0.00  0.00    +0.000 A 
ATOM     30  N   UNL     1      50.799   1.265  17.214  0.00  0.00    +0.000 N 
ATOM     31  C   UNL     1      50.454   2.595  17.153  0.00  0.00    +0.000 A 
ATOM     32  O   UNL     1      49.368   2.952  16.710  0.00  0.00    +0.000 OA
ATOM     33  C   UNL     1      51.462   3.503  17.666  0.00  0.00    +0.000 A 
ATOM     34  H   UNL     1      50.114   0.609  16.867  0.00  0.00    +0.000 HD
ENDBRANCH  21  24
ENDBRANCH  19  20
ENDBRANCH   5  19
TORSDOF 7
ENDMDL
