MODEL 1
REMARK VINA RESULT:    -8.337      0.000      0.000
REMARK INTER + INTRA:         -12.000
REMARK INTER:                 -11.261
REMARK INTRA:                  -0.739
REMARK UNBOUND:                -0.739
REMARK  Name = 
REMARK  7 active torsions:
REMARK  status: ('A' for Active; 'I' for Inactive)
REMARK    1  A    between atoms: C_1  and  O_2
REMARK    2  A    between atoms: O_2  and  C_3
REMARK    3  A    between atoms: C_6  and  N_7
REMARK    4  A    between atoms: N_7  and  C_8
REMARK    5  A    between atoms: C_8  and  C_9
REMARK    6  A    between atoms: C_13  and  C_14
REMARK    7  A    between atoms: C_22  and  C_23
REMARK                            x       y       z     vdW  Elec       q    Type
REMARK                         _______ _______ _______ _____ _____    ______ ____
ROOT
ATOM      1  C   UNL     1      43.251   6.116  11.137  0.00  0.00    +0.000 C 
ENDROOT
BRANCH   1   2
ATOM      2  C   UNL     1      43.627   4.684  10.839  0.00  0.00    +0.000 A 
ATOM      3  C   UNL     1      43.105   3.617  11.570  0.00  0.00    +0.000 A 
ATOM      4  C   UNL     1      43.405   2.325  11.164  0.00  0.00    +0.000 A 
ATOM      5  N   UNL     1      44.195   2.028  10.111  0.00  0.00    +0.000 NA
ATOM      6  C   UNL     1      44.742   3.060   9.422  0.00  0.00    +0.000 A 
ATOM      7  C   UNL     1      44.464   4.386   9.757  0.00  0.00    +0.000 A 
BRANCH   6   8
ATOM      8  C   UNL     1      45.635   2.697   8.301  0.00  0.00    +0.000 A 
ATOM      9  C   UNL     1      45.947   3.623   7.290  0.00  0.00    +0.000 A 
ATOM     10  C   UNL     1      46.799   3.288   6.233  0.00  0.00    +0.000 A 
ATOM     11  C   UNL     1      47.354   2.013   6.164  0.00  0.00    +0.000 A 
ATOM     12  C   UNL     1      47.055   1.074   7.144  0.00  0.00    +0.000 A 
ATOM     13  C   UNL     1      46.202   1.413   8.198  0.00  0.00    +0.000 A 
ENDBRANCH   6   8
ENDBRANCH   1   2
BRANCH   1  14
ATOM     14  N   UNL     1      43.778   6.620  12.394  0.00  0.00    +0.000 N 
ATOM     15  H   UNL     1      43.165   6.526  13.193  0.00  0.00    +0.000 HD
BRANCH  14  19
ATOM     16  C   UNL     1      47.817   6.352  13.442  0.00  0.00    +0.000 A 
ATOM     17  C   UNL     1      47.252   7.455  12.815  0.00  0.00    +0.000 A 
ATOM     18  N   UNL     1      45.959   7.556  12.418  0.00  0.00    +0.000 NA
ATOM     19  C   UNL     1      45.137   6.513  12.651  0.00  0.00    +0.000 A 
ATOM     20  C   UNL     1      45.606   5.373  13.293  0.00  0.00    +0.000 A 
ATOM     21  C   UNL     1      46.946   5.291  13.697  0.00  0.00    +0.000 A 
BRANCH  16  23
ATOM     22  C   UNL     1      49.421   7.266  14.957  0.00  0.00    +0.000 C 
ATOM     23  O   UNL     1      49.126   6.495  13.797  0.00  0.00    +0.000 OA
ENDBRANCH  16  23
BRANCH  21  24
ATOM     24  C   UNL     1      47.308   4.105  14.419  0.00  0.00    +0.000 C 
ATOM     25  N   UNL     1      47.587   3.134  14.980  0.00  0.00    +0.000 NA
ENDBRANCH  21  24
ENDBRANCH  14  19
ENDBRANCH   1  14
TORSDOF 6
ENDMDL
MODEL 2
REMARK VINA RESULT:    -7.693      1.721      2.124
REMARK INTER + INTRA:         -11.130
REMARK INTER:                 -10.334
REMARK INTRA:                  -0.796
REMARK UNBOUND:                -0.739
REMARK  Name = 
REMARK  7 active torsions:
REMARK  status: ('A' for Active; 'I' for Inactive)
REMARK    1  A    between atoms: C_1  and  O_2
REMARK    2  A    between atoms: O_2  and  C_3
REMARK    3  A    between atoms: C_6  and  N_7
REMARK    4  A    between atoms: N_7  and  C_8
REMARK    5  A    between atoms: C_8  and  C_9
REMARK    6  A    between atoms: C_13  and  C_14
REMARK    7  A    between atoms: C_22  and  C_23
REMARK                            x       y       z     vdW  Elec       q    Type
REMARK                         _______ _______ _______ _____ _____    ______ ____
ROOT
ATOM      1  C   UNL     1      45.068   5.708  12.848  0.00  0.00    +0.000 C 
ENDROOT
BRANCH   1   2
ATOM      2  C   UNL     1      44.680   4.506  12.020  0.00  0.00    +0.000 A 
ATOM      3  C   UNL     1      43.618   3.677  12.376  0.00  0.00    +0.000 A 
ATOM      4  C   UNL     1      43.248   2.662  11.506  0.00  0.00    +0.000 A 
ATOM      5  N   UNL     1      43.869   2.406  10.334  0.00  0.00    +0.000 NA
ATOM      6  C   UNL     1      44.931   3.183  10.002  0.00  0.00    +0.000 A 
ATOM      7  C   UNL     1      45.344   4.238  10.817  0.00  0.00    +0.000 A 
BRANCH   6   8
ATOM      8  C   UNL     1      45.612   2.849   8.733  0.00  0.00    +0.000 A 
ATOM      9  C   UNL     1      45.848   3.829   7.753  0.00  0.00    +0.000 A 
ATOM     10  C   UNL     1      46.500   3.521   6.556  0.00  0.00    +0.000 A 
ATOM     11  C   UNL     1      46.928   2.218   6.311  0.00  0.00    +0.000 A 
ATOM     12  C   UNL     1      46.699   1.226   7.258  0.00  0.00    +0.000 A 
ATOM     13  C   UNL     1      46.046   1.538   8.453  0.00  0.00    +0.000 A 
ENDBRANCH   6   8
ENDBRANCH   1   2
BRANCH   1  14
ATOM     14  N   UNL     1      46.480   6.046  12.781  0.00  0.00    +0.000 N 
ATOM     15  H   UNL     1      46.714   6.829  12.187  0.00  0.00    +0.000 HD
BRANCH  14  19
ATOM     16  C   UNL     1      48.654   5.638  16.330  0.00  0.00    +0.000 A 
ATOM     17  C   UNL     1      48.867   6.653  15.405  0.00  0.00    +0.000 A 
ATOM     18  N   UNL     1      48.215   6.787  14.223  0.00  0.00    +0.000 NA
ATOM     19  C   UNL     1      47.272   5.875  13.908  0.00  0.00    +0.000 A 
ATOM     20  C   UNL     1      46.974   4.836  14.780  0.00  0.00    +0.000 A 
ATOM     21  C   UNL     1      47.658   4.718  15.999  0.00  0.00    +0.000 A 
BRANCH  16  23
ATOM     22  C   UNL     1      50.571   4.945  17.575  0.00  0.00    +0.000 C 
ATOM     23  O   UNL     1      49.391   5.735  17.474  0.00  0.00    +0.000 OA
ENDBRANCH  16  23
BRANCH  21  24
ATOM     24  C   UNL     1      47.221   3.657  16.859  0.00  0.00    +0.000 C 
ATOM     25  N   UNL     1      46.854   2.791  17.532  0.00  0.00    +0.000 NA
ENDBRANCH  21  24
ENDBRANCH  14  19
ENDBRANCH   1  14
TORSDOF 6
ENDMDL
MODEL 3
REMARK VINA RESULT:    -7.578      2.554      6.717
REMARK INTER + INTRA:         -10.975
REMARK INTER:                 -10.081
REMARK INTRA:                  -0.894
REMARK UNBOUND:                -0.739
REMARK  Name = 
REMARK  7 active torsions:
REMARK  status: ('A' for Active; 'I' for Inactive)
REMARK    1  A    between atoms: C_1  and  O_2
REMARK    2  A    between atoms: O_2  and  C_3
REMARK    3  A    between atoms: C_6  and  N_7
REMARK    4  A    between atoms: N_7  and  C_8
REMARK    5  A    between atoms: C_8  and  C_9
REMARK    6  A    between atoms: C_13  and  C_14
REMARK    7  A    between atoms: C_22  and  C_23
REMARK                            x       y       z     vdW  Elec       q    Type
REMARK                         _______ _______ _______ _____ _____    ______ ____
ROOT
ATOM      1  C   UNL     1      44.041   3.222  11.255  0.00  0.00    +0.000 C 
ENDROOT
BRANCH   1   2
ATOM      2  C   UNL     1      45.070   3.972  12.068  0.00  0.00    +0.000 A 
ATOM      3  C   UNL     1      45.911   3.325  12.972  0.00  0.00    +0.000 A 
ATOM      4  C   UNL     1      46.908   4.062  13.595  0.00  0.00    +0.000 A 
ATOM      5  N   UNL     1      47.106   5.383  13.399  0.00  0.00    +0.000 NA
ATOM      6  C   UNL     1      46.265   6.028  12.553  0.00  0.00    +0.000 A 
ATOM      7  C   UNL     1      45.255   5.346  11.872  0.00  0.00    +0.000 A 
BRANCH   6   8
ATOM      8  C   UNL     1      46.485   7.481  12.395  0.00  0.00    +0.000 A 
ATOM      9  C   UNL     1      45.404   8.375  12.301  0.00  0.00    +0.000 A 
ATOM     10  C   UNL     1      45.607   9.751  12.161  0.00  0.00    +0.000 A 
ATOM     11  C   UNL     1      46.901  10.262  12.106  0.00  0.00    +0.000 A 
ATOM     12  C   UNL     1      47.989   9.400  12.186  0.00  0.00    +0.000 A 
ATOM     13  C   UNL     1      47.782   8.025  12.325  0.00  0.00    +0.000 A 
ENDBRANCH   6   8
ENDBRANCH   1   2
BRANCH   1  14
ATOM     14  N   UNL     1      43.884   3.712   9.897  0.00  0.00    +0.000 N 
ATOM     15  H   UNL     1      43.429   4.611   9.807  0.00  0.00    +0.000 HD
BRANCH  14  19
ATOM     16  C   UNL     1      47.005   2.790   7.271  0.00  0.00    +0.000 A 
ATOM     17  C   UNL     1      46.603   4.086   7.570  0.00  0.00    +0.000 A 
ATOM     18  N   UNL     1      45.566   4.419   8.378  0.00  0.00    +0.000 NA
ATOM     19  C   UNL     1      44.861   3.425   8.954  0.00  0.00    +0.000 A 
ATOM     20  C   UNL     1      45.201   2.097   8.732  0.00  0.00    +0.000 A 
ATOM     21  C   UNL     1      46.279   1.774   7.895  0.00  0.00    +0.000 A 
BRANCH  16  23
ATOM     22  C   UNL     1      47.917   2.350   5.108  0.00  0.00    +0.000 C 
ATOM     23  O   UNL     1      48.109   2.695   6.475  0.00  0.00    +0.000 OA
ENDBRANCH  16  23
BRANCH  21  24
ATOM     24  C   UNL     1      46.594   0.378   7.794  0.00  0.00    +0.000 C 
ATOM     25  N   UNL     1      46.857  -0.747   7.740  0.00  0.00    +0.000 NA
ENDBRANCH  21  24
ENDBRANCH  14  19
ENDBRANCH   1  14
TORSDOF 6
ENDMDL
MODEL 4
REMARK VINA RESULT:    -7.551      1.541      2.653
REMARK INTER + INTRA:         -10.939
REMARK INTER:                 -10.102
REMARK INTRA:                  -0.837
REMARK UNBOUND:                -0.739
REMARK  Name = 
REMARK  7 active torsions:
REMARK  status: ('A' for Active; 'I' for Inactive)
REMARK    1  A    between atoms: C_1  and  O_2
REMARK    2  A    between atoms: O_2  and  C_3
REMARK    3  A    between atoms: C_6  and  N_7
REMARK    4  A    between atoms: N_7  and  C_8
REMARK    5  A    between atoms: C_8  and  C_9
REMARK    6  A    between atoms: C_13  and  C_14
REMARK    7  A    between atoms: C_22  and  C_23
REMARK                            x       y       z     vdW  Elec       q    Type
REMARK                         _______ _______ _______ _____ _____    ______ ____
ROOT
ATOM      1  C   UNL     1      43.943   6.535  11.455  0.00  0.00    +0.000 C 
ENDROOT
BRANCH   1   2
ATOM      2  C   UNL     1      44.022   5.072  11.089  0.00  0.00    +0.000 A 
ATOM      3  C   UNL     1      43.286   4.101  11.767  0.00  0.00    +0.000 A 
ATOM      4  C   UNL     1      43.321   2.796  11.299  0.00  0.00    +0.000 A 
ATOM      5  N   UNL     1      44.045   2.393  10.233  0.00  0.00    +0.000 NA
ATOM      6  C   UNL     1      44.797   3.324   9.594  0.00  0.00    +0.000 A 
ATOM      7  C   UNL     1      44.792   4.662   9.993  0.00  0.00    +0.000 A 
BRANCH   6   8
ATOM      8  C   UNL     1      45.609   2.840   8.458  0.00  0.00    +0.000 A 
ATOM      9  C   UNL     1      45.932   3.686   7.382  0.00  0.00    +0.000 A 
ATOM     10  C   UNL     1      46.708   3.236   6.309  0.00  0.00    +0.000 A 
ATOM     11  C   UNL     1      47.173   1.924   6.288  0.00  0.00    +0.000 A 
ATOM     12  C   UNL     1      46.860   1.063   7.334  0.00  0.00    +0.000 A 
ATOM     13  C   UNL     1      46.084   1.516   8.404  0.00  0.00    +0.000 A 
ENDBRANCH   6   8
ENDBRANCH   1   2
BRANCH   1  14
ATOM     14  N   UNL     1      44.524   6.857  12.748  0.00  0.00    +0.000 N 
ATOM     15  H   UNL     1      44.116   6.379  13.540  0.00  0.00    +0.000 HD
BRANCH  14  19
ATOM     16  C   UNL     1      48.617   7.714  12.719  0.00  0.00    +0.000 A 
ATOM     17  C   UNL     1      48.095   6.434  12.865  0.00  0.00    +0.000 A 
ATOM     18  N   UNL     1      46.776   6.127  12.927  0.00  0.00    +0.000 NA
ATOM     19  C   UNL     1      45.882   7.131  12.832  0.00  0.00    +0.000 A 
ATOM     20  C   UNL     1      46.307   8.443  12.662  0.00  0.00    +0.000 A 
ATOM     21  C   UNL     1      47.676   8.739  12.598  0.00  0.00    +0.000 A 
BRANCH  16  23
ATOM     22  C   UNL     1      50.562   7.719  11.333  0.00  0.00    +0.000 C 
ATOM     23  O   UNL     1      49.976   7.779  12.629  0.00  0.00    +0.000 OA
ENDBRANCH  16  23
BRANCH  21  24
ATOM     24  C   UNL     1      48.007  10.111  12.344  0.00  0.00    +0.000 C 
ATOM     25  N   UNL     1      48.301  11.211  12.142  0.00  0.00    +0.000 NA
ENDBRANCH  21  24
ENDBRANCH  14  19
ENDBRANCH   1  14
TORSDOF 6
ENDMDL
MODEL 5
REMARK VINA RESULT:    -7.392      2.151      2.603
REMARK INTER + INTRA:         -10.724
REMARK INTER:                  -9.893
REMARK INTRA:                  -0.831
REMARK UNBOUND:                -0.739
REMARK  Name = 
REMARK  7 active torsions:
REMARK  status: ('A' for Active; 'I' for Inactive)
REMARK    1  A    between atoms: C_1  and  O_2
REMARK    2  A    between atoms: O_2  and  C_3
REMARK    3  A    between atoms: C_6  and  N_7
REMARK    4  A    between atoms: N_7  and  C_8
REMARK    5  A    between atoms: C_8  and  C_9
REMARK    6  A    between atoms: C_13  and  C_14
REMARK    7  A    between atoms: C_22  and  C_23
REMARK                            x       y       z     vdW  Elec       q    Type
REMARK                         _______ _______ _______ _____ _____    ______ ____
ROOT
ATOM      1  C   UNL     1      43.707   6.521  11.422  0.00  0.00    +0.000 C 
ENDROOT
BRANCH   1   2
ATOM      2  C   UNL     1      43.860   5.056  11.090  0.00  0.00    +0.000 A 
ATOM      3  C   UNL     1      43.179   4.065  11.796  0.00  0.00    +0.000 A 
ATOM      4  C   UNL     1      43.279   2.752  11.359  0.00  0.00    +0.000 A 
ATOM      5  N   UNL     1      44.018   2.362  10.298  0.00  0.00    +0.000 NA
ATOM      6  C   UNL     1      44.717   3.315   9.633  0.00  0.00    +0.000 A 
ATOM      7  C   UNL     1      44.644   4.660  10.000  0.00  0.00    +0.000 A 
BRANCH   6   8
ATOM      8  C   UNL     1      45.547   2.846   8.503  0.00  0.00    +0.000 A 
ATOM      9  C   UNL     1      45.855   3.695   7.425  0.00  0.00    +0.000 A 
ATOM     10  C   UNL     1      46.648   3.260   6.359  0.00  0.00    +0.000 A 
ATOM     11  C   UNL     1      47.147   1.960   6.347  0.00  0.00    +0.000 A 
ATOM     12  C   UNL     1      46.850   1.096   7.395  0.00  0.00    +0.000 A 
ATOM     13  C   UNL     1      46.057   1.534   8.458  0.00  0.00    +0.000 A 
ENDBRANCH   6   8
ENDBRANCH   1   2
BRANCH   1  14
ATOM     14  N   UNL     1      44.570   6.980  12.497  0.00  0.00    +0.000 N 
ATOM     15  H   UNL     1      44.822   6.282  13.183  0.00  0.00    +0.000 HD
BRANCH  14  19
ATOM     16  C   UNL     1      47.552   9.863  11.960  0.00  0.00    +0.000 A 
ATOM     17  C   UNL     1      46.217  10.166  12.198  0.00  0.00    +0.000 A 
ATOM     18  N   UNL     1      45.217   9.258  12.329  0.00  0.00    +0.000 NA
ATOM     19  C   UNL     1      45.527   7.950  12.231  0.00  0.00    +0.000 A 
ATOM     20  C   UNL     1      46.839   7.548  12.015  0.00  0.00    +0.000 A 
ATOM     21  C   UNL     1      47.858   8.503  11.885  0.00  0.00    +0.000 A 
BRANCH  16  23
ATOM     22  C   UNL     1      48.969  11.381  13.140  0.00  0.00    +0.000 C 
ATOM     23  O   UNL     1      48.391  10.937  11.917  0.00  0.00    +0.000 OA
ENDBRANCH  16  23
BRANCH  21  24
ATOM     24  C   UNL     1      49.186   7.982  11.742  0.00  0.00    +0.000 C 
ATOM     25  N   UNL     1      50.268   7.588  11.626  0.00  0.00    +0.000 NA
ENDBRANCH  21  24
ENDBRANCH  14  19
ENDBRANCH   1  14
TORSDOF 6
ENDMDL
MODEL 6
REMARK VINA RESULT:    -7.331      1.473      2.019
REMARK INTER + INTRA:         -10.641
REMARK INTER:                  -9.819
REMARK INTRA:                  -0.822
REMARK UNBOUND:                -0.739
REMARK  Name = 
REMARK  7 active torsions:
REMARK  status: ('A' for Active; 'I' for Inactive)
REMARK    1  A    between atoms: C_1  and  O_2
REMARK    2  A    between atoms: O_2  and  C_3
REMARK    3  A    between atoms: C_6  and  N_7
REMARK    4  A    between atoms: N_7  and  C_8
REMARK    5  A    between atoms: C_8  and  C_9
REMARK    6  A    between atoms: C_13  and  C_14
REMARK    7  A    between atoms: C_22  and  C_23
REMARK                            x       y       z     vdW  Elec       q    Type
REMARK                         _______ _______ _______ _____ _____    ______ ____
ROOT
ATOM      1  C   UNL     1      43.896   6.562  11.387  0.00  0.00    +0.000 C 
ENDROOT
BRANCH   1   2
ATOM      2  C   UNL     1      44.002   5.095  11.043  0.00  0.00    +0.000 A 
ATOM      3  C   UNL     1      43.286   4.121  11.738  0.00  0.00    +0.000 A 
ATOM      4  C   UNL     1      43.345   2.809  11.289  0.00  0.00    +0.000 A 
ATOM      5  N   UNL     1      44.075   2.404  10.228  0.00  0.00    +0.000 NA
ATOM      6  C   UNL     1      44.808   3.340   9.574  0.00  0.00    +0.000 A 
ATOM      7  C   UNL     1      44.777   4.683   9.953  0.00  0.00    +0.000 A 
BRANCH   6   8
ATOM      8  C   UNL     1      45.626   2.854   8.443  0.00  0.00    +0.000 A 
ATOM      9  C   UNL     1      46.103   1.532   8.405  0.00  0.00    +0.000 A 
ATOM     10  C   UNL     1      46.870   1.065   7.333  0.00  0.00    +0.000 A 
ATOM     11  C   UNL     1      47.180   1.916   6.276  0.00  0.00    +0.000 A 
ATOM     12  C   UNL     1      46.730   3.231   6.292  0.00  0.00    +0.000 A 
ATOM     13  C   UNL     1      45.965   3.695   7.365  0.00  0.00    +0.000 A 
ENDBRANCH   6   8
ENDBRANCH   1   2
BRANCH   1  14
ATOM     14  N   UNL     1      44.503   6.920  12.658  0.00  0.00    +0.000 N 
ATOM     15  H   UNL     1      44.252   6.334  13.442  0.00  0.00    +0.000 HD
BRANCH  14  19
ATOM     16  C   UNL     1      48.315   8.614  12.948  0.00  0.00    +0.000 A 
ATOM     17  C   UNL     1      47.308   9.111  12.130  0.00  0.00    +0.000 A 
ATOM     18  N   UNL     1      46.079   8.560  11.976  0.00  0.00    +0.000 NA
ATOM     19  C   UNL     1      45.789   7.442  12.671  0.00  0.00    +0.000 A 
ATOM     20  C   UNL     1      46.725   6.882  13.532  0.00  0.00    +0.000 A 
ATOM     21  C   UNL     1      47.989   7.470  13.679  0.00  0.00    +0.000 A 
BRANCH  16  23
ATOM     22  C   UNL     1      49.952   9.882  11.757  0.00  0.00    +0.000 C 
ATOM     23  O   UNL     1      49.454   9.364  12.986  0.00  0.00    +0.000 OA
ENDBRANCH  16  23
BRANCH  21  24
ATOM     24  C   UNL     1      48.853   6.859  14.648  0.00  0.00    +0.000 C 
ATOM     25  N   UNL     1      49.535   6.381  15.450  0.00  0.00    +0.000 NA
ENDBRANCH  21  24
ENDBRANCH  14  19
ENDBRANCH   1  14
TORSDOF 6
ENDMDL
MODEL 7
REMARK VINA RESULT:    -6.948      2.884      6.743
REMARK INTER + INTRA:         -10.124
REMARK INTER:                  -9.756
REMARK INTRA:                  -0.368
REMARK UNBOUND:                -0.739
REMARK  Name = 
REMARK  7 active torsions:
REMARK  status: ('A' for Active; 'I' for Inactive)
REMARK    1  A    between atoms: C_1  and  O_2
REMARK    2  A    between atoms: O_2  and  C_3
REMARK    3  A    between atoms: C_6  and  N_7
REMARK    4  A    between atoms: N_7  and  C_8
REMARK    5  A    between atoms: C_8  and  C_9
REMARK    6  A    between atoms: C_13  and  C_14
REMARK    7  A    between atoms: C_22  and  C_23
REMARK                            x       y       z     vdW  Elec       q    Type
REMARK                         _______ _______ _______ _____ _____    ______ ____
ROOT
ATOM      1  C   UNL     1      44.170   6.043  11.865  0.00  0.00    +0.000 C 
ENDROOT
BRANCH   1   2
ATOM      2  C   UNL     1      45.580   6.080  12.405  0.00  0.00    +0.000 A 
ATOM      3  C   UNL     1      46.042   5.142  13.327  0.00  0.00    +0.000 A 
ATOM      4  C   UNL     1      47.381   5.170  13.687  0.00  0.00    +0.000 A 
ATOM      5  N   UNL     1      48.272   6.069  13.218  0.00  0.00    +0.000 NA
ATOM      6  C   UNL     1      47.820   7.012  12.354  0.00  0.00    +0.000 A 
ATOM      7  C   UNL     1      46.491   7.029  11.926  0.00  0.00    +0.000 A 
BRANCH   6   8
ATOM      8  C   UNL     1      48.813   8.005  11.892  0.00  0.00    +0.000 A 
ATOM      9  C   UNL     1      48.478   9.365  11.766  0.00  0.00    +0.000 A 
ATOM     10  C   UNL     1      49.416  10.310  11.339  0.00  0.00    +0.000 A 
ATOM     11  C   UNL     1      50.713   9.911  11.025  0.00  0.00    +0.000 A 
ATOM     12  C   UNL     1      51.069   8.571  11.131  0.00  0.00    +0.000 A 
ATOM     13  C   UNL     1      50.128   7.630  11.557  0.00  0.00    +0.000 A 
ENDBRANCH   6   8
ENDBRANCH   1   2
BRANCH   1  14
ATOM     14  N   UNL     1      44.085   5.753  10.444  0.00  0.00    +0.000 N 
ATOM     15  H   UNL     1      44.181   6.549   9.829  0.00  0.00    +0.000 HD
BRANCH  14  19
ATOM     16  C   UNL     1      45.380   2.128   8.810  0.00  0.00    +0.000 A 
ATOM     17  C   UNL     1      44.645   2.228   9.984  0.00  0.00    +0.000 A 
ATOM     18  N   UNL     1      44.250   3.388  10.567  0.00  0.00    +0.000 NA
ATOM     19  C   UNL     1      44.582   4.548   9.967  0.00  0.00    +0.000 A 
ATOM     20  C   UNL     1      45.298   4.549   8.776  0.00  0.00    +0.000 A 
ATOM     21  C   UNL     1      45.694   3.339   8.189  0.00  0.00    +0.000 A 
BRANCH  16  23
ATOM     22  C   UNL     1      46.837   0.601   7.691  0.00  0.00    +0.000 C 
ATOM     23  O   UNL     1      45.618   0.855   8.382  0.00  0.00    +0.000 OA
ENDBRANCH  16  23
BRANCH  21  24
ATOM     24  C   UNL     1      46.360   3.447   6.923  0.00  0.00    +0.000 C 
ATOM     25  N   UNL     1      46.920   3.547   5.916  0.00  0.00    +0.000 NA
ENDBRANCH  21  24
ENDBRANCH  14  19
ENDBRANCH   1  14
TORSDOF 6
ENDMDL
MODEL 8
REMARK VINA RESULT:    -6.902      2.339      3.723
REMARK INTER + INTRA:         -10.062
REMARK INTER:                  -9.357
REMARK INTRA:                  -0.704
REMARK UNBOUND:                -0.739
REMARK  Name = 
REMARK  7 active torsions:
REMARK  status: ('A' for Active; 'I' for Inactive)
REMARK    1  A    between atoms: C_1  and  O_2
REMARK    2  A    between atoms: O_2  and  C_3
REMARK    3  A    between atoms: C_6  and  N_7
REMARK    4  A    between atoms: N_7  and  C_8
REMARK    5  A    between atoms: C_8  and  C_9
REMARK    6  A    between atoms: C_13  and  C_14
REMARK    7  A    between atoms: C_22  and  C_23
REMARK                            x       y       z     vdW  Elec       q    Type
REMARK                         _______ _______ _______ _____ _____    ______ ____
ROOT
ATOM      1  C   UNL     1      45.214   5.529  13.024  0.00  0.00    +0.000 C 
ENDROOT
BRANCH   1   2
ATOM      2  C   UNL     1      44.766   4.403  12.122  0.00  0.00    +0.000 A 
ATOM      3  C   UNL     1      43.647   3.625  12.414  0.00  0.00    +0.000 A 
ATOM      4  C   UNL     1      43.230   2.687  11.481  0.00  0.00    +0.000 A 
ATOM      5  N   UNL     1      43.855   2.459  10.306  0.00  0.00    +0.000 NA
ATOM      6  C   UNL     1      44.970   3.182  10.035  0.00  0.00    +0.000 A 
ATOM      7  C   UNL     1      45.433   4.161  10.915  0.00  0.00    +0.000 A 
BRANCH   6   8
ATOM      8  C   UNL     1      45.652   2.877   8.759  0.00  0.00    +0.000 A 
ATOM      9  C   UNL     1      46.079   1.572   8.456  0.00  0.00    +0.000 A 
ATOM     10  C   UNL     1      46.716   1.277   7.247  0.00  0.00    +0.000 A 
ATOM     11  C   UNL     1      46.944   2.286   6.315  0.00  0.00    +0.000 A 
ATOM     12  C   UNL     1      46.541   3.587   6.592  0.00  0.00    +0.000 A 
ATOM     13  C   UNL     1      45.906   3.879   7.802  0.00  0.00    +0.000 A 
ENDBRANCH   6   8
ENDBRANCH   1   2
BRANCH   1  14
ATOM     14  N   UNL     1      44.648   6.824  12.684  0.00  0.00    +0.000 N 
ATOM     15  H   UNL     1      43.730   7.012  13.064  0.00  0.00    +0.000 HD
BRANCH  14  19
ATOM     16  C   UNL     1      47.166  10.092  12.000  0.00  0.00    +0.000 A 
ATOM     17  C   UNL     1      47.617   8.834  12.380  0.00  0.00    +0.000 A 
ATOM     18  N   UNL     1      46.827   7.767  12.656  0.00  0.00    +0.000 NA
ATOM     19  C   UNL     1      45.491   7.918  12.551  0.00  0.00    +0.000 A 
ATOM     20  C   UNL     1      44.946   9.134  12.156  0.00  0.00    +0.000 A 
ATOM     21  C   UNL     1      45.782  10.223  11.872  0.00  0.00    +0.000 A 
BRANCH  16  23
ATOM     22  C   UNL     1      49.446  10.504  11.419  0.00  0.00    +0.000 C 
ATOM     23  O   UNL     1      48.146  10.999  11.722  0.00  0.00    +0.000 OA
ENDBRANCH  16  23
BRANCH  21  24
ATOM     24  C   UNL     1      45.124  11.407  11.399  0.00  0.00    +0.000 C 
ATOM     25  N   UNL     1      44.615  12.378  11.030  0.00  0.00    +0.000 NA
ENDBRANCH  21  24
ENDBRANCH  14  19
ENDBRANCH   1  14
TORSDOF 6
ENDMDL
MODEL 9
REMARK VINA RESULT:    -6.830      2.011      3.032
REMARK INTER + INTRA:          -9.965
REMARK INTER:                  -9.105
REMARK INTRA:                  -0.859
REMARK UNBOUND:                -0.739
REMARK  Name = 
REMARK  7 active torsions:
REMARK  status: ('A' for Active; 'I' for Inactive)
REMARK    1  A    between atoms: C_1  and  O_2
REMARK    2  A    between atoms: O_2  and  C_3
REMARK    3  A    between atoms: C_6  and  N_7
REMARK    4  A    between atoms: N_7  and  C_8
REMARK    5  A    between atoms: C_8  and  C_9
REMARK    6  A    between atoms: C_13  and  C_14
REMARK    7  A    between atoms: C_22  and  C_23
REMARK                            x       y       z     vdW  Elec       q    Type
REMARK                         _______ _______ _______ _____ _____    ______ ____
ROOT
ATOM      1  C   UNL     1      45.130   6.985  12.668  0.00  0.00    +0.000 C 
ENDROOT
BRANCH   1   2
ATOM      2  C   UNL     1      44.582   5.754  11.987  0.00  0.00    +0.000 A 
ATOM      3  C   UNL     1      43.355   5.197  12.345  0.00  0.00    +0.000 A 
ATOM      4  C   UNL     1      42.864   4.137  11.597  0.00  0.00    +0.000 A 
ATOM      5  N   UNL     1      43.513   3.587  10.548  0.00  0.00    +0.000 NA
ATOM      6  C   UNL     1      44.727   4.096  10.221  0.00  0.00    +0.000 A 
ATOM      7  C   UNL     1      45.272   5.178  10.913  0.00  0.00    +0.000 A 
BRANCH   6   8
ATOM      8  C   UNL     1      45.426   3.443   9.095  0.00  0.00    +0.000 A 
ATOM      9  C   UNL     1      45.585   2.046   9.047  0.00  0.00    +0.000 A 
ATOM     10  C   UNL     1      46.237   1.423   7.979  0.00  0.00    +0.000 A 
ATOM     11  C   UNL     1      46.750   2.188   6.935  0.00  0.00    +0.000 A 
ATOM     12  C   UNL     1      46.617   3.572   6.960  0.00  0.00    +0.000 A 
ATOM     13  C   UNL     1      45.966   4.191   8.030  0.00  0.00    +0.000 A 
ENDBRANCH   6   8
ENDBRANCH   1   2
BRANCH   1  14
ATOM     14  N   UNL     1      46.139   7.692  11.897  0.00  0.00    +0.000 N 
ATOM     15  H   UNL     1      45.798   8.453  11.327  0.00  0.00    +0.000 HD
BRANCH  14  19
ATOM     16  C   UNL     1      50.011   7.881  13.465  0.00  0.00    +0.000 A 
ATOM     17  C   UNL     1      48.859   7.936  14.241  0.00  0.00    +0.000 A 
ATOM     18  N   UNL     1      47.590   7.926  13.762  0.00  0.00    +0.000 NA
ATOM     19  C   UNL     1      47.412   7.848  12.428  0.00  0.00    +0.000 A 
ATOM     20  C   UNL     1      48.504   7.767  11.572  0.00  0.00    +0.000 A 
ATOM     21  C   UNL     1      49.808   7.776  12.088  0.00  0.00    +0.000 A 
BRANCH  16  23
ATOM     22  C   UNL     1      51.143   7.364  15.504  0.00  0.00    +0.000 C 
ATOM     23  O   UNL     1      51.180   7.852  14.167  0.00  0.00    +0.000 OA
ENDBRANCH  16  23
BRANCH  21  24
ATOM     24  C   UNL     1      50.860   7.611  11.128  0.00  0.00    +0.000 C 
ATOM     25  N   UNL     1      51.722   7.500  10.364  0.00  0.00    +0.000 NA
ENDBRANCH  21  24
ENDBRANCH  14  19
ENDBRANCH   1  14
TORSDOF 6
ENDMDL
