MODEL 1
REMARK VINA RESULT:    -7.689      0.000      0.000
REMARK INTER + INTRA:         -11.729
REMARK INTER:                 -10.385
REMARK INTRA:                  -1.344
REMARK UNBOUND:                -1.344
REMARK  Name = 
REMARK  7 active torsions:
REMARK  status: ('A' for Active; 'I' for Inactive)
REMARK    1  A    between atoms: C_1  and  C_2
REMARK    2  A    between atoms: C_2  and  N_3
REMARK    3  A    between atoms: N_3  and  C_4
REMARK    4  A    between atoms: C_4  and  C_5
REMARK    5  A    between atoms: C_8  and  C_9
REMARK    6  A    between atoms: C_9  and  C_10
REMARK    7  A    between atoms: C_18  and  C_20
REMARK                            x       y       z     vdW  Elec       q    Type
REMARK                         _______ _______ _______ _____ _____    ______ ____
ROOT
ATOM      1  N   UNL     1      46.692   7.088  12.108  0.00  0.00    +0.000 N 
ATOM      2  C   UNL     1      45.430   6.781  11.558  0.00  0.00    +0.000 C 
ATOM      3  O   UNL     1      44.702   7.663  11.106  0.00  0.00    +0.000 OA
ENDROOT
BRANCH   2   4
ATOM      4  C   UNL     1      44.943   5.387  11.564  0.00  0.00    +0.000 A 
ATOM      5  C   UNL     1      44.237   4.792  12.598  0.00  0.00    +0.000 A 
ATOM      6  S   UNL     1      43.735   3.193  12.263  0.00  0.00    +0.000 S 
ATOM      7  C   UNL     1      44.298   3.302  10.663  0.00  0.00    +0.000 A 
ATOM      8  N   UNL     1      44.061   2.308   9.770  0.00  0.00    +0.000 NA
ATOM      9  C   UNL     1      44.483   2.563   8.575  0.00  0.00    +0.000 A 
ATOM     10  N   UNL     1      45.166   3.694   8.207  0.00  0.00    +0.000 N 
ATOM     11  C   UNL     1      45.548   4.666   9.118  0.00  0.00    +0.000 A 
ATOM     12  O   UNL     1      46.361   5.529   8.809  0.00  0.00    +0.000 OA
ATOM     13  C   UNL     1      44.971   4.490  10.433  0.00  0.00    +0.000 A 
ATOM     14  H   UNL     1      45.534   3.796   7.278  0.00  0.00    +0.000 HD
ENDBRANCH   2   4
BRANCH   1  16
ATOM     15  C   UNL     1      48.507   8.770  11.875  0.00  0.00    +0.000 C 
ATOM     16  C   UNL     1      47.049   8.505  12.224  0.00  0.00    +0.000 C 
ENDBRANCH   1  16
BRANCH   1  17
ATOM     17  C   UNL     1      47.568   6.065  12.665  0.00  0.00    +0.000 C 
BRANCH  17  18
ATOM     18  C   UNL     1      47.622   5.802  14.148  0.00  0.00    +0.000 A 
ATOM     19  C   UNL     1      46.975   4.669  14.669  0.00  0.00    +0.000 A 
ATOM     20  C   UNL     1      47.262   4.216  15.956  0.00  0.00    +0.000 A 
ATOM     21  C   UNL     1      48.182   4.905  16.753  0.00  0.00    +0.000 A 
ATOM     22  C   UNL     1      48.737   6.103  16.275  0.00  0.00    +0.000 A 
ATOM     23  C   UNL     1      48.461   6.548  14.980  0.00  0.00    +0.000 A 
BRANCH  21  24
ATOM     24  C   UNL     1      48.669   4.287  18.049  0.00  0.00    +0.000 C 
BRANCH  24  25
ATOM     25  C   UNL     1      49.986   3.548  17.888  0.00  0.00    +0.000 A 
ATOM     26  C   UNL     1      50.020   2.270  17.328  0.00  0.00    +0.000 A 
ATOM     27  C   UNL     1      51.233   1.592  17.251  0.00  0.00    +0.000 A 
ATOM     28  C   UNL     1      52.385   2.210  17.717  0.00  0.00    +0.000 A 
ATOM     29  C   UNL     1      52.274   3.487  18.238  0.00  0.00    +0.000 A 
ATOM     30  N   UNL     1      51.108   4.166  18.336  0.00  0.00    +0.000 NA
ENDBRANCH  24  25
ENDBRANCH  21  24
ENDBRANCH  17  18
ENDBRANCH   1  17
TORSDOF 6
ENDMDL
MODEL 2
REMARK VINA RESULT:    -7.316      1.428      2.428
REMARK INTER + INTRA:         -11.226
REMARK INTER:                  -9.924
REMARK INTRA:                  -1.302
REMARK UNBOUND:                -1.344
REMARK  Name = 
REMARK  7 active torsions:
REMARK  status: ('A' for Active; 'I' for Inactive)
REMARK    1  A    between atoms: C_1  and  C_2
REMARK    2  A    between atoms: C_2  and  N_3
REMARK    3  A    between atoms: N_3  and  C_4
REMARK    4  A    between atoms: C_4  and  C_5
REMARK    5  A    between atoms: C_8  and  C_9
REMARK    6  A    between atoms: C_9  and  C_10
REMARK    7  A    between atoms: C_18  and  C_20
REMARK                            x       y       z     vdW  Elec       q    Type
REMARK                         _______ _______ _______ _____ _____    ______ ____
ROOT
ATOM      1  N   UNL     1      46.454   7.227  12.147  0.00  0.00    +0.000 N 
ATOM      2  C   UNL     1      45.166   6.882  11.687  0.00  0.00    +0.000 C 
ATOM      3  O   UNL     1      44.371   7.744  11.316  0.00  0.00    +0.000 OA
ENDROOT
BRANCH   2   4
ATOM      4  C   UNL     1      44.736   5.470  11.694  0.00  0.00    +0.000 A 
ATOM      5  C   UNL     1      44.018   4.858  12.710  0.00  0.00    +0.000 A 
ATOM      6  S   UNL     1      43.593   3.236  12.377  0.00  0.00    +0.000 S 
ATOM      7  C   UNL     1      44.207   3.350  10.797  0.00  0.00    +0.000 A 
ATOM      8  N   UNL     1      44.042   2.338   9.909  0.00  0.00    +0.000 NA
ATOM      9  C   UNL     1      44.496   2.596   8.726  0.00  0.00    +0.000 A 
ATOM     10  N   UNL     1      45.146   3.750   8.368  0.00  0.00    +0.000 N 
ATOM     11  C   UNL     1      45.456   4.747   9.280  0.00  0.00    +0.000 A 
ATOM     12  O   UNL     1      46.244   5.639   8.989  0.00  0.00    +0.000 OA
ATOM     13  C   UNL     1      44.840   4.562  10.576  0.00  0.00    +0.000 A 
ATOM     14  H   UNL     1      45.542   3.857   7.451  0.00  0.00    +0.000 HD
ENDBRANCH   2   4
BRANCH   1  16
ATOM     15  C   UNL     1      48.210   8.972  11.919  0.00  0.00    +0.000 C 
ATOM     16  C   UNL     1      46.763   8.654  12.273  0.00  0.00    +0.000 C 
ENDBRANCH   1  16
BRANCH   1  17
ATOM     17  C   UNL     1      47.410   6.228  12.609  0.00  0.00    +0.000 C 
BRANCH  17  18
ATOM     18  C   UNL     1      47.614   5.959  14.077  0.00  0.00    +0.000 A 
ATOM     19  C   UNL     1      47.016   4.829  14.659  0.00  0.00    +0.000 A 
ATOM     20  C   UNL     1      47.432   4.368  15.908  0.00  0.00    +0.000 A 
ATOM     21  C   UNL     1      48.435   5.047  16.608  0.00  0.00    +0.000 A 
ATOM     22  C   UNL     1      48.947   6.243  16.078  0.00  0.00    +0.000 A 
ATOM     23  C   UNL     1      48.541   6.694  14.820  0.00  0.00    +0.000 A 
BRANCH  21  24
ATOM     24  C   UNL     1      49.049   4.420  17.844  0.00  0.00    +0.000 C 
BRANCH  24  25
ATOM     25  C   UNL     1      48.495   5.002  19.132  0.00  0.00    +0.000 A 
ATOM     26  C   UNL     1      47.691   6.143  19.109  0.00  0.00    +0.000 A 
ATOM     27  C   UNL     1      47.251   6.690  20.311  0.00  0.00    +0.000 A 
ATOM     28  C   UNL     1      47.606   6.078  21.505  0.00  0.00    +0.000 A 
ATOM     29  C   UNL     1      48.387   4.936  21.445  0.00  0.00    +0.000 A 
ATOM     30  N   UNL     1      48.839   4.389  20.293  0.00  0.00    +0.000 NA
ENDBRANCH  24  25
ENDBRANCH  21  24
ENDBRANCH  17  18
ENDBRANCH   1  17
TORSDOF 6
ENDMDL
MODEL 3
REMARK VINA RESULT:    -7.248      2.867      7.974
REMARK INTER + INTRA:         -11.134
REMARK INTER:                 -10.033
REMARK INTRA:                  -1.102
REMARK UNBOUND:                -1.344
REMARK  Name = 
REMARK  7 active torsions:
REMARK  status: ('A' for Active; 'I' for Inactive)
REMARK    1  A    between atoms: C_1  and  C_2
REMARK    2  A    between atoms: C_2  and  N_3
REMARK    3  A    between atoms: N_3  and  C_4
REMARK    4  A    between atoms: C_4  and  C_5
REMARK    5  A    between atoms: C_8  and  C_9
REMARK    6  A    between atoms: C_9  and  C_10
REMARK    7  A    between atoms: C_18  and  C_20
REMARK                            x       y       z     vdW  Elec       q    Type
REMARK                         _______ _______ _______ _____ _____    ______ ____
ROOT
ATOM      1  N   UNL     1      48.424   7.170  14.982  0.00  0.00    +0.000 N 
ATOM      2  C   UNL     1      48.466   6.894  16.364  0.00  0.00    +0.000 C 
ATOM      3  O   UNL     1      48.548   7.800  17.192  0.00  0.00    +0.000 OA
ENDROOT
BRANCH   2   4
ATOM      4  C   UNL     1      48.464   5.495  16.836  0.00  0.00    +0.000 A 
ATOM      5  C   UNL     1      47.362   4.653  16.836  0.00  0.00    +0.000 A 
ATOM      6  S   UNL     1      47.706   3.063  17.360  0.00  0.00    +0.000 S 
ATOM      7  C   UNL     1      49.369   3.401  17.444  0.00  0.00    +0.000 A 
ATOM      8  N   UNL     1      50.269   2.419  17.705  0.00  0.00    +0.000 NA
ATOM      9  C   UNL     1      51.501   2.809  17.664  0.00  0.00    +0.000 A 
ATOM     10  N   UNL     1      51.910   4.100  17.439  0.00  0.00    +0.000 N 
ATOM     11  C   UNL     1      51.020   5.153  17.307  0.00  0.00    +0.000 A 
ATOM     12  O   UNL     1      51.410   6.314  17.356  0.00  0.00    +0.000 OA
ATOM     13  C   UNL     1      49.638   4.738  17.201  0.00  0.00    +0.000 A 
ATOM     14  H   UNL     1      52.881   4.351  17.496  0.00  0.00    +0.000 HD
ENDBRANCH   2   4
BRANCH   1  16
ATOM     15  C   UNL     1      49.705   8.737  13.538  0.00  0.00    +0.000 C 
ATOM     16  C   UNL     1      48.597   8.566  14.570  0.00  0.00    +0.000 C 
ENDBRANCH   1  16
BRANCH   1  17
ATOM     17  C   UNL     1      48.344   6.116  13.979  0.00  0.00    +0.000 C 
BRANCH  17  18
ATOM     18  C   UNL     1      47.100   5.913  13.153  0.00  0.00    +0.000 A 
ATOM     19  C   UNL     1      46.929   6.659  11.974  0.00  0.00    +0.000 A 
ATOM     20  C   UNL     1      45.977   6.282  11.027  0.00  0.00    +0.000 A 
ATOM     21  C   UNL     1      45.161   5.169  11.257  0.00  0.00    +0.000 A 
ATOM     22  C   UNL     1      45.252   4.499  12.487  0.00  0.00    +0.000 A 
ATOM     23  C   UNL     1      46.217   4.867  13.428  0.00  0.00    +0.000 A 
BRANCH  21  24
ATOM     24  C   UNL     1      44.298   4.623  10.137  0.00  0.00    +0.000 C 
BRANCH  24  25
ATOM     25  C   UNL     1      45.085   3.782   9.147  0.00  0.00    +0.000 A 
ATOM     26  C   UNL     1      45.146   2.394   9.284  0.00  0.00    +0.000 A 
ATOM     27  C   UNL     1      45.927   1.657   8.399  0.00  0.00    +0.000 A 
ATOM     28  C   UNL     1      46.612   2.316   7.388  0.00  0.00    +0.000 A 
ATOM     29  C   UNL     1      46.483   3.692   7.303  0.00  0.00    +0.000 A 
ATOM     30  N   UNL     1      45.741   4.436   8.155  0.00  0.00    +0.000 NA
ENDBRANCH  24  25
ENDBRANCH  21  24
ENDBRANCH  17  18
ENDBRANCH   1  17
TORSDOF 6
ENDMDL
MODEL 4
REMARK VINA RESULT:    -6.896      3.899      8.372
REMARK INTER + INTRA:         -10.659
REMARK INTER:                  -9.908
REMARK INTRA:                  -0.750
REMARK UNBOUND:                -1.344
REMARK  Name = 
REMARK  7 active torsions:
REMARK  status: ('A' for Active; 'I' for Inactive)
REMARK    1  A    between atoms: C_1  and  C_2
REMARK    2  A    between atoms: C_2  and  N_3
REMARK    3  A    between atoms: N_3  and  C_4
REMARK    4  A    between atoms: C_4  and  C_5
REMARK    5  A    between atoms: C_8  and  C_9
REMARK    6  A    between atoms: C_9  and  C_10
REMARK    7  A    between atoms: C_18  and  C_20
REMARK                            x       y       z     vdW  Elec       q    Type
REMARK                         _______ _______ _______ _____ _____    ______ ____
ROOT
ATOM      1  N   UNL     1      47.025   6.247  13.639  0.00  0.00    +0.000 N 
ATOM      2  C   UNL     1      48.325   6.761  13.827  0.00  0.00    +0.000 C 
ATOM      3  O   UNL     1      49.136   6.189  14.554  0.00  0.00    +0.000 OA
ENDROOT
BRANCH   2   4
ATOM      4  C   UNL     1      48.714   8.033  13.187  0.00  0.00    +0.000 A 
ATOM      5  C   UNL     1      48.874   8.226  11.824  0.00  0.00    +0.000 A 
ATOM      6  S   UNL     1      49.240   9.838  11.391  0.00  0.00    +0.000 S 
ATOM      7  C   UNL     1      49.032  10.365  12.993  0.00  0.00    +0.000 A 
ATOM      8  N   UNL     1      49.070  11.685  13.305  0.00  0.00    +0.000 NA
ATOM      9  C   UNL     1      48.822  11.939  14.548  0.00  0.00    +0.000 A 
ATOM     10  N   UNL     1      48.594  10.992  15.514  0.00  0.00    +0.000 N 
ATOM     11  C   UNL     1      48.685   9.632  15.264  0.00  0.00    +0.000 A 
ATOM     12  O   UNL     1      48.722   8.827  16.186  0.00  0.00    +0.000 OA
ATOM     13  C   UNL     1      48.815   9.307  13.860  0.00  0.00    +0.000 A 
ATOM     14  H   UNL     1      48.483  11.254  16.478  0.00  0.00    +0.000 HD
ENDBRANCH   2   4
BRANCH   1  16
ATOM     15  C   UNL     1      46.892   3.765  13.691  0.00  0.00    +0.000 C 
ATOM     16  C   UNL     1      46.645   5.074  14.430  0.00  0.00    +0.000 C 
ENDBRANCH   1  16
BRANCH   1  17
ATOM     17  C   UNL     1      46.039   6.913  12.797  0.00  0.00    +0.000 C 
BRANCH  17  18
ATOM     18  C   UNL     1      45.418   6.214  11.615  0.00  0.00    +0.000 A 
ATOM     19  C   UNL     1      46.165   6.065  10.434  0.00  0.00    +0.000 A 
ATOM     20  C   UNL     1      45.766   5.162   9.450  0.00  0.00    +0.000 A 
ATOM     21  C   UNL     1      44.597   4.412   9.618  0.00  0.00    +0.000 A 
ATOM     22  C   UNL     1      43.790   4.650  10.743  0.00  0.00    +0.000 A 
ATOM     23  C   UNL     1      44.199   5.543  11.736  0.00  0.00    +0.000 A 
BRANCH  21  24
ATOM     24  C   UNL     1      44.289   3.270   8.670  0.00  0.00    +0.000 C 
BRANCH  24  25
ATOM     25  C   UNL     1      45.526   2.749   7.960  0.00  0.00    +0.000 A 
ATOM     26  C   UNL     1      46.119   3.484   6.933  0.00  0.00    +0.000 A 
ATOM     27  C   UNL     1      47.214   2.951   6.258  0.00  0.00    +0.000 A 
ATOM     28  C   UNL     1      47.703   1.708   6.635  0.00  0.00    +0.000 A 
ATOM     29  C   UNL     1      47.075   1.050   7.679  0.00  0.00    +0.000 A 
ATOM     30  N   UNL     1      46.003   1.537   8.345  0.00  0.00    +0.000 NA
ENDBRANCH  24  25
ENDBRANCH  21  24
ENDBRANCH  17  18
ENDBRANCH   1  17
TORSDOF 6
ENDMDL
MODEL 5
REMARK VINA RESULT:    -6.695      3.407      8.253
REMARK INTER + INTRA:         -10.387
REMARK INTER:                  -8.990
REMARK INTRA:                  -1.398
REMARK UNBOUND:                -1.344
REMARK  Name = 
REMARK  7 active torsions:
REMARK  status: ('A' for Active; 'I' for Inactive)
REMARK    1  A    between atoms: C_1  and  C_2
REMARK    2  A    between atoms: C_2  and  N_3
REMARK    3  A    between atoms: N_3  and  C_4
REMARK    4  A    between atoms: C_4  and  C_5
REMARK    5  A    between atoms: C_8  and  C_9
REMARK    6  A    between atoms: C_9  and  C_10
REMARK    7  A    between atoms: C_18  and  C_20
REMARK                            x       y       z     vdW  Elec       q    Type
REMARK                         _______ _______ _______ _____ _____    ______ ____
ROOT
ATOM      1  N   UNL     1      49.529   7.599  14.680  0.00  0.00    +0.000 N 
ATOM      2  C   UNL     1      50.015   6.902  15.805  0.00  0.00    +0.000 C 
ATOM      3  O   UNL     1      51.222   6.810  16.024  0.00  0.00    +0.000 OA
ENDROOT
BRANCH   2   4
ATOM      4  C   UNL     1      49.072   6.223  16.716  0.00  0.00    +0.000 A 
ATOM      5  C   UNL     1      48.700   4.890  16.634  0.00  0.00    +0.000 A 
ATOM      6  S   UNL     1      47.661   4.382  17.892  0.00  0.00    +0.000 S 
ATOM      7  C   UNL     1      47.807   5.880  18.681  0.00  0.00    +0.000 A 
ATOM      8  N   UNL     1      47.266   6.080  19.909  0.00  0.00    +0.000 NA
ATOM      9  C   UNL     1      47.521   7.241  20.415  0.00  0.00    +0.000 A 
ATOM     10  N   UNL     1      48.221   8.238  19.783  0.00  0.00    +0.000 N 
ATOM     11  C   UNL     1      48.669   8.123  18.476  0.00  0.00    +0.000 A 
ATOM     12  O   UNL     1      49.066   9.106  17.861  0.00  0.00    +0.000 OA
ATOM     13  C   UNL     1      48.531   6.791  17.929  0.00  0.00    +0.000 A 
ATOM     14  H   UNL     1      48.319   9.146  20.201  0.00  0.00    +0.000 HD
ENDBRANCH   2   4
BRANCH   1  16
ATOM     15  C   UNL     1      50.388   9.608  13.495  0.00  0.00    +0.000 C 
ATOM     16  C   UNL     1      50.517   8.108  13.725  0.00  0.00    +0.000 C 
ENDBRANCH   1  16
BRANCH   1  17
ATOM     17  C   UNL     1      48.105   7.708  14.387  0.00  0.00    +0.000 C 
BRANCH  17  18
ATOM     18  C   UNL     1      47.469   6.907  13.281  0.00  0.00    +0.000 A 
ATOM     19  C   UNL     1      46.939   5.638  13.569  0.00  0.00    +0.000 A 
ATOM     20  C   UNL     1      46.071   5.011  12.676  0.00  0.00    +0.000 A 
ATOM     21  C   UNL     1      45.739   5.632  11.467  0.00  0.00    +0.000 A 
ATOM     22  C   UNL     1      46.363   6.844  11.129  0.00  0.00    +0.000 A 
ATOM     23  C   UNL     1      47.220   7.479  12.031  0.00  0.00    +0.000 A 
BRANCH  21  24
ATOM     24  C   UNL     1      44.623   5.069  10.610  0.00  0.00    +0.000 C 
BRANCH  24  25
ATOM     25  C   UNL     1      45.126   4.103   9.553  0.00  0.00    +0.000 A 
ATOM     26  C   UNL     1      44.939   2.727   9.699  0.00  0.00    +0.000 A 
ATOM     27  C   UNL     1      45.468   1.862   8.745  0.00  0.00    +0.000 A 
ATOM     28  C   UNL     1      46.152   2.389   7.659  0.00  0.00    +0.000 A 
ATOM     29  C   UNL     1      46.276   3.765   7.571  0.00  0.00    +0.000 A 
ATOM     30  N   UNL     1      45.784   4.629   8.488  0.00  0.00    +0.000 NA
ENDBRANCH  24  25
ENDBRANCH  21  24
ENDBRANCH  17  18
ENDBRANCH   1  17
TORSDOF 6
ENDMDL
MODEL 6
REMARK VINA RESULT:    -6.618      3.606      7.995
REMARK INTER + INTRA:         -10.283
REMARK INTER:                  -8.920
REMARK INTRA:                  -1.363
REMARK UNBOUND:                -1.344
REMARK  Name = 
REMARK  7 active torsions:
REMARK  status: ('A' for Active; 'I' for Inactive)
REMARK    1  A    between atoms: C_1  and  C_2
REMARK    2  A    between atoms: C_2  and  N_3
REMARK    3  A    between atoms: N_3  and  C_4
REMARK    4  A    between atoms: C_4  and  C_5
REMARK    5  A    between atoms: C_8  and  C_9
REMARK    6  A    between atoms: C_9  and  C_10
REMARK    7  A    between atoms: C_18  and  C_20
REMARK                            x       y       z     vdW  Elec       q    Type
REMARK                         _______ _______ _______ _____ _____    ______ ____
ROOT
ATOM      1  N   UNL     1      48.732   8.956  13.947  0.00  0.00    +0.000 N 
ATOM      2  C   UNL     1      49.513   9.212  15.093  0.00  0.00    +0.000 C 
ATOM      3  O   UNL     1      50.680   9.588  14.996  0.00  0.00    +0.000 OA
ENDROOT
BRANCH   2   4
ATOM      4  C   UNL     1      48.948   8.980  16.437  0.00  0.00    +0.000 A 
ATOM      5  C   UNL     1      48.354   9.948  17.232  0.00  0.00    +0.000 A 
ATOM      6  S   UNL     1      47.715   9.344  18.697  0.00  0.00    +0.000 S 
ATOM      7  C   UNL     1      48.060   7.744  18.242  0.00  0.00    +0.000 A 
ATOM      8  N   UNL     1      47.643   6.697  18.998  0.00  0.00    +0.000 NA
ATOM      9  C   UNL     1      47.914   5.540  18.490  0.00  0.00    +0.000 A 
ATOM     10  N   UNL     1      48.608   5.336  17.324  0.00  0.00    +0.000 N 
ATOM     11  C   UNL     1      49.169   6.374  16.597  0.00  0.00    +0.000 A 
ATOM     12  O   UNL     1      49.984   6.148  15.710  0.00  0.00    +0.000 OA
ATOM     13  C   UNL     1      48.767   7.687  17.052  0.00  0.00    +0.000 A 
ATOM     14  H   UNL     1      48.852   4.408  17.023  0.00  0.00    +0.000 HD
ENDBRANCH   2   4
BRANCH   1  16
ATOM     15  C   UNL     1      49.017  10.302  11.876  0.00  0.00    +0.000 C 
ATOM     16  C   UNL     1      49.399   9.044  12.645  0.00  0.00    +0.000 C 
ENDBRANCH   1  16
BRANCH   1  17
ATOM     17  C   UNL     1      47.352   8.494  14.032  0.00  0.00    +0.000 C 
BRANCH  17  18
ATOM     18  C   UNL     1      46.747   7.632  12.955  0.00  0.00    +0.000 A 
ATOM     19  C   UNL     1      47.021   6.253  12.943  0.00  0.00    +0.000 A 
ATOM     20  C   UNL     1      46.243   5.381  12.182  0.00  0.00    +0.000 A 
ATOM     21  C   UNL     1      45.195   5.877  11.399  0.00  0.00    +0.000 A 
ATOM     22  C   UNL     1      45.000   7.266  11.320  0.00  0.00    +0.000 A 
ATOM     23  C   UNL     1      45.769   8.137  12.095  0.00  0.00    +0.000 A 
BRANCH  21  24
ATOM     24  C   UNL     1      44.209   4.917  10.763  0.00  0.00    +0.000 C 
BRANCH  24  25
ATOM     25  C   UNL     1      44.838   4.066   9.674  0.00  0.00    +0.000 A 
ATOM     26  C   UNL     1      44.801   2.673   9.751  0.00  0.00    +0.000 A 
ATOM     27  C   UNL     1      45.441   1.920   8.771  0.00  0.00    +0.000 A 
ATOM     28  C   UNL     1      46.087   2.571   7.729  0.00  0.00    +0.000 A 
ATOM     29  C   UNL     1      46.061   3.955   7.711  0.00  0.00    +0.000 A 
ATOM     30  N   UNL     1      45.457   4.714   8.654  0.00  0.00    +0.000 NA
ENDBRANCH  24  25
ENDBRANCH  21  24
ENDBRANCH  17  18
ENDBRANCH   1  17
TORSDOF 6
ENDMDL
MODEL 7
REMARK VINA RESULT:    -6.602      3.678      8.563
REMARK INTER + INTRA:         -10.261
REMARK INTER:                  -9.020
REMARK INTRA:                  -1.241
REMARK UNBOUND:                -1.344
REMARK  Name = 
REMARK  7 active torsions:
REMARK  status: ('A' for Active; 'I' for Inactive)
REMARK    1  A    between atoms: C_1  and  C_2
REMARK    2  A    between atoms: C_2  and  N_3
REMARK    3  A    between atoms: N_3  and  C_4
REMARK    4  A    between atoms: C_4  and  C_5
REMARK    5  A    between atoms: C_8  and  C_9
REMARK    6  A    between atoms: C_9  and  C_10
REMARK    7  A    between atoms: C_18  and  C_20
REMARK                            x       y       z     vdW  Elec       q    Type
REMARK                         _______ _______ _______ _____ _____    ______ ____
ROOT
ATOM      1  N   UNL     1      48.235   4.479  16.164  0.00  0.00    +0.000 N 
ATOM      2  C   UNL     1      49.368   5.253  16.488  0.00  0.00    +0.000 C 
ATOM      3  O   UNL     1      50.361   4.742  17.004  0.00  0.00    +0.000 OA
ENDROOT
BRANCH   2   4
ATOM      4  C   UNL     1      49.355   6.711  16.257  0.00  0.00    +0.000 A 
ATOM      5  C   UNL     1      49.736   7.337  15.080  0.00  0.00    +0.000 A 
ATOM      6  S   UNL     1      49.519   9.033  15.097  0.00  0.00    +0.000 S 
ATOM      7  C   UNL     1      48.753   8.967  16.612  0.00  0.00    +0.000 A 
ATOM      8  N   UNL     1      48.189  10.073  17.159  0.00  0.00    +0.000 NA
ATOM      9  C   UNL     1      47.579   9.855  18.278  0.00  0.00    +0.000 A 
ATOM     10  N   UNL     1      47.530   8.646  18.924  0.00  0.00    +0.000 N 
ATOM     11  C   UNL     1      48.210   7.528  18.469  0.00  0.00    +0.000 A 
ATOM     12  O   UNL     1      48.351   6.545  19.187  0.00  0.00    +0.000 OA
ATOM     13  C   UNL     1      48.781   7.691  17.150  0.00  0.00    +0.000 A 
ATOM     14  H   UNL     1      47.104   8.561  19.830  0.00  0.00    +0.000 HD
ENDBRANCH   2   4
BRANCH   1  16
ATOM     15  C   UNL     1      47.269   2.783  17.703  0.00  0.00    +0.000 C 
ATOM     16  C   UNL     1      48.244   3.070  16.569  0.00  0.00    +0.000 C 
ENDBRANCH   1  16
BRANCH   1  17
ATOM     17  C   UNL     1      47.039   5.061  15.568  0.00  0.00    +0.000 C 
BRANCH  17  18
ATOM     18  C   UNL     1      46.712   4.861  14.111  0.00  0.00    +0.000 A 
ATOM     19  C   UNL     1      46.189   3.628  13.687  0.00  0.00    +0.000 A 
ATOM     20  C   UNL     1      45.580   3.507  12.438  0.00  0.00    +0.000 A 
ATOM     21  C   UNL     1      45.508   4.611  11.582  0.00  0.00    +0.000 A 
ATOM     22  C   UNL     1      46.137   5.809  11.959  0.00  0.00    +0.000 A 
ATOM     23  C   UNL     1      46.733   5.934  13.216  0.00  0.00    +0.000 A 
BRANCH  21  24
ATOM     24  C   UNL     1      44.647   4.545  10.336  0.00  0.00    +0.000 C 
BRANCH  24  25
ATOM     25  C   UNL     1      45.307   3.775   9.207  0.00  0.00    +0.000 A 
ATOM     26  C   UNL     1      45.315   2.379   9.207  0.00  0.00    +0.000 A 
ATOM     27  C   UNL     1      45.984   1.702   8.191  0.00  0.00    +0.000 A 
ATOM     28  C   UNL     1      46.612   2.430   7.190  0.00  0.00    +0.000 A 
ATOM     29  C   UNL     1      46.540   3.811   7.246  0.00  0.00    +0.000 A 
ATOM     30  N   UNL     1      45.909   4.497   8.227  0.00  0.00    +0.000 NA
ENDBRANCH  24  25
ENDBRANCH  21  24
ENDBRANCH  17  18
ENDBRANCH   1  17
TORSDOF 6
ENDMDL
MODEL 8
REMARK VINA RESULT:    -6.588      3.058      7.950
REMARK INTER + INTRA:         -10.243
REMARK INTER:                  -9.033
REMARK INTRA:                  -1.210
REMARK UNBOUND:                -1.344
REMARK  Name = 
REMARK  7 active torsions:
REMARK  status: ('A' for Active; 'I' for Inactive)
REMARK    1  A    between atoms: C_1  and  C_2
REMARK    2  A    between atoms: C_2  and  N_3
REMARK    3  A    between atoms: N_3  and  C_4
REMARK    4  A    between atoms: C_4  and  C_5
REMARK    5  A    between atoms: C_8  and  C_9
REMARK    6  A    between atoms: C_9  and  C_10
REMARK    7  A    between atoms: C_18  and  C_20
REMARK                            x       y       z     vdW  Elec       q    Type
REMARK                         _______ _______ _______ _____ _____    ______ ____
ROOT
ATOM      1  N   UNL     1      48.821   7.613  16.070  0.00  0.00    +0.000 N 
ATOM      2  C   UNL     1      48.385   7.023  17.275  0.00  0.00    +0.000 C 
ATOM      3  O   UNL     1      47.984   7.712  18.212  0.00  0.00    +0.000 OA
ENDROOT
BRANCH   2   4
ATOM      4  C   UNL     1      48.453   5.558  17.444  0.00  0.00    +0.000 A 
ATOM      5  C   UNL     1      47.384   4.687  17.306  0.00  0.00    +0.000 A 
ATOM      6  S   UNL     1      47.807   3.040  17.475  0.00  0.00    +0.000 S 
ATOM      7  C   UNL     1      49.459   3.426  17.571  0.00  0.00    +0.000 A 
ATOM      8  N   UNL     1      50.404   2.452  17.592  0.00  0.00    +0.000 NA
ATOM      9  C   UNL     1      51.618   2.897  17.591  0.00  0.00    +0.000 A 
ATOM     10  N   UNL     1      51.970   4.222  17.626  0.00  0.00    +0.000 N 
ATOM     11  C   UNL     1      51.037   5.240  17.746  0.00  0.00    +0.000 A 
ATOM     12  O   UNL     1      51.387   6.381  18.023  0.00  0.00    +0.000 OA
ATOM     13  C   UNL     1      49.668   4.794  17.604  0.00  0.00    +0.000 A 
ATOM     14  H   UNL     1      52.933   4.499  17.701  0.00  0.00    +0.000 HD
ENDBRANCH   2   4
BRANCH   1  16
ATOM     15  C   UNL     1      49.841   9.585  14.951  0.00  0.00    +0.000 C 
ATOM     16  C   UNL     1      48.886   9.077  16.023  0.00  0.00    +0.000 C 
ENDBRANCH   1  16
BRANCH   1  17
ATOM     17  C   UNL     1      49.316   6.823  14.950  0.00  0.00    +0.000 C 
BRANCH  17  18
ATOM     18  C   UNL     1      48.415   6.430  13.809  0.00  0.00    +0.000 A 
ATOM     19  C   UNL     1      47.427   5.452  14.018  0.00  0.00    +0.000 A 
ATOM     20  C   UNL     1      46.382   5.293  13.109  0.00  0.00    +0.000 A 
ATOM     21  C   UNL     1      46.321   6.092  11.962  0.00  0.00    +0.000 A 
ATOM     22  C   UNL     1      47.372   6.984  11.695  0.00  0.00    +0.000 A 
ATOM     23  C   UNL     1      48.411   7.154  12.614  0.00  0.00    +0.000 A 
BRANCH  21  24
ATOM     24  C   UNL     1      45.072   6.085  11.103  0.00  0.00    +0.000 C 
BRANCH  24  25
ATOM     25  C   UNL     1      45.047   4.932  10.114  0.00  0.00    +0.000 A 
ATOM     26  C   UNL     1      44.389   3.742  10.427  0.00  0.00    +0.000 A 
ATOM     27  C   UNL     1      44.438   2.681   9.527  0.00  0.00    +0.000 A 
ATOM     28  C   UNL     1      45.124   2.837   8.331  0.00  0.00    +0.000 A 
ATOM     29  C   UNL     1      45.732   4.056   8.083  0.00  0.00    +0.000 A 
ATOM     30  N   UNL     1      45.712   5.100   8.942  0.00  0.00    +0.000 NA
ENDBRANCH  24  25
ENDBRANCH  21  24
ENDBRANCH  17  18
ENDBRANCH   1  17
TORSDOF 6
ENDMDL
MODEL 9
REMARK VINA RESULT:    -6.370      3.260      8.024
REMARK INTER + INTRA:          -9.948
REMARK INTER:                  -8.591
REMARK INTRA:                  -1.357
REMARK UNBOUND:                -1.344
REMARK  Name = 
REMARK  7 active torsions:
REMARK  status: ('A' for Active; 'I' for Inactive)
REMARK    1  A    between atoms: C_1  and  C_2
REMARK    2  A    between atoms: C_2  and  N_3
REMARK    3  A    between atoms: N_3  and  C_4
REMARK    4  A    between atoms: C_4  and  C_5
REMARK    5  A    between atoms: C_8  and  C_9
REMARK    6  A    between atoms: C_9  and  C_10
REMARK    7  A    between atoms: C_18  and  C_20
REMARK                            x       y       z     vdW  Elec       q    Type
REMARK                         _______ _______ _______ _____ _____    ______ ____
ROOT
ATOM      1  N   UNL     1      48.997   8.009  15.644  0.00  0.00    +0.000 N 
ATOM      2  C   UNL     1      49.399   7.580  16.925  0.00  0.00    +0.000 C 
ATOM      3  O   UNL     1      48.985   8.135  17.941  0.00  0.00    +0.000 OA
ENDROOT
BRANCH   2   4
ATOM      4  C   UNL     1      50.373   6.478  17.061  0.00  0.00    +0.000 A 
ATOM      5  C   UNL     1      51.735   6.636  17.261  0.00  0.00    +0.000 A 
ATOM      6  S   UNL     1      52.579   5.164  17.470  0.00  0.00    +0.000 S 
ATOM      7  C   UNL     1      51.129   4.278  17.469  0.00  0.00    +0.000 A 
ATOM      8  N   UNL     1      51.122   2.949  17.741  0.00  0.00    +0.000 NA
ATOM      9  C   UNL     1      49.940   2.426  17.777  0.00  0.00    +0.000 A 
ATOM     10  N   UNL     1      48.774   3.098  17.513  0.00  0.00    +0.000 N 
ATOM     11  C   UNL     1      48.751   4.419  17.096  0.00  0.00    +0.000 A 
ATOM     12  O   UNL     1      47.729   4.913  16.633  0.00  0.00    +0.000 OA
ATOM     13  C   UNL     1      50.035   5.079  17.184  0.00  0.00    +0.000 A 
ATOM     14  H   UNL     1      47.894   2.614  17.483  0.00  0.00    +0.000 HD
ENDBRANCH   2   4
BRANCH   1  16
ATOM     15  C   UNL     1      48.815  10.328  14.766  0.00  0.00    +0.000 C 
ATOM     16  C   UNL     1      48.161   9.211  15.569  0.00  0.00    +0.000 C 
ENDBRANCH   1  16
BRANCH   1  17
ATOM     17  C   UNL     1      49.485   7.380  14.423  0.00  0.00    +0.000 C 
BRANCH  17  18
ATOM     18  C   UNL     1      48.535   6.842  13.385  0.00  0.00    +0.000 A 
ATOM     19  C   UNL     1      47.703   5.758  13.711  0.00  0.00    +0.000 A 
ATOM     20  C   UNL     1      46.603   5.441  12.914  0.00  0.00    +0.000 A 
ATOM     21  C   UNL     1      46.333   6.188  11.762  0.00  0.00    +0.000 A 
ATOM     22  C   UNL     1      47.234   7.193  11.374  0.00  0.00    +0.000 A 
ATOM     23  C   UNL     1      48.326   7.520  12.181  0.00  0.00    +0.000 A 
BRANCH  21  24
ATOM     24  C   UNL     1      45.019   5.999  11.031  0.00  0.00    +0.000 C 
BRANCH  24  25
ATOM     25  C   UNL     1      44.980   4.719  10.216  0.00  0.00    +0.000 A 
ATOM     26  C   UNL     1      45.552   4.669   8.943  0.00  0.00    +0.000 A 
ATOM     27  C   UNL     1      45.445   3.501   8.194  0.00  0.00    +0.000 A 
ATOM     28  C   UNL     1      44.789   2.405   8.736  0.00  0.00    +0.000 A 
ATOM     29  C   UNL     1      44.268   2.524  10.013  0.00  0.00    +0.000 A 
ATOM     30  N   UNL     1      44.346   3.649  10.760  0.00  0.00    +0.000 NA
ENDBRANCH  24  25
ENDBRANCH  21  24
ENDBRANCH  17  18
ENDBRANCH   1  17
TORSDOF 6
ENDMDL
