MODEL 1
REMARK VINA RESULT:    -6.977      0.000      0.000
REMARK INTER + INTRA:          -9.736
REMARK INTER:                  -9.016
REMARK INTRA:                  -0.720
REMARK UNBOUND:                -0.720
REMARK  Name = 
REMARK  8 active torsions:
REMARK  status: ('A' for Active; 'I' for Inactive)
REMARK    1  A    between atoms: C_1  and  O_2
REMARK    2  A    between atoms: O_2  and  C_3
REMARK    3  A    between atoms: C_5  and  C_6
REMARK    4  A    between atoms: C_6  and  O_7
REMARK    5  A    between atoms: N_10  and  C_11
REMARK    6  A    between atoms: C_13  and  C_14
REMARK    7  A    between atoms: C_16  and  O_17
REMARK    8  A    between atoms: C_23  and  C_24
REMARK                            x       y       z     vdW  Elec       q    Type
REMARK                         _______ _______ _______ _____ _____    ______ ____
ROOT
ATOM      1  C   UNL     1      45.794   5.036  12.519  0.00  0.00    +0.000 C 
ATOM      2  C   UNL     1      45.592   3.527  12.270  0.00  0.00    +0.000 C 
ATOM      3  C   UNL     1      44.789   3.231  11.007  0.00  0.00    +0.000 C 
ATOM      4  N   UNL     1      45.401   3.943   9.888  0.00  0.00    +0.000 N 
ATOM      5  C   UNL     1      45.454   5.391  10.026  0.00  0.00    +0.000 C 
ATOM      6  C   UNL     1      46.308   5.743  11.247  0.00  0.00    +0.000 C 
ENDROOT
BRANCH   4   7
ATOM      7  C   UNL     1      45.864   3.295   8.759  0.00  0.00    +0.000 A 
ATOM      8  C   UNL     1      46.046   1.899   8.734  0.00  0.00    +0.000 A 
ATOM      9  C   UNL     1      46.469   1.221   7.582  0.00  0.00    +0.000 A 
ATOM     10  C   UNL     1      46.577  -0.272   7.560  0.00  0.00    +0.000 C 
ATOM     11  C   UNL     1      46.753   1.955   6.426  0.00  0.00    +0.000 A 
ATOM     12  C   UNL     1      46.598   3.334   6.443  0.00  0.00    +0.000 A 
ATOM     13  C   UNL     1      46.157   3.988   7.582  0.00  0.00    +0.000 A 
BRANCH  12  14
ATOM     14  O   UNL     1      46.870   4.089   5.330  0.00  0.00    +0.000 OA
ATOM     15  H   UNL     1      47.308   3.532   4.687  0.00  0.00    +0.000 HD
ENDBRANCH  12  14
ENDBRANCH   4   7
BRANCH   1  18
ATOM     16  C   UNL     1      47.593   4.704  15.967  0.00  0.00    +0.000 A 
ATOM     17  C   UNL     1      46.771   4.434  14.849  0.00  0.00    +0.000 A 
ATOM     18  C   UNL     1      46.709   5.301  13.734  0.00  0.00    +0.000 A 
ATOM     19  C   UNL     1      47.534   6.437  13.769  0.00  0.00    +0.000 A 
ATOM     20  C   UNL     1      48.357   6.702  14.864  0.00  0.00    +0.000 A 
ATOM     21  C   UNL     1      48.395   5.842  15.966  0.00  0.00    +0.000 A 
BRANCH  16  23
ATOM     22  C   UNL     1      48.467   2.679  16.862  0.00  0.00    +0.000 C 
ATOM     23  O   UNL     1      47.519   3.742  16.949  0.00  0.00    +0.000 OA
ENDBRANCH  16  23
BRANCH  21  24
ATOM     24  C   UNL     1      49.316   6.181  17.017  0.00  0.00    +0.000 C 
ATOM     25  N   UNL     1      50.066   6.478  17.848  0.00  0.00    +0.000 NA
ENDBRANCH  21  24
ENDBRANCH   1  18
BRANCH   1  26
ATOM     26  O   UNL     1      44.495   5.595  12.802  0.00  0.00    +0.000 OA
ATOM     27  H   UNL     1      44.540   6.022  13.676  0.00  0.00    +0.000 HD
ENDBRANCH   1  26
TORSDOF 6
ENDMDL
MODEL 2
REMARK VINA RESULT:    -6.774      1.620      2.190
REMARK INTER + INTRA:          -9.473
REMARK INTER:                  -8.735
REMARK INTRA:                  -0.738
REMARK UNBOUND:                -0.720
REMARK  Name = 
REMARK  8 active torsions:
REMARK  status: ('A' for Active; 'I' for Inactive)
REMARK    1  A    between atoms: C_1  and  O_2
REMARK    2  A    between atoms: O_2  and  C_3
REMARK    3  A    between atoms: C_5  and  C_6
REMARK    4  A    between atoms: C_6  and  O_7
REMARK    5  A    between atoms: N_10  and  C_11
REMARK    6  A    between atoms: C_13  and  C_14
REMARK    7  A    between atoms: C_16  and  O_17
REMARK    8  A    between atoms: C_23  and  C_24
REMARK                            x       y       z     vdW  Elec       q    Type
REMARK                         _______ _______ _______ _____ _____    ______ ____
ROOT
ATOM      1  C   UNL     1      45.531   5.350  11.732  0.00  0.00    +0.000 C 
ATOM      2  C   UNL     1      45.634   3.815  11.850  0.00  0.00    +0.000 C 
ATOM      3  C   UNL     1      44.859   3.079  10.762  0.00  0.00    +0.000 C 
ATOM      4  N   UNL     1      45.267   3.604   9.462  0.00  0.00    +0.000 N 
ATOM      5  C   UNL     1      45.027   5.027   9.263  0.00  0.00    +0.000 C 
ATOM      6  C   UNL     1      45.839   5.816  10.293  0.00  0.00    +0.000 C 
ENDROOT
BRANCH   4   7
ATOM      7  C   UNL     1      45.807   2.805   8.473  0.00  0.00    +0.000 A 
ATOM      8  C   UNL     1      46.232   3.342   7.243  0.00  0.00    +0.000 A 
ATOM      9  C   UNL     1      46.826   2.552   6.249  0.00  0.00    +0.000 A 
ATOM     10  C   UNL     1      47.342   3.163   4.982  0.00  0.00    +0.000 C 
ATOM     11  C   UNL     1      46.973   1.179   6.467  0.00  0.00    +0.000 A 
ATOM     12  C   UNL     1      46.540   0.632   7.667  0.00  0.00    +0.000 A 
ATOM     13  C   UNL     1      45.975   1.429   8.651  0.00  0.00    +0.000 A 
BRANCH  12  14
ATOM     14  O   UNL     1      46.663  -0.711   7.917  0.00  0.00    +0.000 OA
ATOM     15  H   UNL     1      47.017  -0.823   8.799  0.00  0.00    +0.000 HD
ENDBRANCH  12  14
ENDBRANCH   4   7
BRANCH   1  18
ATOM     16  C   UNL     1      47.865   6.055  14.781  0.00  0.00    +0.000 A 
ATOM     17  C   UNL     1      47.076   5.382  13.820  0.00  0.00    +0.000 A 
ATOM     18  C   UNL     1      46.420   6.066  12.771  0.00  0.00    +0.000 A 
ATOM     19  C   UNL     1      46.615   7.456  12.703  0.00  0.00    +0.000 A 
ATOM     20  C   UNL     1      47.403   8.124  13.641  0.00  0.00    +0.000 A 
ATOM     21  C   UNL     1      48.033   7.434  14.682  0.00  0.00    +0.000 A 
BRANCH  16  23
ATOM     22  C   UNL     1      47.574   4.192  16.233  0.00  0.00    +0.000 C 
ATOM     23  O   UNL     1      48.423   5.217  15.719  0.00  0.00    +0.000 OA
ENDBRANCH  16  23
BRANCH  21  24
ATOM     24  C   UNL     1      48.863   8.211  15.562  0.00  0.00    +0.000 C 
ATOM     25  N   UNL     1      49.547   8.813  16.276  0.00  0.00    +0.000 NA
ENDBRANCH  21  24
ENDBRANCH   1  18
BRANCH   1  26
ATOM     26  O   UNL     1      44.158   5.704  11.993  0.00  0.00    +0.000 OA
ATOM     27  H   UNL     1      43.962   5.470  12.917  0.00  0.00    +0.000 HD
ENDBRANCH   1  26
TORSDOF 6
ENDMDL
MODEL 3
REMARK VINA RESULT:    -6.293      4.191      5.630
REMARK INTER + INTRA:          -8.852
REMARK INTER:                  -8.101
REMARK INTRA:                  -0.751
REMARK UNBOUND:                -0.720
REMARK  Name = 
REMARK  8 active torsions:
REMARK  status: ('A' for Active; 'I' for Inactive)
REMARK    1  A    between atoms: C_1  and  O_2
REMARK    2  A    between atoms: O_2  and  C_3
REMARK    3  A    between atoms: C_5  and  C_6
REMARK    4  A    between atoms: C_6  and  O_7
REMARK    5  A    between atoms: N_10  and  C_11
REMARK    6  A    between atoms: C_13  and  C_14
REMARK    7  A    between atoms: C_16  and  O_17
REMARK    8  A    between atoms: C_23  and  C_24
REMARK                            x       y       z     vdW  Elec       q    Type
REMARK                         _______ _______ _______ _____ _____    ______ ____
ROOT
ATOM      1  C   UNL     1      47.076   8.277  12.729  0.00  0.00    +0.000 C 
ATOM      2  C   UNL     1      47.568   6.825  12.907  0.00  0.00    +0.000 C 
ATOM      3  C   UNL     1      46.442   5.847  13.228  0.00  0.00    +0.000 C 
ATOM      4  N   UNL     1      45.391   6.002  12.225  0.00  0.00    +0.000 N 
ATOM      5  C   UNL     1      44.792   7.327  12.150  0.00  0.00    +0.000 C 
ATOM      6  C   UNL     1      45.874   8.339  11.764  0.00  0.00    +0.000 C 
ENDROOT
BRANCH   4   7
ATOM      7  C   UNL     1      44.965   4.957  11.429  0.00  0.00    +0.000 A 
ATOM      8  C   UNL     1      45.354   4.853  10.080  0.00  0.00    +0.000 A 
ATOM      9  C   UNL     1      44.970   3.774   9.272  0.00  0.00    +0.000 A 
ATOM     10  C   UNL     1      45.465   3.648   7.864  0.00  0.00    +0.000 C 
ATOM     11  C   UNL     1      44.144   2.782   9.808  0.00  0.00    +0.000 A 
ATOM     12  C   UNL     1      43.735   2.881  11.131  0.00  0.00    +0.000 A 
ATOM     13  C   UNL     1      44.142   3.942  11.925  0.00  0.00    +0.000 A 
BRANCH  12  14
ATOM     14  O   UNL     1      42.922   1.930  11.693  0.00  0.00    +0.000 OA
ATOM     15  H   UNL     1      43.425   1.453  12.352  0.00  0.00    +0.000 HD
ENDBRANCH  12  14
ENDBRANCH   4   7
BRANCH   1  18
ATOM     16  C   UNL     1      50.514   9.621  11.459  0.00  0.00    +0.000 A 
ATOM     17  C   UNL     1      49.469   8.746  11.833  0.00  0.00    +0.000 A 
ATOM     18  C   UNL     1      48.217   9.219  12.288  0.00  0.00    +0.000 A 
ATOM     19  C   UNL     1      48.042  10.612  12.322  0.00  0.00    +0.000 A 
ATOM     20  C   UNL     1      49.065  11.481  11.942  0.00  0.00    +0.000 A 
ATOM     21  C   UNL     1      50.303  10.996  11.507  0.00  0.00    +0.000 A 
BRANCH  16  23
ATOM     22  C   UNL     1      51.504   7.593  10.702  0.00  0.00    +0.000 C 
ATOM     23  O   UNL     1      51.653   8.971  11.040  0.00  0.00    +0.000 OA
ENDBRANCH  16  23
BRANCH  21  24
ATOM     24  C   UNL     1      51.269  11.977  11.090  0.00  0.00    +0.000 C 
ATOM     25  N   UNL     1      52.068  12.745  10.755  0.00  0.00    +0.000 NA
ENDBRANCH  21  24
ENDBRANCH   1  18
BRANCH   1  26
ATOM     26  O   UNL     1      46.596   8.721  14.014  0.00  0.00    +0.000 OA
ATOM     27  H   UNL     1      47.368   8.973  14.549  0.00  0.00    +0.000 HD
ENDBRANCH   1  26
TORSDOF 6
ENDMDL
MODEL 4
REMARK VINA RESULT:    -6.265      3.594      5.056
REMARK INTER + INTRA:          -8.816
REMARK INTER:                  -8.062
REMARK INTRA:                  -0.754
REMARK UNBOUND:                -0.720
REMARK  Name = 
REMARK  8 active torsions:
REMARK  status: ('A' for Active; 'I' for Inactive)
REMARK    1  A    between atoms: C_1  and  O_2
REMARK    2  A    between atoms: O_2  and  C_3
REMARK    3  A    between atoms: C_5  and  C_6
REMARK    4  A    between atoms: C_6  and  O_7
REMARK    5  A    between atoms: N_10  and  C_11
REMARK    6  A    between atoms: C_13  and  C_14
REMARK    7  A    between atoms: C_16  and  O_17
REMARK    8  A    between atoms: C_23  and  C_24
REMARK                            x       y       z     vdW  Elec       q    Type
REMARK                         _______ _______ _______ _____ _____    ______ ____
ROOT
ATOM      1  C   UNL     1      47.765   7.399  13.137  0.00  0.00    +0.000 C 
ATOM      2  C   UNL     1      47.596   5.934  13.592  0.00  0.00    +0.000 C 
ATOM      3  C   UNL     1      46.148   5.456  13.544  0.00  0.00    +0.000 C 
ATOM      4  N   UNL     1      45.610   5.733  12.214  0.00  0.00    +0.000 N 
ATOM      5  C   UNL     1      45.606   7.135  11.824  0.00  0.00    +0.000 C 
ATOM      6  C   UNL     1      47.049   7.646  11.793  0.00  0.00    +0.000 C 
ENDROOT
BRANCH   4   7
ATOM      7  C   UNL     1      45.105   4.741  11.396  0.00  0.00    +0.000 A 
ATOM      8  C   UNL     1      45.386   4.710  10.017  0.00  0.00    +0.000 A 
ATOM      9  C   UNL     1      44.919   3.685   9.182  0.00  0.00    +0.000 A 
ATOM     10  C   UNL     1      45.300   3.634   7.735  0.00  0.00    +0.000 C 
ATOM     11  C   UNL     1      44.122   2.674   9.726  0.00  0.00    +0.000 A 
ATOM     12  C   UNL     1      43.820   2.702  11.080  0.00  0.00    +0.000 A 
ATOM     13  C   UNL     1      44.307   3.710  11.899  0.00  0.00    +0.000 A 
BRANCH  12  14
ATOM     14  O   UNL     1      43.037   1.730  11.651  0.00  0.00    +0.000 OA
ATOM     15  H   UNL     1      43.062   1.840  12.600  0.00  0.00    +0.000 HD
ENDBRANCH  12  14
ENDBRANCH   4   7
BRANCH   1  18
ATOM     16  C   UNL     1      51.327   8.324  11.836  0.00  0.00    +0.000 A 
ATOM     17  C   UNL     1      49.959   7.970  11.870  0.00  0.00    +0.000 A 
ATOM     18  C   UNL     1      49.251   7.815  13.083  0.00  0.00    +0.000 A 
ATOM     19  C   UNL     1      49.963   8.065  14.267  0.00  0.00    +0.000 A 
ATOM     20  C   UNL     1      51.310   8.427  14.241  0.00  0.00    +0.000 A 
ATOM     21  C   UNL     1      52.001   8.562  13.031  0.00  0.00    +0.000 A 
BRANCH  16  23
ATOM     22  C   UNL     1      52.281   7.215   9.959  0.00  0.00    +0.000 C 
ATOM     23  O   UNL     1      51.838   8.429  10.562  0.00  0.00    +0.000 OA
ENDBRANCH  16  23
BRANCH  21  24
ATOM     24  C   UNL     1      53.371   8.990  13.115  0.00  0.00    +0.000 C 
ATOM     25  N   UNL     1      54.466   9.355  13.203  0.00  0.00    +0.000 NA
ENDBRANCH  21  24
ENDBRANCH   1  18
BRANCH   1  26
ATOM     26  O   UNL     1      47.101   8.225  14.115  0.00  0.00    +0.000 OA
ATOM     27  H   UNL     1      46.150   8.019  14.081  0.00  0.00    +0.000 HD
ENDBRANCH   1  26
TORSDOF 6
ENDMDL
MODEL 5
REMARK VINA RESULT:    -5.984      2.259      3.098
REMARK INTER + INTRA:          -8.453
REMARK INTER:                  -7.704
REMARK INTRA:                  -0.749
REMARK UNBOUND:                -0.720
REMARK  Name = 
REMARK  8 active torsions:
REMARK  status: ('A' for Active; 'I' for Inactive)
REMARK    1  A    between atoms: C_1  and  O_2
REMARK    2  A    between atoms: O_2  and  C_3
REMARK    3  A    between atoms: C_5  and  C_6
REMARK    4  A    between atoms: C_6  and  O_7
REMARK    5  A    between atoms: N_10  and  C_11
REMARK    6  A    between atoms: C_13  and  C_14
REMARK    7  A    between atoms: C_16  and  O_17
REMARK    8  A    between atoms: C_23  and  C_24
REMARK                            x       y       z     vdW  Elec       q    Type
REMARK                         _______ _______ _______ _____ _____    ______ ____
ROOT
ATOM      1  C   UNL     1      47.149   6.931  13.379  0.00  0.00    +0.000 C 
ATOM      2  C   UNL     1      46.227   5.734  13.693  0.00  0.00    +0.000 C 
ATOM      3  C   UNL     1      45.033   5.636  12.749  0.00  0.00    +0.000 C 
ATOM      4  N   UNL     1      45.522   5.667  11.373  0.00  0.00    +0.000 N 
ATOM      5  C   UNL     1      46.258   6.867  11.001  0.00  0.00    +0.000 C 
ATOM      6  C   UNL     1      47.507   6.975  11.879  0.00  0.00    +0.000 C 
ENDROOT
BRANCH   4   7
ATOM      7  C   UNL     1      45.273   4.649  10.473  0.00  0.00    +0.000 A 
ATOM      8  C   UNL     1      45.778   4.689   9.159  0.00  0.00    +0.000 A 
ATOM      9  C   UNL     1      45.575   3.641   8.249  0.00  0.00    +0.000 A 
ATOM     10  C   UNL     1      46.191   3.674   6.884  0.00  0.00    +0.000 C 
ATOM     11  C   UNL     1      44.818   2.534   8.643  0.00  0.00    +0.000 A 
ATOM     12  C   UNL     1      44.297   2.491   9.928  0.00  0.00    +0.000 A 
ATOM     13  C   UNL     1      44.525   3.523  10.826  0.00  0.00    +0.000 A 
BRANCH  12  14
ATOM     14  O   UNL     1      43.546   1.423  10.351  0.00  0.00    +0.000 OA
ATOM     15  H   UNL     1      44.139   0.712  10.588  0.00  0.00    +0.000 HD
ENDBRANCH  12  14
ENDBRANCH   4   7
BRANCH   1  18
ATOM     16  C   UNL     1      49.625   6.286  16.328  0.00  0.00    +0.000 A 
ATOM     17  C   UNL     1      48.474   6.252  15.508  0.00  0.00    +0.000 A 
ATOM     18  C   UNL     1      48.409   6.934  14.271  0.00  0.00    +0.000 A 
ATOM     19  C   UNL     1      49.563   7.628  13.871  0.00  0.00    +0.000 A 
ATOM     20  C   UNL     1      50.706   7.655  14.670  0.00  0.00    +0.000 A 
ATOM     21  C   UNL     1      50.749   6.987  15.898  0.00  0.00    +0.000 A 
BRANCH  16  23
ATOM     22  C   UNL     1      48.282   5.742  18.216  0.00  0.00    +0.000 C 
ATOM     23  O   UNL     1      49.496   5.559  17.489  0.00  0.00    +0.000 OA
ENDBRANCH  16  23
BRANCH  21  24
ATOM     24  C   UNL     1      51.993   7.037  16.617  0.00  0.00    +0.000 C 
ATOM     25  N   UNL     1      52.989   7.050  17.207  0.00  0.00    +0.000 NA
ENDBRANCH  21  24
ENDBRANCH   1  18
BRANCH   1  26
ATOM     26  O   UNL     1      46.397   8.129  13.658  0.00  0.00    +0.000 OA
ATOM     27  H   UNL     1      46.929   8.681  14.257  0.00  0.00    +0.000 HD
ENDBRANCH   1  26
TORSDOF 6
ENDMDL
MODEL 6
REMARK VINA RESULT:    -5.649      3.281      9.417
REMARK INTER + INTRA:          -8.020
REMARK INTER:                  -7.351
REMARK INTRA:                  -0.670
REMARK UNBOUND:                -0.720
REMARK  Name = 
REMARK  8 active torsions:
REMARK  status: ('A' for Active; 'I' for Inactive)
REMARK    1  A    between atoms: C_1  and  O_2
REMARK    2  A    between atoms: O_2  and  C_3
REMARK    3  A    between atoms: C_5  and  C_6
REMARK    4  A    between atoms: C_6  and  O_7
REMARK    5  A    between atoms: N_10  and  C_11
REMARK    6  A    between atoms: C_13  and  C_14
REMARK    7  A    between atoms: C_16  and  O_17
REMARK    8  A    between atoms: C_23  and  C_24
REMARK                            x       y       z     vdW  Elec       q    Type
REMARK                         _______ _______ _______ _____ _____    ______ ____
ROOT
ATOM      1  C   UNL     1      48.193   6.922  14.162  0.00  0.00    +0.000 C 
ATOM      2  C   UNL     1      48.195   6.133  15.488  0.00  0.00    +0.000 C 
ATOM      3  C   UNL     1      49.040   6.792  16.574  0.00  0.00    +0.000 C 
ATOM      4  N   UNL     1      48.621   8.184  16.710  0.00  0.00    +0.000 N 
ATOM      5  C   UNL     1      48.765   8.998  15.511  0.00  0.00    +0.000 C 
ATOM      6  C   UNL     1      47.881   8.414  14.406  0.00  0.00    +0.000 C 
ENDROOT
BRANCH   4   7
ATOM      7  C   UNL     1      48.156   8.707  17.901  0.00  0.00    +0.000 A 
ATOM      8  C   UNL     1      47.988   7.902  19.043  0.00  0.00    +0.000 A 
ATOM      9  C   UNL     1      47.563   8.426  20.272  0.00  0.00    +0.000 A 
ATOM     10  C   UNL     1      47.470   7.561  21.491  0.00  0.00    +0.000 C 
ATOM     11  C   UNL     1      47.263   9.789  20.364  0.00  0.00    +0.000 A 
ATOM     12  C   UNL     1      47.405  10.591  19.241  0.00  0.00    +0.000 A 
ATOM     13  C   UNL     1      47.848  10.064  18.038  0.00  0.00    +0.000 A 
BRANCH  12  14
ATOM     14  O   UNL     1      47.117  11.932  19.289  0.00  0.00    +0.000 OA
ATOM     15  H   UNL     1      47.269  12.306  18.422  0.00  0.00    +0.000 HD
ENDBRANCH  12  14
ENDBRANCH   4   7
BRANCH   1  18
ATOM     16  C   UNL     1      45.476   4.682  12.477  0.00  0.00    +0.000 A 
ATOM     17  C   UNL     1      46.326   5.265  13.445  0.00  0.00    +0.000 A 
ATOM     18  C   UNL     1      47.237   6.297  13.124  0.00  0.00    +0.000 A 
ATOM     19  C   UNL     1      47.237   6.749  11.794  0.00  0.00    +0.000 A 
ATOM     20  C   UNL     1      46.391   6.187  10.837  0.00  0.00    +0.000 A 
ATOM     21  C   UNL     1      45.506   5.156  11.168  0.00  0.00    +0.000 A 
BRANCH  16  23
ATOM     22  C   UNL     1      43.321   4.083  13.291  0.00  0.00    +0.000 C 
ATOM     23  O   UNL     1      44.660   3.696  12.983  0.00  0.00    +0.000 OA
ENDBRANCH  16  23
BRANCH  21  24
ATOM     24  C   UNL     1      44.643   4.685  10.119  0.00  0.00    +0.000 C 
ATOM     25  N   UNL     1      43.970   4.311   9.254  0.00  0.00    +0.000 NA
ENDBRANCH  21  24
ENDBRANCH   1  18
BRANCH   1  26
ATOM     26  O   UNL     1      49.533   6.864  13.633  0.00  0.00    +0.000 OA
ATOM     27  H   UNL     1      49.608   6.052  13.102  0.00  0.00    +0.000 HD
ENDBRANCH   1  26
TORSDOF 6
ENDMDL
MODEL 7
REMARK VINA RESULT:    -5.618      4.502      7.376
REMARK INTER + INTRA:          -7.981
REMARK INTER:                  -7.226
REMARK INTRA:                  -0.755
REMARK UNBOUND:                -0.720
REMARK  Name = 
REMARK  8 active torsions:
REMARK  status: ('A' for Active; 'I' for Inactive)
REMARK    1  A    between atoms: C_1  and  O_2
REMARK    2  A    between atoms: O_2  and  C_3
REMARK    3  A    between atoms: C_5  and  C_6
REMARK    4  A    between atoms: C_6  and  O_7
REMARK    5  A    between atoms: N_10  and  C_11
REMARK    6  A    between atoms: C_13  and  C_14
REMARK    7  A    between atoms: C_16  and  O_17
REMARK    8  A    between atoms: C_23  and  C_24
REMARK                            x       y       z     vdW  Elec       q    Type
REMARK                         _______ _______ _______ _____ _____    ______ ____
ROOT
ATOM      1  C   UNL     1      47.450   7.153  12.876  0.00  0.00    +0.000 C 
ATOM      2  C   UNL     1      47.604   8.147  11.706  0.00  0.00    +0.000 C 
ATOM      3  C   UNL     1      48.693   9.189  11.945  0.00  0.00    +0.000 C 
ATOM      4  N   UNL     1      49.928   8.498  12.307  0.00  0.00    +0.000 N 
ATOM      5  C   UNL     1      49.854   7.680  13.509  0.00  0.00    +0.000 C 
ATOM      6  C   UNL     1      48.819   6.573  13.293  0.00  0.00    +0.000 C 
ENDROOT
BRANCH   4   7
ATOM      7  C   UNL     1      51.096   8.640  11.584  0.00  0.00    +0.000 A 
ATOM      8  C   UNL     1      51.518   7.658  10.668  0.00  0.00    +0.000 A 
ATOM      9  C   UNL     1      52.677   7.808   9.892  0.00  0.00    +0.000 A 
ATOM     10  C   UNL     1      53.058   6.785   8.867  0.00  0.00    +0.000 C 
ATOM     11  C   UNL     1      53.461   8.954  10.054  0.00  0.00    +0.000 A 
ATOM     12  C   UNL     1      53.068   9.921  10.969  0.00  0.00    +0.000 A 
ATOM     13  C   UNL     1      51.908   9.770  11.713  0.00  0.00    +0.000 A 
BRANCH  12  14
ATOM     14  O   UNL     1      53.813  11.058  11.159  0.00  0.00    +0.000 OA
ATOM     15  H   UNL     1      53.250  11.727  11.547  0.00  0.00    +0.000 HD
ENDBRANCH  12  14
ENDBRANCH   4   7
BRANCH   1  18
ATOM     16  C   UNL     1      44.895   4.873  11.002  0.00  0.00    +0.000 A 
ATOM     17  C   UNL     1      45.852   5.878  11.275  0.00  0.00    +0.000 A 
ATOM     18  C   UNL     1      46.429   6.042  12.555  0.00  0.00    +0.000 A 
ATOM     19  C   UNL     1      46.032   5.131  13.548  0.00  0.00    +0.000 A 
ATOM     20  C   UNL     1      45.099   4.129  13.283  0.00  0.00    +0.000 A 
ATOM     21  C   UNL     1      44.526   3.990  12.014  0.00  0.00    +0.000 A 
BRANCH  16  23
ATOM     22  C   UNL     1      45.301   4.226   8.748  0.00  0.00    +0.000 C 
ATOM     23  O   UNL     1      44.455   4.871   9.699  0.00  0.00    +0.000 OA
ENDBRANCH  16  23
BRANCH  21  24
ATOM     24  C   UNL     1      43.615   2.892  11.834  0.00  0.00    +0.000 C 
ATOM     25  N   UNL     1      42.879   2.015  11.661  0.00  0.00    +0.000 NA
ENDBRANCH  21  24
ENDBRANCH   1  18
BRANCH   1  26
ATOM     26  O   UNL     1      46.961   7.903  14.007  0.00  0.00    +0.000 OA
ATOM     27  H   UNL     1      47.689   7.984  14.647  0.00  0.00    +0.000 HD
ENDBRANCH   1  26
TORSDOF 6
ENDMDL
MODEL 8
REMARK VINA RESULT:    -5.574      3.327      4.984
REMARK INTER + INTRA:          -7.923
REMARK INTER:                  -7.160
REMARK INTRA:                  -0.764
REMARK UNBOUND:                -0.720
REMARK  Name = 
REMARK  8 active torsions:
REMARK  status: ('A' for Active; 'I' for Inactive)
REMARK    1  A    between atoms: C_1  and  O_2
REMARK    2  A    between atoms: O_2  and  C_3
REMARK    3  A    between atoms: C_5  and  C_6
REMARK    4  A    between atoms: C_6  and  O_7
REMARK    5  A    between atoms: N_10  and  C_11
REMARK    6  A    between atoms: C_13  and  C_14
REMARK    7  A    between atoms: C_16  and  O_17
REMARK    8  A    between atoms: C_23  and  C_24
REMARK                            x       y       z     vdW  Elec       q    Type
REMARK                         _______ _______ _______ _____ _____    ______ ____
ROOT
ATOM      1  C   UNL     1      49.146   7.925  13.732  0.00  0.00    +0.000 C 
ATOM      2  C   UNL     1      47.735   8.089  14.334  0.00  0.00    +0.000 C 
ATOM      3  C   UNL     1      46.664   8.358  13.282  0.00  0.00    +0.000 C 
ATOM      4  N   UNL     1      46.755   7.329  12.249  0.00  0.00    +0.000 N 
ATOM      5  C   UNL     1      48.029   7.263  11.548  0.00  0.00    +0.000 C 
ATOM      6  C   UNL     1      49.132   6.927  12.555  0.00  0.00    +0.000 C 
ENDROOT
BRANCH   4   7
ATOM      7  C   UNL     1      45.696   6.501  11.931  0.00  0.00    +0.000 A 
ATOM      8  C   UNL     1      45.645   5.811  10.705  0.00  0.00    +0.000 A 
ATOM      9  C   UNL     1      44.602   4.930  10.386  0.00  0.00    +0.000 A 
ATOM     10  C   UNL     1      44.614   4.148   9.109  0.00  0.00    +0.000 C 
ATOM     11  C   UNL     1      43.558   4.752  11.299  0.00  0.00    +0.000 A 
ATOM     12  C   UNL     1      43.585   5.442  12.503  0.00  0.00    +0.000 A 
ATOM     13  C   UNL     1      44.634   6.292  12.815  0.00  0.00    +0.000 A 
BRANCH  12  14
ATOM     14  O   UNL     1      42.577   5.297  13.423  0.00  0.00    +0.000 OA
ATOM     15  H   UNL     1      42.970   5.129  14.278  0.00  0.00    +0.000 HD
ENDBRANCH  12  14
ENDBRANCH   4   7
BRANCH   1  18
ATOM     16  C   UNL     1      50.831   6.377  16.895  0.00  0.00    +0.000 A 
ATOM     17  C   UNL     1      49.876   6.704  15.905  0.00  0.00    +0.000 A 
ATOM     18  C   UNL     1      50.186   7.535  14.804  0.00  0.00    +0.000 A 
ATOM     19  C   UNL     1      51.508   8.001  14.716  0.00  0.00    +0.000 A 
ATOM     20  C   UNL     1      52.459   7.673  15.683  0.00  0.00    +0.000 A 
ATOM     21  C   UNL     1      52.132   6.860  16.774  0.00  0.00    +0.000 A 
BRANCH  16  23
ATOM     22  C   UNL     1      50.274   4.164  17.569  0.00  0.00    +0.000 C 
ATOM     23  O   UNL     1      50.342   5.555  17.883  0.00  0.00    +0.000 OA
ENDBRANCH  16  23
BRANCH  21  24
ATOM     24  C   UNL     1      53.200   6.541  17.683  0.00  0.00    +0.000 C 
ATOM     25  N   UNL     1      54.039   6.277  18.435  0.00  0.00    +0.000 NA
ENDBRANCH  21  24
ENDBRANCH   1  18
BRANCH   1  26
ATOM     26  O   UNL     1      49.523   9.203  13.182  0.00  0.00    +0.000 OA
ATOM     27  H   UNL     1      48.819   9.839  13.399  0.00  0.00    +0.000 HD
ENDBRANCH   1  26
TORSDOF 6
ENDMDL
MODEL 9
REMARK VINA RESULT:    -5.372      3.430      5.232
REMARK INTER + INTRA:          -7.663
REMARK INTER:                  -6.897
REMARK INTRA:                  -0.766
REMARK UNBOUND:                -0.720
REMARK  Name = 
REMARK  8 active torsions:
REMARK  status: ('A' for Active; 'I' for Inactive)
REMARK    1  A    between atoms: C_1  and  O_2
REMARK    2  A    between atoms: O_2  and  C_3
REMARK    3  A    between atoms: C_5  and  C_6
REMARK    4  A    between atoms: C_6  and  O_7
REMARK    5  A    between atoms: N_10  and  C_11
REMARK    6  A    between atoms: C_13  and  C_14
REMARK    7  A    between atoms: C_16  and  O_17
REMARK    8  A    between atoms: C_23  and  C_24
REMARK                            x       y       z     vdW  Elec       q    Type
REMARK                         _______ _______ _______ _____ _____    ______ ____
ROOT
ATOM      1  C   UNL     1      48.536   8.089  14.559  0.00  0.00    +0.000 C 
ATOM      2  C   UNL     1      47.348   8.814  13.894  0.00  0.00    +0.000 C 
ATOM      3  C   UNL     1      47.063   8.321  12.478  0.00  0.00    +0.000 C 
ATOM      4  N   UNL     1      46.933   6.866  12.508  0.00  0.00    +0.000 N 
ATOM      5  C   UNL     1      48.107   6.146  12.979  0.00  0.00    +0.000 C 
ATOM      6  C   UNL     1      48.396   6.558  14.425  0.00  0.00    +0.000 C 
ENDROOT
BRANCH   4   7
ATOM      7  C   UNL     1      45.791   6.214  12.085  0.00  0.00    +0.000 A 
ATOM      8  C   UNL     1      45.713   5.621  10.811  0.00  0.00    +0.000 A 
ATOM      9  C   UNL     1      44.579   4.914  10.384  0.00  0.00    +0.000 A 
ATOM     10  C   UNL     1      44.553   4.225   9.055  0.00  0.00    +0.000 C 
ATOM     11  C   UNL     1      43.475   4.820  11.236  0.00  0.00    +0.000 A 
ATOM     12  C   UNL     1      43.530   5.418  12.487  0.00  0.00    +0.000 A 
ATOM     13  C   UNL     1      44.666   6.094  12.905  0.00  0.00    +0.000 A 
BRANCH  12  14
ATOM     14  O   UNL     1      42.466   5.351  13.350  0.00  0.00    +0.000 OA
ATOM     15  H   UNL     1      42.715   5.774  14.171  0.00  0.00    +0.000 HD
ENDBRANCH  12  14
ENDBRANCH   4   7
BRANCH   1  18
ATOM     16  C   UNL     1      48.967   8.012  18.438  0.00  0.00    +0.000 A 
ATOM     17  C   UNL     1      48.824   7.599  17.093  0.00  0.00    +0.000 A 
ATOM     18  C   UNL     1      48.723   8.523  16.028  0.00  0.00    +0.000 A 
ATOM     19  C   UNL     1      48.806   9.885  16.363  0.00  0.00    +0.000 A 
ATOM     20  C   UNL     1      48.960  10.299  17.686  0.00  0.00    +0.000 A 
ATOM     21  C   UNL     1      49.044   9.371  18.730  0.00  0.00    +0.000 A 
BRANCH  16  23
ATOM     22  C   UNL     1      47.829   6.301  19.638  0.00  0.00    +0.000 C 
ATOM     23  O   UNL     1      49.052   6.967  19.329  0.00  0.00    +0.000 OA
ENDBRANCH  16  23
BRANCH  21  24
ATOM     24  C   UNL     1      49.254   9.903  20.050  0.00  0.00    +0.000 C 
ATOM     25  N   UNL     1      49.426  10.303  21.122  0.00  0.00    +0.000 NA
ENDBRANCH  21  24
ENDBRANCH   1  18
BRANCH   1  26
ATOM     26  O   UNL     1      49.721   8.459  13.825  0.00  0.00    +0.000 OA
ATOM     27  H   UNL     1      49.873   7.780  13.145  0.00  0.00    +0.000 HD
ENDBRANCH   1  26
TORSDOF 6
ENDMDL
