MODEL 1
REMARK VINA RESULT:    -8.473      0.000      0.000
REMARK INTER + INTRA:         -13.296
REMARK INTER:                 -12.187
REMARK INTRA:                  -1.109
REMARK UNBOUND:                -1.109
REMARK  Name = 
REMARK  9 active torsions:
REMARK  status: ('A' for Active; 'I' for Inactive)
REMARK    1  A    between atoms: C_1  and  C_2
REMARK    2  A    between atoms: C_5  and  C_6
REMARK    3  A    between atoms: C_6  and  N_7
REMARK    4  A    between atoms: N_7  and  C_8
REMARK    5  A    between atoms: C_8  and  C_9
REMARK    6  A    between atoms: C_12  and  C_13
REMARK    7  A    between atoms: C_13  and  N_14
REMARK    8  A    between atoms: C_15  and  C_17
REMARK    9  A    between atoms: C_24  and  O_25
REMARK                            x       y       z     vdW  Elec       q    Type
REMARK                         _______ _______ _______ _____ _____    ______ ____
ROOT
ATOM      1  C   UNL     1      44.684   5.609  11.990  0.00  0.00    +0.000 A 
ATOM      2  C   UNL     1      44.916   4.832  13.133  0.00  0.00    +0.000 A 
ATOM      3  C   UNL     1      46.099   4.971  13.866  0.00  0.00    +0.000 A 
ATOM      4  C   UNL     1      47.071   5.912  13.485  0.00  0.00    +0.000 A 
ATOM      5  C   UNL     1      46.828   6.695  12.348  0.00  0.00    +0.000 A 
ATOM      6  C   UNL     1      45.649   6.548  11.609  0.00  0.00    +0.000 A 
ENDROOT
BRANCH   1   7
ATOM      7  C   UNL     1      43.404   5.454  11.198  0.00  0.00    +0.000 C 
BRANCH   7   8
ATOM      8  N   UNL     1      43.604   4.823   9.893  0.00  0.00    +0.000 NA
ATOM      9  H   UNL     1      42.736   4.876   9.363  0.00  0.00    +0.000 HD
BRANCH   8  10
ATOM     10  C   UNL     1      43.990   3.413   9.995  0.00  0.00    +0.000 C 
BRANCH  10  15
ATOM     11  C   UNL     1      48.045   2.144   5.992  0.00  0.00    +0.000 C 
ATOM     12  C   UNL     1      46.989   2.452   7.011  0.00  0.00    +0.000 A 
ATOM     13  C   UNL     1      46.485   1.450   7.848  0.00  0.00    +0.000 A 
ATOM     14  C   UNL     1      45.508   1.750   8.803  0.00  0.00    +0.000 A 
ATOM     15  C   UNL     1      45.027   3.061   8.951  0.00  0.00    +0.000 A 
ATOM     16  C   UNL     1      45.522   4.054   8.096  0.00  0.00    +0.000 A 
ATOM     17  C   UNL     1      46.491   3.753   7.137  0.00  0.00    +0.000 A 
ENDBRANCH  10  15
ENDBRANCH   8  10
ENDBRANCH   7   8
ENDBRANCH   1   7
BRANCH   4  18
ATOM     18  C   UNL     1      48.344   6.110  14.283  0.00  0.00    +0.000 C 
BRANCH  18  19
ATOM     19  N   UNL     1      48.097   6.490  15.647  0.00  0.00    +0.000 N 
ATOM     20  C   UNL     1      48.894   6.096  16.684  0.00  0.00    +0.000 C 
ATOM     21  O   UNL     1      49.851   5.326  16.546  0.00  0.00    +0.000 OA
ATOM     22  H   UNL     1      47.549   7.331  15.774  0.00  0.00    +0.000 HD
BRANCH  20  23
ATOM     23  C   UNL     1      48.527   6.641  17.993  0.00  0.00    +0.000 A 
ATOM     24  C   UNL     1      48.193   7.976  18.169  0.00  0.00    +0.000 A 
ATOM     25  S   UNL     1      47.799   8.356  19.790  0.00  0.00    +0.000 S 
ATOM     26  C   UNL     1      48.055   6.751  20.284  0.00  0.00    +0.000 A 
ATOM     27  N   UNL     1      47.870   6.384  21.566  0.00  0.00    +0.000 NA
ATOM     28  C   UNL     1      48.135   5.087  21.772  0.00  0.00    +0.000 A 
ATOM     29  N   UNL     1      48.552   4.180  20.883  0.00  0.00    +0.000 NA
ATOM     30  C   UNL     1      48.714   4.610  19.638  0.00  0.00    +0.000 A 
ATOM     31  C   UNL     1      48.465   5.926  19.251  0.00  0.00    +0.000 A 
BRANCH  30  32
ATOM     32  O   UNL     1      49.177   3.655  18.784  0.00  0.00    +0.000 OA
ATOM     33  H   UNL     1      49.923   3.272  19.288  0.00  0.00    +0.000 HD
ENDBRANCH  30  32
ENDBRANCH  20  23
ENDBRANCH  18  19
ENDBRANCH   4  18
TORSDOF 8
ENDMDL
MODEL 2
REMARK VINA RESULT:    -8.383      1.313      1.952
REMARK INTER + INTRA:         -13.167
REMARK INTER:                 -12.037
REMARK INTRA:                  -1.130
REMARK UNBOUND:                -1.109
REMARK  Name = 
REMARK  9 active torsions:
REMARK  status: ('A' for Active; 'I' for Inactive)
REMARK    1  A    between atoms: C_1  and  C_2
REMARK    2  A    between atoms: C_5  and  C_6
REMARK    3  A    between atoms: C_6  and  N_7
REMARK    4  A    between atoms: N_7  and  C_8
REMARK    5  A    between atoms: C_8  and  C_9
REMARK    6  A    between atoms: C_12  and  C_13
REMARK    7  A    between atoms: C_13  and  N_14
REMARK    8  A    between atoms: C_15  and  C_17
REMARK    9  A    between atoms: C_24  and  O_25
REMARK                            x       y       z     vdW  Elec       q    Type
REMARK                         _______ _______ _______ _____ _____    ______ ____
ROOT
ATOM      1  C   UNL     1      44.611   5.668  11.937  0.00  0.00    +0.000 A 
ATOM      2  C   UNL     1      45.021   4.839  12.992  0.00  0.00    +0.000 A 
ATOM      3  C   UNL     1      46.196   5.109  13.700  0.00  0.00    +0.000 A 
ATOM      4  C   UNL     1      46.980   6.233  13.385  0.00  0.00    +0.000 A 
ATOM      5  C   UNL     1      46.559   7.065  12.338  0.00  0.00    +0.000 A 
ATOM      6  C   UNL     1      45.388   6.789  11.623  0.00  0.00    +0.000 A 
ENDROOT
BRANCH   1   7
ATOM      7  C   UNL     1      43.340   5.372  11.172  0.00  0.00    +0.000 C 
BRANCH   7   8
ATOM      8  N   UNL     1      43.581   4.751   9.869  0.00  0.00    +0.000 NA
ATOM      9  H   UNL     1      42.721   4.780   9.324  0.00  0.00    +0.000 HD
BRANCH   8  10
ATOM     10  C   UNL     1      44.008   3.353   9.974  0.00  0.00    +0.000 C 
BRANCH  10  15
ATOM     11  C   UNL     1      48.053   2.175   5.935  0.00  0.00    +0.000 C 
ATOM     12  C   UNL     1      47.000   2.459   6.964  0.00  0.00    +0.000 A 
ATOM     13  C   UNL     1      46.526   1.446   7.804  0.00  0.00    +0.000 A 
ATOM     14  C   UNL     1      45.550   1.724   8.768  0.00  0.00    +0.000 A 
ATOM     15  C   UNL     1      45.043   3.024   8.921  0.00  0.00    +0.000 A 
ATOM     16  C   UNL     1      45.509   4.028   8.062  0.00  0.00    +0.000 A 
ATOM     17  C   UNL     1      46.475   3.749   7.095  0.00  0.00    +0.000 A 
ENDBRANCH  10  15
ENDBRANCH   8  10
ENDBRANCH   7   8
ENDBRANCH   1   7
BRANCH   4  18
ATOM     18  C   UNL     1      48.237   6.569  14.161  0.00  0.00    +0.000 C 
BRANCH  18  19
ATOM     19  N   UNL     1      48.116   6.300  15.568  0.00  0.00    +0.000 N 
ATOM     20  C   UNL     1      49.196   6.155  16.393  0.00  0.00    +0.000 C 
ATOM     21  O   UNL     1      50.363   6.174  15.987  0.00  0.00    +0.000 OA
ATOM     22  H   UNL     1      47.240   6.577  15.992  0.00  0.00    +0.000 HD
BRANCH  20  23
ATOM     23  C   UNL     1      48.875   5.957  17.808  0.00  0.00    +0.000 A 
ATOM     24  C   UNL     1      49.124   4.759  18.461  0.00  0.00    +0.000 A 
ATOM     25  S   UNL     1      48.664   4.790  20.108  0.00  0.00    +0.000 S 
ATOM     26  C   UNL     1      48.134   6.400  19.985  0.00  0.00    +0.000 A 
ATOM     27  N   UNL     1      47.635   7.048  21.055  0.00  0.00    +0.000 NA
ATOM     28  C   UNL     1      47.255   8.299  20.765  0.00  0.00    +0.000 A 
ATOM     29  N   UNL     1      47.308   8.924  19.584  0.00  0.00    +0.000 NA
ATOM     30  C   UNL     1      47.811   8.227  18.573  0.00  0.00    +0.000 A 
ATOM     31  C   UNL     1      48.269   6.917  18.708  0.00  0.00    +0.000 A 
BRANCH  30  32
ATOM     32  O   UNL     1      47.804   8.897  17.388  0.00  0.00    +0.000 OA
ATOM     33  H   UNL     1      48.702   9.283  17.364  0.00  0.00    +0.000 HD
ENDBRANCH  30  32
ENDBRANCH  20  23
ENDBRANCH  18  19
ENDBRANCH   4  18
TORSDOF 8
ENDMDL
MODEL 3
REMARK VINA RESULT:    -8.319      2.312      2.768
REMARK INTER + INTRA:         -13.076
REMARK INTER:                 -12.057
REMARK INTRA:                  -1.019
REMARK UNBOUND:                -1.109
REMARK  Name = 
REMARK  9 active torsions:
REMARK  status: ('A' for Active; 'I' for Inactive)
REMARK    1  A    between atoms: C_1  and  C_2
REMARK    2  A    between atoms: C_5  and  C_6
REMARK    3  A    between atoms: C_6  and  N_7
REMARK    4  A    between atoms: N_7  and  C_8
REMARK    5  A    between atoms: C_8  and  C_9
REMARK    6  A    between atoms: C_12  and  C_13
REMARK    7  A    between atoms: C_13  and  N_14
REMARK    8  A    between atoms: C_15  and  C_17
REMARK    9  A    between atoms: C_24  and  O_25
REMARK                            x       y       z     vdW  Elec       q    Type
REMARK                         _______ _______ _______ _____ _____    ______ ____
ROOT
ATOM      1  C   UNL     1      44.595   6.296  11.605  0.00  0.00    +0.000 A 
ATOM      2  C   UNL     1      44.823   7.678  11.555  0.00  0.00    +0.000 A 
ATOM      3  C   UNL     1      46.002   8.228  12.068  0.00  0.00    +0.000 A 
ATOM      4  C   UNL     1      46.995   7.403  12.625  0.00  0.00    +0.000 A 
ATOM      5  C   UNL     1      46.767   6.021  12.661  0.00  0.00    +0.000 A 
ATOM      6  C   UNL     1      45.582   5.472  12.155  0.00  0.00    +0.000 A 
ENDROOT
BRANCH   1   7
ATOM      7  C   UNL     1      43.318   5.704  11.049  0.00  0.00    +0.000 C 
BRANCH   7   8
ATOM      8  N   UNL     1      43.515   4.982   9.792  0.00  0.00    +0.000 NA
ATOM      9  H   UNL     1      42.632   4.952   9.285  0.00  0.00    +0.000 HD
BRANCH   8  10
ATOM     10  C   UNL     1      43.973   3.604   9.991  0.00  0.00    +0.000 C 
BRANCH  10  15
ATOM     11  C   UNL     1      48.006   2.097   6.050  0.00  0.00    +0.000 C 
ATOM     12  C   UNL     1      46.986   2.501   7.072  0.00  0.00    +0.000 A 
ATOM     13  C   UNL     1      46.624   3.842   7.234  0.00  0.00    +0.000 A 
ATOM     14  C   UNL     1      45.663   4.208   8.183  0.00  0.00    +0.000 A 
ATOM     15  C   UNL     1      45.034   3.236   8.977  0.00  0.00    +0.000 A 
ATOM     16  C   UNL     1      45.416   1.897   8.823  0.00  0.00    +0.000 A 
ATOM     17  C   UNL     1      46.381   1.534   7.882  0.00  0.00    +0.000 A 
ENDBRANCH  10  15
ENDBRANCH   8  10
ENDBRANCH   7   8
ENDBRANCH   1   7
BRANCH   4  18
ATOM     18  C   UNL     1      48.296   7.970  13.153  0.00  0.00    +0.000 C 
BRANCH  18  19
ATOM     19  N   UNL     1      48.906   7.135  14.153  0.00  0.00    +0.000 N 
ATOM     20  C   UNL     1      48.926   7.458  15.480  0.00  0.00    +0.000 C 
ATOM     21  O   UNL     1      48.484   8.525  15.922  0.00  0.00    +0.000 OA
ATOM     22  H   UNL     1      48.993   6.156  13.910  0.00  0.00    +0.000 HD
BRANCH  20  23
ATOM     23  C   UNL     1      49.527   6.451  16.357  0.00  0.00    +0.000 A 
ATOM     24  C   UNL     1      50.775   6.627  16.936  0.00  0.00    +0.000 A 
ATOM     25  S   UNL     1      51.245   5.308  17.919  0.00  0.00    +0.000 S 
ATOM     26  C   UNL     1      49.793   4.484  17.600  0.00  0.00    +0.000 A 
ATOM     27  N   UNL     1      49.543   3.283  18.154  0.00  0.00    +0.000 NA
ATOM     28  C   UNL     1      48.361   2.779  17.776  0.00  0.00    +0.000 A 
ATOM     29  N   UNL     1      47.466   3.317  16.941  0.00  0.00    +0.000 NA
ATOM     30  C   UNL     1      47.776   4.501  16.430  0.00  0.00    +0.000 A 
ATOM     31  C   UNL     1      48.960   5.172  16.734  0.00  0.00    +0.000 A 
BRANCH  30  32
ATOM     32  O   UNL     1      46.849   4.983  15.557  0.00  0.00    +0.000 OA
ATOM     33  H   UNL     1      46.010   4.799  16.024  0.00  0.00    +0.000 HD
ENDBRANCH  30  32
ENDBRANCH  20  23
ENDBRANCH  18  19
ENDBRANCH   4  18
TORSDOF 8
ENDMDL
MODEL 4
REMARK VINA RESULT:    -7.811      1.376      1.752
REMARK INTER + INTRA:         -12.344
REMARK INTER:                 -11.218
REMARK INTRA:                  -1.126
REMARK UNBOUND:                -1.109
REMARK  Name = 
REMARK  9 active torsions:
REMARK  status: ('A' for Active; 'I' for Inactive)
REMARK    1  A    between atoms: C_1  and  C_2
REMARK    2  A    between atoms: C_5  and  C_6
REMARK    3  A    between atoms: C_6  and  N_7
REMARK    4  A    between atoms: N_7  and  C_8
REMARK    5  A    between atoms: C_8  and  C_9
REMARK    6  A    between atoms: C_12  and  C_13
REMARK    7  A    between atoms: C_13  and  N_14
REMARK    8  A    between atoms: C_15  and  C_17
REMARK    9  A    between atoms: C_24  and  O_25
REMARK                            x       y       z     vdW  Elec       q    Type
REMARK                         _______ _______ _______ _____ _____    ______ ____
ROOT
ATOM      1  C   UNL     1      45.697   5.075  11.959  0.00  0.00    +0.000 A 
ATOM      2  C   UNL     1      46.215   4.672  13.198  0.00  0.00    +0.000 A 
ATOM      3  C   UNL     1      47.287   5.355  13.782  0.00  0.00    +0.000 A 
ATOM      4  C   UNL     1      47.852   6.477  13.150  0.00  0.00    +0.000 A 
ATOM      5  C   UNL     1      47.321   6.883  11.918  0.00  0.00    +0.000 A 
ATOM      6  C   UNL     1      46.255   6.193  11.329  0.00  0.00    +0.000 A 
ENDROOT
BRANCH   1   7
ATOM      7  C   UNL     1      44.539   4.334  11.329  0.00  0.00    +0.000 C 
BRANCH   7   8
ATOM      8  N   UNL     1      44.825   2.920  11.079  0.00  0.00    +0.000 NA
ATOM      9  H   UNL     1      45.833   2.794  11.010  0.00  0.00    +0.000 HD
BRANCH   8  10
ATOM     10  C   UNL     1      44.217   2.426   9.841  0.00  0.00    +0.000 C 
BRANCH  10  15
ATOM     11  C   UNL     1      48.052   2.336   5.442  0.00  0.00    +0.000 C 
ATOM     12  C   UNL     1      47.079   2.379   6.582  0.00  0.00    +0.000 A 
ATOM     13  C   UNL     1      46.384   3.553   6.889  0.00  0.00    +0.000 A 
ATOM     14  C   UNL     1      45.470   3.580   7.947  0.00  0.00    +0.000 A 
ATOM     15  C   UNL     1      45.221   2.427   8.709  0.00  0.00    +0.000 A 
ATOM     16  C   UNL     1      45.936   1.261   8.408  0.00  0.00    +0.000 A 
ATOM     17  C   UNL     1      46.854   1.237   7.357  0.00  0.00    +0.000 A 
ENDBRANCH  10  15
ENDBRANCH   8  10
ENDBRANCH   7   8
ENDBRANCH   1   7
BRANCH   4  18
ATOM     18  C   UNL     1      48.988   7.256  13.779  0.00  0.00    +0.000 C 
BRANCH  18  19
ATOM     19  N   UNL     1      49.010   7.156  15.213  0.00  0.00    +0.000 N 
ATOM     20  C   UNL     1      50.164   7.198  15.944  0.00  0.00    +0.000 C 
ATOM     21  O   UNL     1      51.287   7.256  15.430  0.00  0.00    +0.000 OA
ATOM     22  H   UNL     1      48.152   7.416  15.683  0.00  0.00    +0.000 HD
BRANCH  20  23
ATOM     23  C   UNL     1      49.983   7.154  17.396  0.00  0.00    +0.000 A 
ATOM     24  C   UNL     1      50.281   8.237  18.210  0.00  0.00    +0.000 A 
ATOM     25  S   UNL     1      49.975   7.930  19.865  0.00  0.00    +0.000 S 
ATOM     26  C   UNL     1      49.432   6.356  19.528  0.00  0.00    +0.000 A 
ATOM     27  N   UNL     1      48.998   5.547  20.513  0.00  0.00    +0.000 NA
ATOM     28  C   UNL     1      48.626   4.342  20.062  0.00  0.00    +0.000 A 
ATOM     29  N   UNL     1      48.654   3.889  18.805  0.00  0.00    +0.000 NA
ATOM     30  C   UNL     1      49.092   4.738  17.884  0.00  0.00    +0.000 A 
ATOM     31  C   UNL     1      49.502   6.037  18.183  0.00  0.00    +0.000 A 
BRANCH  30  32
ATOM     32  O   UNL     1      49.136   4.211  16.629  0.00  0.00    +0.000 OA
ATOM     33  H   UNL     1      50.040   4.446  16.338  0.00  0.00    +0.000 HD
ENDBRANCH  30  32
ENDBRANCH  20  23
ENDBRANCH  18  19
ENDBRANCH   4  18
TORSDOF 8
ENDMDL
MODEL 5
REMARK VINA RESULT:    -7.362      5.292      7.578
REMARK INTER + INTRA:         -11.699
REMARK INTER:                 -10.467
REMARK INTRA:                  -1.232
REMARK UNBOUND:                -1.109
REMARK  Name = 
REMARK  9 active torsions:
REMARK  status: ('A' for Active; 'I' for Inactive)
REMARK    1  A    between atoms: C_1  and  C_2
REMARK    2  A    between atoms: C_5  and  C_6
REMARK    3  A    between atoms: C_6  and  N_7
REMARK    4  A    between atoms: N_7  and  C_8
REMARK    5  A    between atoms: C_8  and  C_9
REMARK    6  A    between atoms: C_12  and  C_13
REMARK    7  A    between atoms: C_13  and  N_14
REMARK    8  A    between atoms: C_15  and  C_17
REMARK    9  A    between atoms: C_24  and  O_25
REMARK                            x       y       z     vdW  Elec       q    Type
REMARK                         _______ _______ _______ _____ _____    ______ ____
ROOT
ATOM      1  C   UNL     1      46.266   5.731  12.316  0.00  0.00    +0.000 A 
ATOM      2  C   UNL     1      47.050   5.555  13.464  0.00  0.00    +0.000 A 
ATOM      3  C   UNL     1      48.258   6.243  13.619  0.00  0.00    +0.000 A 
ATOM      4  C   UNL     1      48.700   7.145  12.636  0.00  0.00    +0.000 A 
ATOM      5  C   UNL     1      47.905   7.327  11.496  0.00  0.00    +0.000 A 
ATOM      6  C   UNL     1      46.701   6.631  11.336  0.00  0.00    +0.000 A 
ENDROOT
BRANCH   1   7
ATOM      7  C   UNL     1      44.960   4.984  12.150  0.00  0.00    +0.000 C 
BRANCH   7   8
ATOM      8  N   UNL     1      44.386   5.114  10.810  0.00  0.00    +0.000 NA
ATOM      9  H   UNL     1      43.549   5.691  10.863  0.00  0.00    +0.000 HD
BRANCH   8  10
ATOM     10  C   UNL     1      44.015   3.825  10.221  0.00  0.00    +0.000 C 
BRANCH  10  15
ATOM     11  C   UNL     1      47.834   2.099   6.158  0.00  0.00    +0.000 C 
ATOM     12  C   UNL     1      46.870   2.559   7.211  0.00  0.00    +0.000 A 
ATOM     13  C   UNL     1      46.575   3.916   7.371  0.00  0.00    +0.000 A 
ATOM     14  C   UNL     1      45.665   4.334   8.349  0.00  0.00    +0.000 A 
ATOM     15  C   UNL     1      45.021   3.399   9.175  0.00  0.00    +0.000 A 
ATOM     16  C   UNL     1      45.338   2.043   9.022  0.00  0.00    +0.000 A 
ATOM     17  C   UNL     1      46.252   1.628   8.052  0.00  0.00    +0.000 A 
ENDBRANCH  10  15
ENDBRANCH   8  10
ENDBRANCH   7   8
ENDBRANCH   1   7
BRANCH   4  18
ATOM     18  C   UNL     1      49.984   7.931  12.797  0.00  0.00    +0.000 C 
BRANCH  18  19
ATOM     19  N   UNL     1      50.662   8.157  11.550  0.00  0.00    +0.000 N 
ATOM     20  C   UNL     1      52.023   8.132  11.428  0.00  0.00    +0.000 C 
ATOM     21  O   UNL     1      52.785   7.982  12.390  0.00  0.00    +0.000 OA
ATOM     22  H   UNL     1      50.117   7.977  10.717  0.00  0.00    +0.000 HD
BRANCH  20  23
ATOM     23  C   UNL     1      52.529   8.313  10.066  0.00  0.00    +0.000 A 
ATOM     24  C   UNL     1      52.396   9.513   9.382  0.00  0.00    +0.000 A 
ATOM     25  S   UNL     1      53.075   9.464   7.813  0.00  0.00    +0.000 S 
ATOM     26  C   UNL     1      53.567   7.850   8.018  0.00  0.00    +0.000 A 
ATOM     27  N   UNL     1      54.232   7.200   7.044  0.00  0.00    +0.000 NA
ATOM     28  C   UNL     1      54.522   5.936   7.377  0.00  0.00    +0.000 A 
ATOM     29  N   UNL     1      54.222   5.293   8.510  0.00  0.00    +0.000 NA
ATOM     30  C   UNL     1      53.567   5.992   9.427  0.00  0.00    +0.000 A 
ATOM     31  C   UNL     1      53.203   7.326   9.247  0.00  0.00    +0.000 A 
BRANCH  30  32
ATOM     32  O   UNL     1      53.253   5.277  10.543  0.00  0.00    +0.000 OA
ATOM     33  H   UNL     1      53.459   5.911  11.258  0.00  0.00    +0.000 HD
ENDBRANCH  30  32
ENDBRANCH  20  23
ENDBRANCH  18  19
ENDBRANCH   4  18
TORSDOF 8
ENDMDL
MODEL 6
REMARK VINA RESULT:    -7.037      2.321      2.911
REMARK INTER + INTRA:         -11.231
REMARK INTER:                 -10.804
REMARK INTRA:                  -0.426
REMARK UNBOUND:                -1.109
REMARK  Name = 
REMARK  9 active torsions:
REMARK  status: ('A' for Active; 'I' for Inactive)
REMARK    1  A    between atoms: C_1  and  C_2
REMARK    2  A    between atoms: C_5  and  C_6
REMARK    3  A    between atoms: C_6  and  N_7
REMARK    4  A    between atoms: N_7  and  C_8
REMARK    5  A    between atoms: C_8  and  C_9
REMARK    6  A    between atoms: C_12  and  C_13
REMARK    7  A    between atoms: C_13  and  N_14
REMARK    8  A    between atoms: C_15  and  C_17
REMARK    9  A    between atoms: C_24  and  O_25
REMARK                            x       y       z     vdW  Elec       q    Type
REMARK                         _______ _______ _______ _____ _____    ______ ____
ROOT
ATOM      1  C   UNL     1      44.666   4.473  12.511  0.00  0.00    +0.000 A 
ATOM      2  C   UNL     1      43.942   5.638  12.220  0.00  0.00    +0.000 A 
ATOM      3  C   UNL     1      44.499   6.901  12.444  0.00  0.00    +0.000 A 
ATOM      4  C   UNL     1      45.807   7.030  12.942  0.00  0.00    +0.000 A 
ATOM      5  C   UNL     1      46.531   5.861  13.220  0.00  0.00    +0.000 A 
ATOM      6  C   UNL     1      45.969   4.597  13.005  0.00  0.00    +0.000 A 
ENDROOT
BRANCH   1   7
ATOM      7  C   UNL     1      44.060   3.108  12.270  0.00  0.00    +0.000 C 
BRANCH   7   8
ATOM      8  N   UNL     1      43.455   2.970  10.944  0.00  0.00    +0.000 NA
ATOM      9  H   UNL     1      43.705   2.060  10.559  0.00  0.00    +0.000 HD
BRANCH   8  10
ATOM     10  C   UNL     1      43.901   4.001  10.004  0.00  0.00    +0.000 C 
BRANCH  10  15
ATOM     11  C   UNL     1      47.859   1.799   6.322  0.00  0.00    +0.000 C 
ATOM     12  C   UNL     1      46.860   2.381   7.276  0.00  0.00    +0.000 A 
ATOM     13  C   UNL     1      46.595   3.754   7.289  0.00  0.00    +0.000 A 
ATOM     14  C   UNL     1      45.652   4.286   8.176  0.00  0.00    +0.000 A 
ATOM     15  C   UNL     1      44.944   3.452   9.055  0.00  0.00    +0.000 A 
ATOM     16  C   UNL     1      45.230   2.080   9.050  0.00  0.00    +0.000 A 
ATOM     17  C   UNL     1      46.176   1.551   8.171  0.00  0.00    +0.000 A 
ENDBRANCH  10  15
ENDBRANCH   8  10
ENDBRANCH   7   8
ENDBRANCH   1   7
BRANCH   4  18
ATOM     18  C   UNL     1      46.447   8.385  13.158  0.00  0.00    +0.000 C 
BRANCH  18  19
ATOM     19  N   UNL     1      47.015   8.535  14.470  0.00  0.00    +0.000 N 
ATOM     20  C   UNL     1      48.347   8.748  14.683  0.00  0.00    +0.000 C 
ATOM     21  O   UNL     1      49.184   8.761  13.773  0.00  0.00    +0.000 OA
ATOM     22  H   UNL     1      46.373   8.838  15.191  0.00  0.00    +0.000 HD
BRANCH  20  23
ATOM     23  C   UNL     1      48.729   8.949  16.083  0.00  0.00    +0.000 A 
ATOM     24  C   UNL     1      48.197   9.972  16.854  0.00  0.00    +0.000 A 
ATOM     25  S   UNL     1      48.801   9.984  18.454  0.00  0.00    +0.000 S 
ATOM     26  C   UNL     1      49.773   8.623  18.154  0.00  0.00    +0.000 A 
ATOM     27  N   UNL     1      50.543   8.094  19.124  0.00  0.00    +0.000 NA
ATOM     28  C   UNL     1      51.250   7.039  18.701  0.00  0.00    +0.000 A 
ATOM     29  N   UNL     1      51.272   6.500  17.477  0.00  0.00    +0.000 NA
ATOM     30  C   UNL     1      50.490   7.070  16.570  0.00  0.00    +0.000 A 
ATOM     31  C   UNL     1      49.677   8.167  16.851  0.00  0.00    +0.000 A 
BRANCH  30  32
ATOM     32  O   UNL     1      50.583   6.506  15.334  0.00  0.00    +0.000 OA
ATOM     33  H   UNL     1      50.206   7.203  14.760  0.00  0.00    +0.000 HD
ENDBRANCH  30  32
ENDBRANCH  20  23
ENDBRANCH  18  19
ENDBRANCH   4  18
TORSDOF 8
ENDMDL
MODEL 7
REMARK VINA RESULT:    -6.647      4.004      5.159
REMARK INTER + INTRA:         -10.669
REMARK INTER:                 -10.062
REMARK INTRA:                  -0.607
REMARK UNBOUND:                -1.109
REMARK  Name = 
REMARK  9 active torsions:
REMARK  status: ('A' for Active; 'I' for Inactive)
REMARK    1  A    between atoms: C_1  and  C_2
REMARK    2  A    between atoms: C_5  and  C_6
REMARK    3  A    between atoms: C_6  and  N_7
REMARK    4  A    between atoms: N_7  and  C_8
REMARK    5  A    between atoms: C_8  and  C_9
REMARK    6  A    between atoms: C_12  and  C_13
REMARK    7  A    between atoms: C_13  and  N_14
REMARK    8  A    between atoms: C_15  and  C_17
REMARK    9  A    between atoms: C_24  and  O_25
REMARK                            x       y       z     vdW  Elec       q    Type
REMARK                         _______ _______ _______ _____ _____    ______ ____
ROOT
ATOM      1  C   UNL     1      44.612   4.494  12.661  0.00  0.00    +0.000 A 
ATOM      2  C   UNL     1      43.974   5.741  12.587  0.00  0.00    +0.000 A 
ATOM      3  C   UNL     1      44.703   6.927  12.721  0.00  0.00    +0.000 A 
ATOM      4  C   UNL     1      46.096   6.895  12.909  0.00  0.00    +0.000 A 
ATOM      5  C   UNL     1      46.730   5.646  12.970  0.00  0.00    +0.000 A 
ATOM      6  C   UNL     1      45.998   4.459  12.845  0.00  0.00    +0.000 A 
ENDROOT
BRANCH   1   7
ATOM      7  C   UNL     1      43.820   3.213  12.516  0.00  0.00    +0.000 C 
BRANCH   7   8
ATOM      8  N   UNL     1      43.160   3.085  11.216  0.00  0.00    +0.000 NA
ATOM      9  H   UNL     1      43.347   2.157  10.840  0.00  0.00    +0.000 HD
BRANCH   8  10
ATOM     10  C   UNL     1      43.624   4.075  10.241  0.00  0.00    +0.000 C 
BRANCH  10  15
ATOM     11  C   UNL     1      47.671   1.835   6.680  0.00  0.00    +0.000 C 
ATOM     12  C   UNL     1      46.614   2.395   7.585  0.00  0.00    +0.000 A 
ATOM     13  C   UNL     1      45.844   1.554   8.395  0.00  0.00    +0.000 A 
ATOM     14  C   UNL     1      44.868   2.088   9.244  0.00  0.00    +0.000 A 
ATOM     15  C   UNL     1      44.655   3.474   9.311  0.00  0.00    +0.000 A 
ATOM     16  C   UNL     1      45.417   4.307   8.481  0.00  0.00    +0.000 A 
ATOM     17  C   UNL     1      46.384   3.774   7.628  0.00  0.00    +0.000 A 
ENDBRANCH  10  15
ENDBRANCH   8  10
ENDBRANCH   7   8
ENDBRANCH   1   7
BRANCH   4  18
ATOM     18  C   UNL     1      46.913   8.165  13.020  0.00  0.00    +0.000 C 
BRANCH  18  19
ATOM     19  N   UNL     1      48.228   7.940  13.557  0.00  0.00    +0.000 N 
ATOM     20  C   UNL     1      49.231   8.864  13.477  0.00  0.00    +0.000 C 
ATOM     21  O   UNL     1      49.114   9.939  12.878  0.00  0.00    +0.000 OA
ATOM     22  H   UNL     1      48.286   7.251  14.296  0.00  0.00    +0.000 HD
BRANCH  20  23
ATOM     23  C   UNL     1      50.479   8.486  14.144  0.00  0.00    +0.000 A 
ATOM     24  C   UNL     1      50.524   8.151  15.490  0.00  0.00    +0.000 A 
ATOM     25  S   UNL     1      52.099   7.743  16.022  0.00  0.00    +0.000 S 
ATOM     26  C   UNL     1      52.746   7.996  14.471  0.00  0.00    +0.000 A 
ATOM     27  N   UNL     1      54.056   7.801  14.227  0.00  0.00    +0.000 NA
ATOM     28  C   UNL     1      54.386   8.065  12.957  0.00  0.00    +0.000 A 
ATOM     29  N   UNL     1      53.590   8.489  11.970  0.00  0.00    +0.000 NA
ATOM     30  C   UNL     1      52.312   8.661  12.279  0.00  0.00    +0.000 A 
ATOM     31  C   UNL     1      51.799   8.414  13.552  0.00  0.00    +0.000 A 
BRANCH  30  32
ATOM     32  O   UNL     1      51.557   9.131  11.248  0.00  0.00    +0.000 OA
ATOM     33  H   UNL     1      51.929   8.650  10.483  0.00  0.00    +0.000 HD
ENDBRANCH  30  32
ENDBRANCH  20  23
ENDBRANCH  18  19
ENDBRANCH   4  18
TORSDOF 8
ENDMDL
MODEL 8
REMARK VINA RESULT:    -6.587      1.867      2.327
REMARK INTER + INTRA:         -10.583
REMARK INTER:                 -10.252
REMARK INTRA:                  -0.331
REMARK UNBOUND:                -1.109
REMARK  Name = 
REMARK  9 active torsions:
REMARK  status: ('A' for Active; 'I' for Inactive)
REMARK    1  A    between atoms: C_1  and  C_2
REMARK    2  A    between atoms: C_5  and  C_6
REMARK    3  A    between atoms: C_6  and  N_7
REMARK    4  A    between atoms: N_7  and  C_8
REMARK    5  A    between atoms: C_8  and  C_9
REMARK    6  A    between atoms: C_12  and  C_13
REMARK    7  A    between atoms: C_13  and  N_14
REMARK    8  A    between atoms: C_15  and  C_17
REMARK    9  A    between atoms: C_24  and  O_25
REMARK                            x       y       z     vdW  Elec       q    Type
REMARK                         _______ _______ _______ _____ _____    ______ ____
ROOT
ATOM      1  C   UNL     1      46.143   5.667  11.783  0.00  0.00    +0.000 A 
ATOM      2  C   UNL     1      46.469   4.989  12.966  0.00  0.00    +0.000 A 
ATOM      3  C   UNL     1      47.256   5.600  13.948  0.00  0.00    +0.000 A 
ATOM      4  C   UNL     1      47.717   6.917  13.780  0.00  0.00    +0.000 A 
ATOM      5  C   UNL     1      47.377   7.594  12.600  0.00  0.00    +0.000 A 
ATOM      6  C   UNL     1      46.598   6.979  11.614  0.00  0.00    +0.000 A 
ENDROOT
BRANCH   1   7
ATOM      7  C   UNL     1      45.292   5.003  10.722  0.00  0.00    +0.000 C 
BRANCH   7   8
ATOM      8  N   UNL     1      44.636   3.780  11.189  0.00  0.00    +0.000 NA
ATOM      9  H   UNL     1      45.319   3.204  11.678  0.00  0.00    +0.000 HD
BRANCH   8  10
ATOM     10  C   UNL     1      44.068   2.986  10.097  0.00  0.00    +0.000 C 
BRANCH  10  15
ATOM     11  C   UNL     1      47.866   2.281   5.721  0.00  0.00    +0.000 C 
ATOM     12  C   UNL     1      46.903   2.482   6.853  0.00  0.00    +0.000 A 
ATOM     13  C   UNL     1      46.285   3.720   7.059  0.00  0.00    +0.000 A 
ATOM     14  C   UNL     1      45.380   3.894   8.112  0.00  0.00    +0.000 A 
ATOM     15  C   UNL     1      45.063   2.828   8.969  0.00  0.00    +0.000 A 
ATOM     16  C   UNL     1      45.702   1.598   8.768  0.00  0.00    +0.000 A 
ATOM     17  C   UNL     1      46.611   1.427   7.723  0.00  0.00    +0.000 A 
ENDBRANCH  10  15
ENDBRANCH   8  10
ENDBRANCH   7   8
ENDBRANCH   1   7
BRANCH   4  18
ATOM     18  C   UNL     1      48.538   7.614  14.843  0.00  0.00    +0.000 C 
BRANCH  18  19
ATOM     19  N   UNL     1      48.555   6.905  16.093  0.00  0.00    +0.000 N 
ATOM     20  C   UNL     1      49.674   6.293  16.586  0.00  0.00    +0.000 C 
ATOM     21  O   UNL     1      50.743   6.241  15.967  0.00  0.00    +0.000 OA
ATOM     22  H   UNL     1      47.840   7.172  16.757  0.00  0.00    +0.000 HD
BRANCH  20  23
ATOM     23  C   UNL     1      49.518   5.682  17.908  0.00  0.00    +0.000 A 
ATOM     24  C   UNL     1      48.485   4.802  18.197  0.00  0.00    +0.000 A 
ATOM     25  S   UNL     1      48.532   4.227  19.807  0.00  0.00    +0.000 S 
ATOM     26  C   UNL     1      49.931   5.130  20.146  0.00  0.00    +0.000 A 
ATOM     27  N   UNL     1      50.513   5.076  21.359  0.00  0.00    +0.000 NA
ATOM     28  C   UNL     1      51.592   5.864  21.446  0.00  0.00    +0.000 A 
ATOM     29  N   UNL     1      52.108   6.661  20.504  0.00  0.00    +0.000 NA
ATOM     30  C   UNL     1      51.485   6.666  19.333  0.00  0.00    +0.000 A 
ATOM     31  C   UNL     1      50.357   5.890  19.070  0.00  0.00    +0.000 A 
BRANCH  30  32
ATOM     32  O   UNL     1      52.030   7.523  18.426  0.00  0.00    +0.000 OA
ATOM     33  H   UNL     1      52.988   7.387  18.563  0.00  0.00    +0.000 HD
ENDBRANCH  30  32
ENDBRANCH  20  23
ENDBRANCH  18  19
ENDBRANCH   4  18
TORSDOF 8
ENDMDL
MODEL 9
REMARK VINA RESULT:    -6.530      3.837      9.359
REMARK INTER + INTRA:         -10.501
REMARK INTER:                  -9.000
REMARK INTRA:                  -1.502
REMARK UNBOUND:                -1.109
REMARK  Name = 
REMARK  9 active torsions:
REMARK  status: ('A' for Active; 'I' for Inactive)
REMARK    1  A    between atoms: C_1  and  C_2
REMARK    2  A    between atoms: C_5  and  C_6
REMARK    3  A    between atoms: C_6  and  N_7
REMARK    4  A    between atoms: N_7  and  C_8
REMARK    5  A    between atoms: C_8  and  C_9
REMARK    6  A    between atoms: C_12  and  C_13
REMARK    7  A    between atoms: C_13  and  N_14
REMARK    8  A    between atoms: C_15  and  C_17
REMARK    9  A    between atoms: C_24  and  O_25
REMARK                            x       y       z     vdW  Elec       q    Type
REMARK                         _______ _______ _______ _____ _____    ______ ____
ROOT
ATOM      1  C   UNL     1      49.947   8.654  14.882  0.00  0.00    +0.000 A 
ATOM      2  C   UNL     1      50.301   8.271  13.581  0.00  0.00    +0.000 A 
ATOM      3  C   UNL     1      49.326   8.107  12.592  0.00  0.00    +0.000 A 
ATOM      4  C   UNL     1      47.970   8.347  12.876  0.00  0.00    +0.000 A 
ATOM      5  C   UNL     1      47.623   8.742  14.175  0.00  0.00    +0.000 A 
ATOM      6  C   UNL     1      48.598   8.896  15.167  0.00  0.00    +0.000 A 
ENDROOT
BRANCH   1   7
ATOM      7  C   UNL     1      51.004   8.828  15.950  0.00  0.00    +0.000 C 
BRANCH   7   8
ATOM      8  N   UNL     1      50.560   8.401  17.278  0.00  0.00    +0.000 NA
ATOM      9  H   UNL     1      50.803   9.122  17.956  0.00  0.00    +0.000 HD
BRANCH   8  10
ATOM     10  C   UNL     1      51.177   7.144  17.709  0.00  0.00    +0.000 C 
BRANCH  10  15
ATOM     11  C   UNL     1      47.247   2.833  17.515  0.00  0.00    +0.000 C 
ATOM     12  C   UNL     1      48.269   3.928  17.583  0.00  0.00    +0.000 A 
ATOM     13  C   UNL     1      49.635   3.643  17.489  0.00  0.00    +0.000 A 
ATOM     14  C   UNL     1      50.580   4.674  17.543  0.00  0.00    +0.000 A 
ATOM     15  C   UNL     1      50.175   6.011  17.675  0.00  0.00    +0.000 A 
ATOM     16  C   UNL     1      48.806   6.287  17.789  0.00  0.00    +0.000 A 
ATOM     17  C   UNL     1      47.865   5.257  17.744  0.00  0.00    +0.000 A 
ENDBRANCH  10  15
ENDBRANCH   8  10
ENDBRANCH   7   8
ENDBRANCH   1   7
BRANCH   4  18
ATOM     18  C   UNL     1      46.899   8.213  11.814  0.00  0.00    +0.000 C 
BRANCH  18  19
ATOM     19  N   UNL     1      46.327   6.896  11.757  0.00  0.00    +0.000 N 
ATOM     20  C   UNL     1      44.984   6.673  11.647  0.00  0.00    +0.000 C 
ATOM     21  O   UNL     1      44.145   7.581  11.657  0.00  0.00    +0.000 OA
ATOM     22  H   UNL     1      46.949   6.163  11.439  0.00  0.00    +0.000 HD
BRANCH  20  23
ATOM     23  C   UNL     1      44.594   5.266  11.530  0.00  0.00    +0.000 A 
ATOM     24  C   UNL     1      43.947   4.591  12.555  0.00  0.00    +0.000 A 
ATOM     25  S   UNL     1      43.598   2.962  12.165  0.00  0.00    +0.000 S 
ATOM     26  C   UNL     1      44.293   3.127  10.623  0.00  0.00    +0.000 A 
ATOM     27  N   UNL     1      44.310   2.096   9.757  0.00  0.00    +0.000 NA
ATOM     28  C   UNL     1      44.911   2.406   8.602  0.00  0.00    +0.000 A 
ATOM     29  N   UNL     1      45.474   3.568   8.251  0.00  0.00    +0.000 NA
ATOM     30  C   UNL     1      45.422   4.541   9.151  0.00  0.00    +0.000 A 
ATOM     31  C   UNL     1      44.816   4.389  10.398  0.00  0.00    +0.000 A 
BRANCH  30  32
ATOM     32  O   UNL     1      46.044   5.686   8.757  0.00  0.00    +0.000 OA
ATOM     33  H   UNL     1      46.466   5.414   7.918  0.00  0.00    +0.000 HD
ENDBRANCH  30  32
ENDBRANCH  20  23
ENDBRANCH  18  19
ENDBRANCH   4  18
TORSDOF 8
ENDMDL
