MODEL 1
REMARK VINA RESULT:    -7.747      0.000      0.000
REMARK INTER + INTRA:         -12.250
REMARK INTER:                 -10.918
REMARK INTRA:                  -1.332
REMARK UNBOUND:                -1.332
REMARK  Name = 
REMARK  9 active torsions:
REMARK  status: ('A' for Active; 'I' for Inactive)
REMARK    1  A    between atoms: C_1  and  C_2
REMARK    2  A    between atoms: C_2  and  N_3
REMARK    3  A    between atoms: C_2  and  C_11
REMARK    4  A    between atoms: N_3  and  C_4
REMARK    5  A    between atoms: C_4  and  C_5
REMARK    6  A    between atoms: C_14  and  C_15
REMARK    7  A    between atoms: C_15  and  N_16
REMARK    8  A    between atoms: N_16  and  C_17
REMARK    9  A    between atoms: C_18  and  C_20
REMARK                            x       y       z     vdW  Elec       q    Type
REMARK                         _______ _______ _______ _____ _____    ______ ____
ROOT
ATOM      1  C   UNL     1      45.498   4.673  12.144  0.00  0.00    +0.000 A 
ATOM      2  C   UNL     1      45.893   5.810  11.418  0.00  0.00    +0.000 A 
ATOM      3  C   UNL     1      46.924   6.631  11.867  0.00  0.00    +0.000 A 
ATOM      4  C   UNL     1      47.644   6.299  13.019  0.00  0.00    +0.000 A 
ATOM      5  C   UNL     1      47.252   5.171  13.754  0.00  0.00    +0.000 A 
ATOM      6  C   UNL     1      46.180   4.376  13.330  0.00  0.00    +0.000 A 
ENDROOT
BRANCH   1   8
ATOM      7  C   UNL     1      43.241   4.765  10.951  0.00  0.00    +0.000 C 
ATOM      8  C   UNL     1      44.281   3.891  11.666  0.00  0.00    +0.000 C 
BRANCH   8   9
ATOM      9  N   UNL     1      44.650   2.784  10.767  0.00  0.00    +0.000 NA
ATOM     10  H   UNL     1      44.130   1.952  11.035  0.00  0.00    +0.000 HD
BRANCH   9  11
ATOM     11  C   UNL     1      44.360   3.075   9.360  0.00  0.00    +0.000 C 
BRANCH  11  12
ATOM     12  C   UNL     1      45.501   2.668   8.467  0.00  0.00    +0.000 A 
ATOM     13  C   UNL     1      46.185   3.625   7.711  0.00  0.00    +0.000 A 
ATOM     14  C   UNL     1      47.236   3.204   6.907  0.00  0.00    +0.000 A 
ATOM     15  N   UNL     1      47.638   1.920   6.814  0.00  0.00    +0.000 NA
ATOM     16  C   UNL     1      46.963   1.015   7.556  0.00  0.00    +0.000 A 
ATOM     17  C   UNL     1      45.903   1.335   8.389  0.00  0.00    +0.000 A 
ENDBRANCH  11  12
ENDBRANCH   9  11
ENDBRANCH   8   9
ENDBRANCH   1   8
BRANCH   4  18
ATOM     18  C   UNL     1      48.841   7.129  13.416  0.00  0.00    +0.000 C 
BRANCH  18  19
ATOM     19  N   UNL     1      48.731   7.735  14.739  0.00  0.00    +0.000 N 
ATOM     20  C   UNL     1      47.703   8.751  14.898  0.00  0.00    +0.000 C 
ATOM     21  C   UNL     1      49.533   7.213  15.763  0.00  0.00    +0.000 C 
ATOM     22  O   UNL     1      50.378   6.349  15.536  0.00  0.00    +0.000 OA
BRANCH  21  23
ATOM     23  C   UNL     1      49.310   7.649  17.149  0.00  0.00    +0.000 A 
ATOM     24  C   UNL     1      49.677   8.890  17.648  0.00  0.00    +0.000 A 
ATOM     25  S   UNL     1      49.212   9.138  19.272  0.00  0.00    +0.000 S 
ATOM     26  C   UNL     1      48.388   7.649  19.318  0.00  0.00    +0.000 A 
ATOM     27  N   UNL     1      47.674   7.275  20.415  0.00  0.00    +0.000 NA
ATOM     28  C   UNL     1      47.048   6.154  20.278  0.00  0.00    +0.000 A 
ATOM     29  N   UNL     1      47.097   5.359  19.163  0.00  0.00    +0.000 N 
ATOM     30  C   UNL     1      47.910   5.632  18.084  0.00  0.00    +0.000 A 
ATOM     31  O   UNL     1      48.104   4.791  17.213  0.00  0.00    +0.000 OA
ATOM     32  C   UNL     1      48.541   6.938  18.143  0.00  0.00    +0.000 A 
ATOM     33  H   UNL     1      46.632   4.462  19.147  0.00  0.00    +0.000 HD
ENDBRANCH  21  23
ENDBRANCH  18  19
ENDBRANCH   4  18
TORSDOF 7
ENDMDL
MODEL 2
REMARK VINA RESULT:    -7.301      1.546      2.120
REMARK INTER + INTRA:         -11.620
REMARK INTER:                 -10.491
REMARK INTRA:                  -1.129
REMARK UNBOUND:                -1.332
REMARK  Name = 
REMARK  9 active torsions:
REMARK  status: ('A' for Active; 'I' for Inactive)
REMARK    1  A    between atoms: C_1  and  C_2
REMARK    2  A    between atoms: C_2  and  N_3
REMARK    3  A    between atoms: C_2  and  C_11
REMARK    4  A    between atoms: N_3  and  C_4
REMARK    5  A    between atoms: C_4  and  C_5
REMARK    6  A    between atoms: C_14  and  C_15
REMARK    7  A    between atoms: C_15  and  N_16
REMARK    8  A    between atoms: N_16  and  C_17
REMARK    9  A    between atoms: C_18  and  C_20
REMARK                            x       y       z     vdW  Elec       q    Type
REMARK                         _______ _______ _______ _____ _____    ______ ____
ROOT
ATOM      1  C   UNL     1      46.002   5.458  11.770  0.00  0.00    +0.000 A 
ATOM      2  C   UNL     1      46.728   6.589  11.358  0.00  0.00    +0.000 A 
ATOM      3  C   UNL     1      47.718   7.145  12.165  0.00  0.00    +0.000 A 
ATOM      4  C   UNL     1      48.065   6.543  13.378  0.00  0.00    +0.000 A 
ATOM      5  C   UNL     1      47.341   5.419  13.801  0.00  0.00    +0.000 A 
ATOM      6  C   UNL     1      46.311   4.892  13.014  0.00  0.00    +0.000 A 
ENDROOT
BRANCH   1   8
ATOM      7  C   UNL     1      43.572   5.813  11.069  0.00  0.00    +0.000 C 
ATOM      8  C   UNL     1      44.848   4.977  10.901  0.00  0.00    +0.000 C 
BRANCH   8   9
ATOM      9  N   UNL     1      45.201   4.958   9.470  0.00  0.00    +0.000 NA
ATOM     10  H   UNL     1      46.214   4.930   9.379  0.00  0.00    +0.000 HD
BRANCH   9  11
ATOM     11  C   UNL     1      44.642   3.804   8.763  0.00  0.00    +0.000 C 
BRANCH  11  12
ATOM     12  C   UNL     1      45.721   2.972   8.124  0.00  0.00    +0.000 A 
ATOM     13  C   UNL     1      46.675   3.566   7.292  0.00  0.00    +0.000 A 
ATOM     14  C   UNL     1      47.656   2.759   6.732  0.00  0.00    +0.000 A 
ATOM     15  N   UNL     1      47.744   1.430   6.946  0.00  0.00    +0.000 NA
ATOM     16  C   UNL     1      46.813   0.881   7.755  0.00  0.00    +0.000 A 
ATOM     17  C   UNL     1      45.796   1.599   8.363  0.00  0.00    +0.000 A 
ENDBRANCH  11  12
ENDBRANCH   9  11
ENDBRANCH   8   9
ENDBRANCH   1   8
BRANCH   4  18
ATOM     18  C   UNL     1      49.229   7.085  14.174  0.00  0.00    +0.000 C 
BRANCH  18  19
ATOM     19  N   UNL     1      48.905   7.393  15.563  0.00  0.00    +0.000 N 
ATOM     20  C   UNL     1      48.132   8.603  15.792  0.00  0.00    +0.000 C 
ATOM     21  C   UNL     1      49.258   6.449  16.538  0.00  0.00    +0.000 C 
ATOM     22  O   UNL     1      49.913   5.449  16.252  0.00  0.00    +0.000 OA
BRANCH  21  23
ATOM     23  C   UNL     1      48.773   6.617  17.916  0.00  0.00    +0.000 A 
ATOM     24  C   UNL     1      47.713   5.913  18.465  0.00  0.00    +0.000 A 
ATOM     25  S   UNL     1      47.439   6.266  20.113  0.00  0.00    +0.000 S 
ATOM     26  C   UNL     1      48.812   7.269  20.181  0.00  0.00    +0.000 A 
ATOM     27  N   UNL     1      49.213   7.833  21.353  0.00  0.00    +0.000 NA
ATOM     28  C   UNL     1      50.308   8.512  21.263  0.00  0.00    +0.000 A 
ATOM     29  N   UNL     1      51.017   8.706  20.107  0.00  0.00    +0.000 N 
ATOM     30  C   UNL     1      50.579   8.268  18.876  0.00  0.00    +0.000 A 
ATOM     31  O   UNL     1      51.112   8.655  17.843  0.00  0.00    +0.000 OA
ATOM     32  C   UNL     1      49.416   7.402  18.945  0.00  0.00    +0.000 A 
ATOM     33  H   UNL     1      51.833   9.302  20.095  0.00  0.00    +0.000 HD
ENDBRANCH  21  23
ENDBRANCH  18  19
ENDBRANCH   4  18
TORSDOF 7
ENDMDL
MODEL 3
REMARK VINA RESULT:    -7.233      1.614      2.576
REMARK INTER + INTRA:         -11.525
REMARK INTER:                 -10.059
REMARK INTRA:                  -1.465
REMARK UNBOUND:                -1.332
REMARK  Name = 
REMARK  9 active torsions:
REMARK  status: ('A' for Active; 'I' for Inactive)
REMARK    1  A    between atoms: C_1  and  C_2
REMARK    2  A    between atoms: C_2  and  N_3
REMARK    3  A    between atoms: C_2  and  C_11
REMARK    4  A    between atoms: N_3  and  C_4
REMARK    5  A    between atoms: C_4  and  C_5
REMARK    6  A    between atoms: C_14  and  C_15
REMARK    7  A    between atoms: C_15  and  N_16
REMARK    8  A    between atoms: N_16  and  C_17
REMARK    9  A    between atoms: C_18  and  C_20
REMARK                            x       y       z     vdW  Elec       q    Type
REMARK                         _______ _______ _______ _____ _____    ______ ____
ROOT
ATOM      1  C   UNL     1      45.043   5.017  11.978  0.00  0.00    +0.000 A 
ATOM      2  C   UNL     1      45.725   5.960  11.189  0.00  0.00    +0.000 A 
ATOM      3  C   UNL     1      46.881   6.585  11.650  0.00  0.00    +0.000 A 
ATOM      4  C   UNL     1      47.434   6.231  12.885  0.00  0.00    +0.000 A 
ATOM      5  C   UNL     1      46.756   5.297  13.681  0.00  0.00    +0.000 A 
ATOM      6  C   UNL     1      45.565   4.709  13.240  0.00  0.00    +0.000 A 
ENDROOT
BRANCH   1   8
ATOM      7  C   UNL     1      42.546   5.445  11.646  0.00  0.00    +0.000 C 
ATOM      8  C   UNL     1      43.716   4.467  11.470  0.00  0.00    +0.000 C 
BRANCH   8   9
ATOM      9  N   UNL     1      43.784   4.080  10.050  0.00  0.00    +0.000 NA
ATOM     10  H   UNL     1      44.385   4.736   9.555  0.00  0.00    +0.000 HD
BRANCH   9  11
ATOM     11  C   UNL     1      44.316   2.729   9.854  0.00  0.00    +0.000 C 
BRANCH  11  12
ATOM     12  C   UNL     1      45.370   2.701   8.780  0.00  0.00    +0.000 A 
ATOM     13  C   UNL     1      45.772   3.883   8.151  0.00  0.00    +0.000 A 
ATOM     14  C   UNL     1      46.753   3.809   7.171  0.00  0.00    +0.000 A 
ATOM     15  N   UNL     1      47.344   2.658   6.791  0.00  0.00    +0.000 NA
ATOM     16  C   UNL     1      46.941   1.531   7.415  0.00  0.00    +0.000 A 
ATOM     17  C   UNL     1      45.972   1.500   8.405  0.00  0.00    +0.000 A 
ENDBRANCH  11  12
ENDBRANCH   9  11
ENDBRANCH   8   9
ENDBRANCH   1   8
BRANCH   4  18
ATOM     18  C   UNL     1      48.758   6.823  13.307  0.00  0.00    +0.000 C 
BRANCH  18  19
ATOM     19  N   UNL     1      48.675   7.681  14.485  0.00  0.00    +0.000 N 
ATOM     20  C   UNL     1      47.828   8.856  14.368  0.00  0.00    +0.000 C 
ATOM     21  C   UNL     1      49.315   7.244  15.653  0.00  0.00    +0.000 C 
ATOM     22  O   UNL     1      50.013   6.232  15.661  0.00  0.00    +0.000 OA
BRANCH  21  23
ATOM     23  C   UNL     1      49.090   7.966  16.913  0.00  0.00    +0.000 A 
ATOM     24  C   UNL     1      48.250   7.530  17.927  0.00  0.00    +0.000 A 
ATOM     25  S   UNL     1      48.260   8.541  19.304  0.00  0.00    +0.000 S 
ATOM     26  C   UNL     1      49.486   9.518  18.643  0.00  0.00    +0.000 A 
ATOM     27  N   UNL     1      50.034  10.537  19.359  0.00  0.00    +0.000 NA
ATOM     28  C   UNL     1      50.999  11.146  18.755  0.00  0.00    +0.000 A 
ATOM     29  N   UNL     1      51.442  10.853  17.492  0.00  0.00    +0.000 N 
ATOM     30  C   UNL     1      50.831   9.921  16.681  0.00  0.00    +0.000 A 
ATOM     31  O   UNL     1      51.103   9.849  15.488  0.00  0.00    +0.000 OA
ATOM     32  C   UNL     1      49.818   9.132  17.358  0.00  0.00    +0.000 A 
ATOM     33  H   UNL     1      52.161  11.411  17.053  0.00  0.00    +0.000 HD
ENDBRANCH  21  23
ENDBRANCH  18  19
ENDBRANCH   4  18
TORSDOF 7
ENDMDL
MODEL 4
REMARK VINA RESULT:    -7.111      3.446      5.158
REMARK INTER + INTRA:         -11.353
REMARK INTER:                 -10.127
REMARK INTRA:                  -1.226
REMARK UNBOUND:                -1.332
REMARK  Name = 
REMARK  9 active torsions:
REMARK  status: ('A' for Active; 'I' for Inactive)
REMARK    1  A    between atoms: C_1  and  C_2
REMARK    2  A    between atoms: C_2  and  N_3
REMARK    3  A    between atoms: C_2  and  C_11
REMARK    4  A    between atoms: N_3  and  C_4
REMARK    5  A    between atoms: C_4  and  C_5
REMARK    6  A    between atoms: C_14  and  C_15
REMARK    7  A    between atoms: C_15  and  N_16
REMARK    8  A    between atoms: N_16  and  C_17
REMARK    9  A    between atoms: C_18  and  C_20
REMARK                            x       y       z     vdW  Elec       q    Type
REMARK                         _______ _______ _______ _____ _____    ______ ____
ROOT
ATOM      1  C   UNL     1      45.818   5.646  11.584  0.00  0.00    +0.000 A 
ATOM      2  C   UNL     1      45.730   7.029  11.347  0.00  0.00    +0.000 A 
ATOM      3  C   UNL     1      46.256   7.951  12.248  0.00  0.00    +0.000 A 
ATOM      4  C   UNL     1      46.954   7.517  13.379  0.00  0.00    +0.000 A 
ATOM      5  C   UNL     1      47.040   6.140  13.628  0.00  0.00    +0.000 A 
ATOM      6  C   UNL     1      46.465   5.215  12.749  0.00  0.00    +0.000 A 
ENDROOT
BRANCH   1   8
ATOM      7  C   UNL     1      43.582   4.736  10.751  0.00  0.00    +0.000 C 
ATOM      8  C   UNL     1      45.111   4.697  10.626  0.00  0.00    +0.000 C 
BRANCH   8   9
ATOM      9  N   UNL     1      45.465   4.962   9.220  0.00  0.00    +0.000 NA
ATOM     10  H   UNL     1      46.475   4.904   9.116  0.00  0.00    +0.000 HD
BRANCH   9  11
ATOM     11  C   UNL     1      44.850   4.010   8.291  0.00  0.00    +0.000 C 
BRANCH  11  12
ATOM     12  C   UNL     1      45.869   3.062   7.718  0.00  0.00    +0.000 A 
ATOM     13  C   UNL     1      46.019   1.777   8.247  0.00  0.00    +0.000 A 
ATOM     14  C   UNL     1      46.967   0.936   7.680  0.00  0.00    +0.000 A 
ATOM     15  N   UNL     1      47.753   1.287   6.642  0.00  0.00    +0.000 NA
ATOM     16  C   UNL     1      47.587   2.532   6.147  0.00  0.00    +0.000 A 
ATOM     17  C   UNL     1      46.669   3.445   6.641  0.00  0.00    +0.000 A 
ENDBRANCH  11  12
ENDBRANCH   9  11
ENDBRANCH   8   9
ENDBRANCH   1   8
BRANCH   4  18
ATOM     18  C   UNL     1      47.630   8.530  14.273  0.00  0.00    +0.000 C 
BRANCH  18  19
ATOM     19  N   UNL     1      49.063   8.669  14.035  0.00  0.00    +0.000 N 
ATOM     20  C   UNL     1      49.915   7.648  14.624  0.00  0.00    +0.000 C 
ATOM     21  C   UNL     1      49.484   9.691  13.173  0.00  0.00    +0.000 C 
ATOM     22  O   UNL     1      48.689  10.512  12.719  0.00  0.00    +0.000 OA
BRANCH  21  23
ATOM     23  C   UNL     1      50.888   9.742  12.744  0.00  0.00    +0.000 A 
ATOM     24  C   UNL     1      51.840  10.599  13.276  0.00  0.00    +0.000 A 
ATOM     25  S   UNL     1      53.405  10.366  12.632  0.00  0.00    +0.000 S 
ATOM     26  C   UNL     1      52.888   9.023  11.723  0.00  0.00    +0.000 A 
ATOM     27  N   UNL     1      53.771   8.286  10.996  0.00  0.00    +0.000 NA
ATOM     28  C   UNL     1      53.246   7.259  10.414  0.00  0.00    +0.000 A 
ATOM     29  N   UNL     1      51.919   6.924  10.464  0.00  0.00    +0.000 N 
ATOM     30  C   UNL     1      50.968   7.713  11.075  0.00  0.00    +0.000 A 
ATOM     31  O   UNL     1      49.773   7.507  10.903  0.00  0.00    +0.000 OA
ATOM     32  C   UNL     1      51.527   8.813  11.840  0.00  0.00    +0.000 A 
ATOM     33  H   UNL     1      51.563   6.141   9.933  0.00  0.00    +0.000 HD
ENDBRANCH  21  23
ENDBRANCH  18  19
ENDBRANCH   4  18
TORSDOF 7
ENDMDL
MODEL 5
REMARK VINA RESULT:    -7.100      1.602      1.963
REMARK INTER + INTRA:         -11.337
REMARK INTER:                 -10.202
REMARK INTRA:                  -1.134
REMARK UNBOUND:                -1.332
REMARK  Name = 
REMARK  9 active torsions:
REMARK  status: ('A' for Active; 'I' for Inactive)
REMARK    1  A    between atoms: C_1  and  C_2
REMARK    2  A    between atoms: C_2  and  N_3
REMARK    3  A    between atoms: C_2  and  C_11
REMARK    4  A    between atoms: N_3  and  C_4
REMARK    5  A    between atoms: C_4  and  C_5
REMARK    6  A    between atoms: C_14  and  C_15
REMARK    7  A    between atoms: C_15  and  N_16
REMARK    8  A    between atoms: N_16  and  C_17
REMARK    9  A    between atoms: C_18  and  C_20
REMARK                            x       y       z     vdW  Elec       q    Type
REMARK                         _______ _______ _______ _____ _____    ______ ____
ROOT
ATOM      1  C   UNL     1      45.729   6.469  11.948  0.00  0.00    +0.000 A 
ATOM      2  C   UNL     1      45.346   7.737  12.419  0.00  0.00    +0.000 A 
ATOM      3  C   UNL     1      46.227   8.536  13.143  0.00  0.00    +0.000 A 
ATOM      4  C   UNL     1      47.547   8.123  13.354  0.00  0.00    +0.000 A 
ATOM      5  C   UNL     1      47.936   6.857  12.895  0.00  0.00    +0.000 A 
ATOM      6  C   UNL     1      47.033   6.032  12.214  0.00  0.00    +0.000 A 
ENDROOT
BRANCH   1   8
ATOM      7  C   UNL     1      43.253   6.145  11.411  0.00  0.00    +0.000 C 
ATOM      8  C   UNL     1      44.679   5.594  11.277  0.00  0.00    +0.000 C 
BRANCH   8   9
ATOM      9  N   UNL     1      44.961   5.388   9.845  0.00  0.00    +0.000 NA
ATOM     10  H   UNL     1      45.968   5.326   9.711  0.00  0.00    +0.000 HD
BRANCH   9  11
ATOM     11  C   UNL     1      44.350   4.166   9.316  0.00  0.00    +0.000 C 
BRANCH  11  12
ATOM     12  C   UNL     1      45.350   3.327   8.568  0.00  0.00    +0.000 A 
ATOM     13  C   UNL     1      45.410   1.945   8.773  0.00  0.00    +0.000 A 
ATOM     14  C   UNL     1      46.345   1.212   8.055  0.00  0.00    +0.000 A 
ATOM     15  N   UNL     1      47.200   1.756   7.165  0.00  0.00    +0.000 NA
ATOM     16  C   UNL     1      47.120   3.092   6.983  0.00  0.00    +0.000 A 
ATOM     17  C   UNL     1      46.223   3.911   7.650  0.00  0.00    +0.000 A 
ENDBRANCH  11  12
ENDBRANCH   9  11
ENDBRANCH   8   9
ENDBRANCH   1   8
BRANCH   4  18
ATOM     18  C   UNL     1      48.523   9.060  14.026  0.00  0.00    +0.000 C 
BRANCH  18  19
ATOM     19  N   UNL     1      48.846   8.693  15.401  0.00  0.00    +0.000 N 
ATOM     20  C   UNL     1      47.898   9.112  16.421  0.00  0.00    +0.000 C 
ATOM     21  C   UNL     1      49.967   7.876  15.610  0.00  0.00    +0.000 C 
ATOM     22  O   UNL     1      50.715   7.568  14.685  0.00  0.00    +0.000 OA
BRANCH  21  23
ATOM     23  C   UNL     1      50.212   7.315  16.946  0.00  0.00    +0.000 A 
ATOM     24  C   UNL     1      50.969   7.934  17.929  0.00  0.00    +0.000 A 
ATOM     25  S   UNL     1      51.005   7.077  19.406  0.00  0.00    +0.000 S 
ATOM     26  C   UNL     1      49.901   5.921  18.822  0.00  0.00    +0.000 A 
ATOM     27  N   UNL     1      49.426   4.934  19.628  0.00  0.00    +0.000 NA
ATOM     28  C   UNL     1      48.545   4.173  19.068  0.00  0.00    +0.000 A 
ATOM     29  N   UNL     1      48.124   4.288  17.769  0.00  0.00    +0.000 N 
ATOM     30  C   UNL     1      48.673   5.186  16.879  0.00  0.00    +0.000 A 
ATOM     31  O   UNL     1      48.440   5.106  15.678  0.00  0.00    +0.000 OA
ATOM     32  C   UNL     1      49.581   6.137  17.494  0.00  0.00    +0.000 A 
ATOM     33  H   UNL     1      47.477   3.620  17.374  0.00  0.00    +0.000 HD
ENDBRANCH  21  23
ENDBRANCH  18  19
ENDBRANCH   4  18
TORSDOF 7
ENDMDL
MODEL 6
REMARK VINA RESULT:    -7.036      2.257      2.835
REMARK INTER + INTRA:         -11.246
REMARK INTER:                  -9.856
REMARK INTRA:                  -1.390
REMARK UNBOUND:                -1.332
REMARK  Name = 
REMARK  9 active torsions:
REMARK  status: ('A' for Active; 'I' for Inactive)
REMARK    1  A    between atoms: C_1  and  C_2
REMARK    2  A    between atoms: C_2  and  N_3
REMARK    3  A    between atoms: C_2  and  C_11
REMARK    4  A    between atoms: N_3  and  C_4
REMARK    5  A    between atoms: C_4  and  C_5
REMARK    6  A    between atoms: C_14  and  C_15
REMARK    7  A    between atoms: C_15  and  N_16
REMARK    8  A    between atoms: N_16  and  C_17
REMARK    9  A    between atoms: C_18  and  C_20
REMARK                            x       y       z     vdW  Elec       q    Type
REMARK                         _______ _______ _______ _____ _____    ______ ____
ROOT
ATOM      1  C   UNL     1      45.295   4.852  12.113  0.00  0.00    +0.000 A 
ATOM      2  C   UNL     1      44.999   6.001  11.359  0.00  0.00    +0.000 A 
ATOM      3  C   UNL     1      45.732   7.175  11.514  0.00  0.00    +0.000 A 
ATOM      4  C   UNL     1      46.834   7.213  12.375  0.00  0.00    +0.000 A 
ATOM      5  C   UNL     1      47.132   6.075  13.136  0.00  0.00    +0.000 A 
ATOM      6  C   UNL     1      46.361   4.912  13.019  0.00  0.00    +0.000 A 
ENDROOT
BRANCH   1   8
ATOM      7  C   UNL     1      42.960   4.004  11.516  0.00  0.00    +0.000 C 
ATOM      8  C   UNL     1      44.375   3.644  11.989  0.00  0.00    +0.000 C 
BRANCH   8   9
ATOM      9  N   UNL     1      44.920   2.623  11.078  0.00  0.00    +0.000 NA
ATOM     10  H   UNL     1      44.724   1.700  11.459  0.00  0.00    +0.000 HD
BRANCH   9  11
ATOM     11  C   UNL     1      44.343   2.697   9.733  0.00  0.00    +0.000 C 
BRANCH  11  12
ATOM     12  C   UNL     1      45.410   2.648   8.671  0.00  0.00    +0.000 A 
ATOM     13  C   UNL     1      46.041   1.441   8.356  0.00  0.00    +0.000 A 
ATOM     14  C   UNL     1      47.013   1.444   7.365  0.00  0.00    +0.000 A 
ATOM     15  N   UNL     1      47.383   2.547   6.684  0.00  0.00    +0.000 NA
ATOM     16  C   UNL     1      46.757   3.700   7.005  0.00  0.00    +0.000 A 
ATOM     17  C   UNL     1      45.774   3.801   7.976  0.00  0.00    +0.000 A 
ENDBRANCH  11  12
ENDBRANCH   9  11
ENDBRANCH   8   9
ENDBRANCH   1   8
BRANCH   4  18
ATOM     18  C   UNL     1      47.694   8.454  12.430  0.00  0.00    +0.000 C 
BRANCH  18  19
ATOM     19  N   UNL     1      48.983   8.253  13.085  0.00  0.00    +0.000 N 
ATOM     20  C   UNL     1      50.050   7.715  12.257  0.00  0.00    +0.000 C 
ATOM     21  C   UNL     1      49.117   8.699  14.407  0.00  0.00    +0.000 C 
ATOM     22  O   UNL     1      48.156   9.143  15.033  0.00  0.00    +0.000 OA
BRANCH  21  23
ATOM     23  C   UNL     1      50.445   8.705  15.036  0.00  0.00    +0.000 A 
ATOM     24  C   UNL     1      51.328   9.774  14.993  0.00  0.00    +0.000 A 
ATOM     25  S   UNL     1      52.759   9.515  15.888  0.00  0.00    +0.000 S 
ATOM     26  C   UNL     1      52.187   8.022  16.472  0.00  0.00    +0.000 A 
ATOM     27  N   UNL     1      52.901   7.303  17.379  0.00  0.00    +0.000 NA
ATOM     28  C   UNL     1      52.311   6.227  17.780  0.00  0.00    +0.000 A 
ATOM     29  N   UNL     1      51.092   5.788  17.333  0.00  0.00    +0.000 N 
ATOM     30  C   UNL     1      50.395   6.413  16.321  0.00  0.00    +0.000 A 
ATOM     31  O   UNL     1      49.432   5.871  15.791  0.00  0.00    +0.000 OA
ATOM     32  C   UNL     1      50.963   7.688  15.922  0.00  0.00    +0.000 A 
ATOM     33  H   UNL     1      50.715   4.903  17.643  0.00  0.00    +0.000 HD
ENDBRANCH  21  23
ENDBRANCH  18  19
ENDBRANCH   4  18
TORSDOF 7
ENDMDL
MODEL 7
REMARK VINA RESULT:    -6.949      3.885      5.840
REMARK INTER + INTRA:         -11.124
REMARK INTER:                 -10.144
REMARK INTRA:                  -0.980
REMARK UNBOUND:                -1.332
REMARK  Name = 
REMARK  9 active torsions:
REMARK  status: ('A' for Active; 'I' for Inactive)
REMARK    1  A    between atoms: C_1  and  C_2
REMARK    2  A    between atoms: C_2  and  N_3
REMARK    3  A    between atoms: C_2  and  C_11
REMARK    4  A    between atoms: N_3  and  C_4
REMARK    5  A    between atoms: C_4  and  C_5
REMARK    6  A    between atoms: C_14  and  C_15
REMARK    7  A    between atoms: C_15  and  N_16
REMARK    8  A    between atoms: N_16  and  C_17
REMARK    9  A    between atoms: C_18  and  C_20
REMARK                            x       y       z     vdW  Elec       q    Type
REMARK                         _______ _______ _______ _____ _____    ______ ____
ROOT
ATOM      1  C   UNL     1      45.292   4.651  12.476  0.00  0.00    +0.000 A 
ATOM      2  C   UNL     1      45.119   6.012  12.169  0.00  0.00    +0.000 A 
ATOM      3  C   UNL     1      45.989   6.981  12.664  0.00  0.00    +0.000 A 
ATOM      4  C   UNL     1      47.105   6.610  13.420  0.00  0.00    +0.000 A 
ATOM      5  C   UNL     1      47.282   5.256  13.738  0.00  0.00    +0.000 A 
ATOM      6  C   UNL     1      46.377   4.289  13.285  0.00  0.00    +0.000 A 
ENDROOT
BRANCH   1   8
ATOM      7  C   UNL     1      42.976   4.335  11.447  0.00  0.00    +0.000 C 
ATOM      8  C   UNL     1      44.234   3.660  12.011  0.00  0.00    +0.000 C 
BRANCH   8   9
ATOM      9  N   UNL     1      44.754   2.730  10.993  0.00  0.00    +0.000 NA
ATOM     10  H   UNL     1      44.427   1.790  11.205  0.00  0.00    +0.000 HD
BRANCH   9  11
ATOM     11  C   UNL     1      44.320   3.074   9.636  0.00  0.00    +0.000 C 
BRANCH  11  12
ATOM     12  C   UNL     1      45.405   2.811   8.626  0.00  0.00    +0.000 A 
ATOM     13  C   UNL     1      45.933   3.858   7.865  0.00  0.00    +0.000 A 
ATOM     14  C   UNL     1      46.938   3.569   6.952  0.00  0.00    +0.000 A 
ATOM     15  N   UNL     1      47.438   2.332   6.758  0.00  0.00    +0.000 NA
ATOM     16  C   UNL     1      46.914   1.339   7.507  0.00  0.00    +0.000 A 
ATOM     17  C   UNL     1      45.911   1.524   8.445  0.00  0.00    +0.000 A 
ENDBRANCH  11  12
ENDBRANCH   9  11
ENDBRANCH   8   9
ENDBRANCH   1   8
BRANCH   4  18
ATOM     18  C   UNL     1      48.107   7.661  13.835  0.00  0.00    +0.000 C 
BRANCH  18  19
ATOM     19  N   UNL     1      48.665   8.422  12.721  0.00  0.00    +0.000 N 
ATOM     20  C   UNL     1      48.940   7.674  11.504  0.00  0.00    +0.000 C 
ATOM     21  C   UNL     1      48.779   9.810  12.873  0.00  0.00    +0.000 C 
ATOM     22  O   UNL     1      48.522  10.360  13.942  0.00  0.00    +0.000 OA
BRANCH  21  23
ATOM     23  C   UNL     1      49.140  10.637  11.713  0.00  0.00    +0.000 A 
ATOM     24  C   UNL     1      50.426  10.764  11.211  0.00  0.00    +0.000 A 
ATOM     25  S   UNL     1      50.519  11.727   9.804  0.00  0.00    +0.000 S 
ATOM     26  C   UNL     1      48.826  11.894   9.743  0.00  0.00    +0.000 A 
ATOM     27  N   UNL     1      48.221  12.543   8.711  0.00  0.00    +0.000 NA
ATOM     28  C   UNL     1      46.931  12.531   8.766  0.00  0.00    +0.000 A 
ATOM     29  N   UNL     1      46.194  11.962   9.771  0.00  0.00    +0.000 N 
ATOM     30  C   UNL     1      46.764  11.413  10.900  0.00  0.00    +0.000 A 
ATOM     31  O   UNL     1      46.080  11.126  11.875  0.00  0.00    +0.000 OA
ATOM     32  C   UNL     1      48.210  11.300  10.828  0.00  0.00    +0.000 A 
ATOM     33  H   UNL     1      45.187  12.044   9.784  0.00  0.00    +0.000 HD
ENDBRANCH  21  23
ENDBRANCH  18  19
ENDBRANCH   4  18
TORSDOF 7
ENDMDL
MODEL 8
REMARK VINA RESULT:    -6.591      3.675      5.238
REMARK INTER + INTRA:         -10.620
REMARK INTER:                  -9.396
REMARK INTRA:                  -1.224
REMARK UNBOUND:                -1.332
REMARK  Name = 
REMARK  9 active torsions:
REMARK  status: ('A' for Active; 'I' for Inactive)
REMARK    1  A    between atoms: C_1  and  C_2
REMARK    2  A    between atoms: C_2  and  N_3
REMARK    3  A    between atoms: C_2  and  C_11
REMARK    4  A    between atoms: N_3  and  C_4
REMARK    5  A    between atoms: C_4  and  C_5
REMARK    6  A    between atoms: C_14  and  C_15
REMARK    7  A    between atoms: C_15  and  N_16
REMARK    8  A    between atoms: N_16  and  C_17
REMARK    9  A    between atoms: C_18  and  C_20
REMARK                            x       y       z     vdW  Elec       q    Type
REMARK                         _______ _______ _______ _____ _____    ______ ____
ROOT
ATOM      1  C   UNL     1      45.260   4.862  12.354  0.00  0.00    +0.000 A 
ATOM      2  C   UNL     1      44.936   6.182  11.994  0.00  0.00    +0.000 A 
ATOM      3  C   UNL     1      45.676   7.262  12.470  0.00  0.00    +0.000 A 
ATOM      4  C   UNL     1      46.811   7.051  13.260  0.00  0.00    +0.000 A 
ATOM      5  C   UNL     1      47.136   5.739  13.630  0.00  0.00    +0.000 A 
ATOM      6  C   UNL     1      46.361   4.658  13.196  0.00  0.00    +0.000 A 
ENDROOT
BRANCH   1   8
ATOM      7  C   UNL     1      43.079   4.240  11.180  0.00  0.00    +0.000 C 
ATOM      8  C   UNL     1      44.335   3.739  11.906  0.00  0.00    +0.000 C 
BRANCH   8   9
ATOM      9  N   UNL     1      45.019   2.773  11.029  0.00  0.00    +0.000 NA
ATOM     10  H   UNL     1      44.978   1.850  11.456  0.00  0.00    +0.000 HD
BRANCH   9  11
ATOM     11  C   UNL     1      44.417   2.690   9.696  0.00  0.00    +0.000 C 
BRANCH  11  12
ATOM     12  C   UNL     1      45.466   2.638   8.618  0.00  0.00    +0.000 A 
ATOM     13  C   UNL     1      45.851   3.803   7.947  0.00  0.00    +0.000 A 
ATOM     14  C   UNL     1      46.828   3.707   6.965  0.00  0.00    +0.000 A 
ATOM     15  N   UNL     1      47.433   2.551   6.623  0.00  0.00    +0.000 NA
ATOM     16  C   UNL     1      47.046   1.441   7.287  0.00  0.00    +0.000 A 
ATOM     17  C   UNL     1      46.082   1.432   8.282  0.00  0.00    +0.000 A 
ENDBRANCH  11  12
ENDBRANCH   9  11
ENDBRANCH   8   9
ENDBRANCH   1   8
BRANCH   4  18
ATOM     18  C   UNL     1      47.674   8.226  13.655  0.00  0.00    +0.000 C 
BRANCH  18  19
ATOM     19  N   UNL     1      48.736   8.529  12.700  0.00  0.00    +0.000 N 
ATOM     20  C   UNL     1      48.402   9.467  11.641  0.00  0.00    +0.000 C 
ATOM     21  C   UNL     1      50.006   7.991  12.948  0.00  0.00    +0.000 C 
ATOM     22  O   UNL     1      50.198   7.203  13.873  0.00  0.00    +0.000 OA
BRANCH  21  23
ATOM     23  C   UNL     1      51.149   8.431  12.135  0.00  0.00    +0.000 A 
ATOM     24  C   UNL     1      51.567   7.808  10.969  0.00  0.00    +0.000 A 
ATOM     25  S   UNL     1      52.871   8.600  10.201  0.00  0.00    +0.000 S 
ATOM     26  C   UNL     1      52.829   9.874  11.329  0.00  0.00    +0.000 A 
ATOM     27  N   UNL     1      53.644  10.956  11.196  0.00  0.00    +0.000 NA
ATOM     28  C   UNL     1      53.452  11.872  12.085  0.00  0.00    +0.000 A 
ATOM     29  N   UNL     1      52.549  11.790  13.112  0.00  0.00    +0.000 N 
ATOM     30  C   UNL     1      51.800  10.661  13.364  0.00  0.00    +0.000 A 
ATOM     31  O   UNL     1      51.180  10.537  14.414  0.00  0.00    +0.000 OA
ATOM     32  C   UNL     1      51.896   9.653  12.324  0.00  0.00    +0.000 A 
ATOM     33  H   UNL     1      52.494  12.518  13.812  0.00  0.00    +0.000 HD
ENDBRANCH  21  23
ENDBRANCH  18  19
ENDBRANCH   4  18
TORSDOF 7
ENDMDL
MODEL 9
REMARK VINA RESULT:    -6.297      3.549      7.859
REMARK INTER + INTRA:         -10.206
REMARK INTER:                  -7.962
REMARK INTRA:                  -2.244
REMARK UNBOUND:                -1.332
REMARK  Name = 
REMARK  9 active torsions:
REMARK  status: ('A' for Active; 'I' for Inactive)
REMARK    1  A    between atoms: C_1  and  C_2
REMARK    2  A    between atoms: C_2  and  N_3
REMARK    3  A    between atoms: C_2  and  C_11
REMARK    4  A    between atoms: N_3  and  C_4
REMARK    5  A    between atoms: C_4  and  C_5
REMARK    6  A    between atoms: C_14  and  C_15
REMARK    7  A    between atoms: C_15  and  N_16
REMARK    8  A    between atoms: N_16  and  C_17
REMARK    9  A    between atoms: C_18  and  C_20
REMARK                            x       y       z     vdW  Elec       q    Type
REMARK                         _______ _______ _______ _____ _____    ______ ____
ROOT
ATOM      1  C   UNL     1      51.319   7.091  16.584  0.00  0.00    +0.000 A 
ATOM      2  C   UNL     1      49.994   7.539  16.726  0.00  0.00    +0.000 A 
ATOM      3  C   UNL     1      49.361   8.254  15.712  0.00  0.00    +0.000 A 
ATOM      4  C   UNL     1      50.009   8.479  14.493  0.00  0.00    +0.000 A 
ATOM      5  C   UNL     1      51.333   8.043  14.346  0.00  0.00    +0.000 A 
ATOM      6  C   UNL     1      51.987   7.371  15.386  0.00  0.00    +0.000 A 
ENDROOT
BRANCH   1   8
ATOM      7  C   UNL     1      51.641   7.088  19.118  0.00  0.00    +0.000 C 
ATOM      8  C   UNL     1      51.994   6.428  17.778  0.00  0.00    +0.000 C 
BRANCH   8   9
ATOM      9  N   UNL     1      51.672   4.994  17.872  0.00  0.00    +0.000 NA
ATOM     10  H   UNL     1      52.516   4.479  18.114  0.00  0.00    +0.000 HD
BRANCH   9  11
ATOM     11  C   UNL     1      50.651   4.706  18.883  0.00  0.00    +0.000 C 
BRANCH  11  12
ATOM     12  C   UNL     1      49.366   4.240  18.253  0.00  0.00    +0.000 A 
ATOM     13  C   UNL     1      48.175   4.936  18.477  0.00  0.00    +0.000 A 
ATOM     14  C   UNL     1      47.016   4.473  17.868  0.00  0.00    +0.000 A 
ATOM     15  N   UNL     1      46.973   3.387  17.069  0.00  0.00    +0.000 NA
ATOM     16  C   UNL     1      48.137   2.734  16.867  0.00  0.00    +0.000 A 
ATOM     17  C   UNL     1      49.346   3.116  17.426  0.00  0.00    +0.000 A 
ENDBRANCH  11  12
ENDBRANCH   9  11
ENDBRANCH   8   9
ENDBRANCH   1   8
BRANCH   4  18
ATOM     18  C   UNL     1      49.260   9.141  13.361  0.00  0.00    +0.000 C 
BRANCH  18  19
ATOM     19  N   UNL     1      48.316   8.260  12.680  0.00  0.00    +0.000 N 
ATOM     20  C   UNL     1      48.868   7.403  11.643  0.00  0.00    +0.000 C 
ATOM     21  C   UNL     1      46.997   8.227  13.155  0.00  0.00    +0.000 C 
ATOM     22  O   UNL     1      46.617   8.991  14.041  0.00  0.00    +0.000 OA
BRANCH  21  23
ATOM     23  C   UNL     1      46.068   7.212  12.638  0.00  0.00    +0.000 A 
ATOM     24  C   UNL     1      45.095   7.456  11.681  0.00  0.00    +0.000 A 
ATOM     25  S   UNL     1      44.225   6.060  11.221  0.00  0.00    +0.000 S 
ATOM     26  C   UNL     1      45.212   5.063  12.185  0.00  0.00    +0.000 A 
ATOM     27  N   UNL     1      45.060   3.711  12.182  0.00  0.00    +0.000 NA
ATOM     28  C   UNL     1      45.923   3.082  12.909  0.00  0.00    +0.000 A 
ATOM     29  N   UNL     1      46.897   3.682  13.664  0.00  0.00    +0.000 N 
ATOM     30  C   UNL     1      47.002   5.049  13.802  0.00  0.00    +0.000 A 
ATOM     31  O   UNL     1      47.728   5.542  14.659  0.00  0.00    +0.000 OA
ATOM     32  C   UNL     1      46.130   5.796  12.914  0.00  0.00    +0.000 A 
ATOM     33  H   UNL     1      47.500   3.133  14.260  0.00  0.00    +0.000 HD
ENDBRANCH  21  23
ENDBRANCH  18  19
ENDBRANCH   4  18
TORSDOF 7
ENDMDL
