MODEL 1
REMARK VINA RESULT:    -7.507      0.000      0.000
REMARK INTER + INTRA:         -11.397
REMARK INTER:                 -10.580
REMARK INTRA:                  -0.817
REMARK UNBOUND:                -0.817
REMARK  Name = 
REMARK  8 active torsions:
REMARK  status: ('A' for Active; 'I' for Inactive)
REMARK    1  A    between atoms: C_1  and  S_2
REMARK    2  A    between atoms: S_2  and  N_5
REMARK    3  A    between atoms: N_5  and  C_6
REMARK    4  A    between atoms: C_10  and  O_11
REMARK    5  A    between atoms: O_11  and  C_12
REMARK    6  A    between atoms: C_15  and  C_16
REMARK    7  A    between atoms: C_16  and  N_17
REMARK    8  A    between atoms: C_18  and  C_20
REMARK                            x       y       z     vdW  Elec       q    Type
REMARK                         _______ _______ _______ _____ _____    ______ ____
ROOT
ATOM      1  C   UNL     1      49.446   8.291  15.671  0.00  0.00    +0.000 A 
ATOM      2  C   UNL     1      48.482   9.175  15.225  0.00  0.00    +0.000 A 
ATOM      3  C   UNL     1      47.971   9.003  13.940  0.00  0.00    +0.000 A 
ATOM      4  C   UNL     1      48.457   7.963  13.160  0.00  0.00    +0.000 A 
ATOM      5  N   UNL     1      49.386   7.103  13.641  0.00  0.00    +0.000 NA
ATOM      6  N   UNL     1      49.869   7.258  14.911  0.00  0.00    +0.000 NA
ENDROOT
BRANCH   1   7
ATOM      7  O   UNL     1      49.947   8.477  16.956  0.00  0.00    +0.000 OA
BRANCH   7  12
ATOM      8  C   UNL     1      47.746   6.119  18.674  0.00  0.00    +0.000 A 
ATOM      9  C   UNL     1      47.962   6.442  20.014  0.00  0.00    +0.000 A 
ATOM     10  C   UNL     1      48.824   7.490  20.344  0.00  0.00    +0.000 A 
ATOM     11  C   UNL     1      49.476   8.201  19.335  0.00  0.00    +0.000 A 
ATOM     12  C   UNL     1      49.310   7.835  17.996  0.00  0.00    +0.000 A 
ATOM     13  C   UNL     1      48.411   6.817  17.664  0.00  0.00    +0.000 A 
BRANCH   8  14
ATOM     14  N   UNL     1      46.845   5.074  18.311  0.00  0.00    +0.000 N 
ATOM     15  H   UNL     1      45.940   5.375  17.946  0.00  0.00    +0.000 HD
BRANCH  14  17
ATOM     16  C   UNL     1      48.868   3.314  18.328  0.00  0.00    +0.000 C 
ATOM     17  S   UNL     1      47.443   3.795  17.378  0.00  0.00    +0.000 S 
ATOM     18  O   UNL     1      47.876   4.272  16.082  0.00  0.00    +0.000 OA
ATOM     19  O   UNL     1      46.464   2.739  17.497  0.00  0.00    +0.000 OA
ENDBRANCH  14  17
ENDBRANCH   8  14
ENDBRANCH   7  12
ENDBRANCH   1   7
BRANCH   4  20
ATOM     20  C   UNL     1      47.950   7.713  11.765  0.00  0.00    +0.000 C 
BRANCH  20  21
ATOM     21  N   UNL     1      47.127   6.530  11.691  0.00  0.00    +0.000 N 
ATOM     22  C   UNL     1      45.759   6.560  11.735  0.00  0.00    +0.000 C 
ATOM     23  O   UNL     1      45.133   7.612  11.836  0.00  0.00    +0.000 OA
ATOM     24  H   UNL     1      47.611   5.652  11.857  0.00  0.00    +0.000 HD
BRANCH  22  25
ATOM     25  C   UNL     1      45.082   5.265  11.583  0.00  0.00    +0.000 A 
ATOM     26  C   UNL     1      44.371   4.724  12.646  0.00  0.00    +0.000 A 
ATOM     27  S   UNL     1      43.601   3.248  12.272  0.00  0.00    +0.000 S 
ATOM     28  C   UNL     1      44.233   3.255  10.690  0.00  0.00    +0.000 A 
ATOM     29  N   UNL     1      43.968   2.238   9.825  0.00  0.00    +0.000 NA
ATOM     30  C   UNL     1      44.538   2.358   8.674  0.00  0.00    +0.000 A 
ATOM     31  N   UNL     1      45.339   3.407   8.303  0.00  0.00    +0.000 N 
ATOM     32  C   UNL     1      45.589   4.481   9.123  0.00  0.00    +0.000 A 
ATOM     33  O   UNL     1      46.239   5.441   8.731  0.00  0.00    +0.000 OA
ATOM     34  C   UNL     1      44.998   4.380  10.445  0.00  0.00    +0.000 A 
ATOM     35  H   UNL     1      45.740   3.454   7.377  0.00  0.00    +0.000 HD
ENDBRANCH  22  25
ENDBRANCH  20  21
ENDBRANCH   4  20
TORSDOF 7
ENDMDL
MODEL 2
REMARK VINA RESULT:    -7.436      1.603      2.021
REMARK INTER + INTRA:         -11.296
REMARK INTER:                 -10.645
REMARK INTRA:                  -0.651
REMARK UNBOUND:                -0.817
REMARK  Name = 
REMARK  8 active torsions:
REMARK  status: ('A' for Active; 'I' for Inactive)
REMARK    1  A    between atoms: C_1  and  S_2
REMARK    2  A    between atoms: S_2  and  N_5
REMARK    3  A    between atoms: N_5  and  C_6
REMARK    4  A    between atoms: C_10  and  O_11
REMARK    5  A    between atoms: O_11  and  C_12
REMARK    6  A    between atoms: C_15  and  C_16
REMARK    7  A    between atoms: C_16  and  N_17
REMARK    8  A    between atoms: C_18  and  C_20
REMARK                            x       y       z     vdW  Elec       q    Type
REMARK                         _______ _______ _______ _____ _____    ______ ____
ROOT
ATOM      1  C   UNL     1      49.839   7.819  15.067  0.00  0.00    +0.000 A 
ATOM      2  C   UNL     1      48.698   8.549  15.342  0.00  0.00    +0.000 A 
ATOM      3  C   UNL     1      47.708   8.621  14.364  0.00  0.00    +0.000 A 
ATOM      4  C   UNL     1      47.913   7.971  13.155  0.00  0.00    +0.000 A 
ATOM      5  N   UNL     1      49.034   7.246  12.931  0.00  0.00    +0.000 NA
ATOM      6  N   UNL     1      49.995   7.155  13.901  0.00  0.00    +0.000 NA
ENDROOT
BRANCH   1   7
ATOM      7  O   UNL     1      50.819   7.757  16.054  0.00  0.00    +0.000 OA
BRANCH   7  12
ATOM      8  C   UNL     1      50.104   4.574  17.700  0.00  0.00    +0.000 A 
ATOM      9  C   UNL     1      51.382   4.046  17.883  0.00  0.00    +0.000 A 
ATOM     10  C   UNL     1      52.499   4.786  17.488  0.00  0.00    +0.000 A 
ATOM     11  C   UNL     1      52.334   6.040  16.900  0.00  0.00    +0.000 A 
ATOM     12  C   UNL     1      51.051   6.540  16.657  0.00  0.00    +0.000 A 
ATOM     13  C   UNL     1      49.935   5.821  17.095  0.00  0.00    +0.000 A 
BRANCH   8  14
ATOM     14  N   UNL     1      48.949   3.853  18.125  0.00  0.00    +0.000 N 
ATOM     15  H   UNL     1      48.377   4.309  18.838  0.00  0.00    +0.000 HD
BRANCH  14  17
ATOM     16  C   UNL     1      47.551   4.612  15.965  0.00  0.00    +0.000 C 
ATOM     17  S   UNL     1      47.950   3.176  16.938  0.00  0.00    +0.000 S 
ATOM     18  O   UNL     1      46.739   2.653  17.531  0.00  0.00    +0.000 OA
ATOM     19  O   UNL     1      48.814   2.337  16.138  0.00  0.00    +0.000 OA
ENDBRANCH  14  17
ENDBRANCH   8  14
ENDBRANCH   7  12
ENDBRANCH   1   7
BRANCH   4  20
ATOM     20  C   UNL     1      46.887   8.001  12.053  0.00  0.00    +0.000 C 
BRANCH  20  21
ATOM     21  N   UNL     1      46.308   6.701  11.816  0.00  0.00    +0.000 N 
ATOM     22  C   UNL     1      44.980   6.505  11.554  0.00  0.00    +0.000 C 
ATOM     23  O   UNL     1      44.181   7.436  11.496  0.00  0.00    +0.000 OA
ATOM     24  H   UNL     1      46.882   5.912  12.099  0.00  0.00    +0.000 HD
BRANCH  22  25
ATOM     25  C   UNL     1      44.577   5.119  11.274  0.00  0.00    +0.000 A 
ATOM     26  C   UNL     1      43.783   4.430  12.181  0.00  0.00    +0.000 A 
ATOM     27  S   UNL     1      43.364   2.858  11.665  0.00  0.00    +0.000 S 
ATOM     28  C   UNL     1      44.271   3.026  10.234  0.00  0.00    +0.000 A 
ATOM     29  N   UNL     1      44.354   2.008   9.332  0.00  0.00    +0.000 NA
ATOM     30  C   UNL     1      45.101   2.262   8.312  0.00  0.00    +0.000 A 
ATOM     31  N   UNL     1      45.764   3.443   8.102  0.00  0.00    +0.000 N 
ATOM     32  C   UNL     1      45.666   4.516   8.956  0.00  0.00    +0.000 A 
ATOM     33  O   UNL     1      46.202   5.585   8.696  0.00  0.00    +0.000 OA
ATOM     34  C   UNL     1      44.862   4.272  10.140  0.00  0.00    +0.000 A 
ATOM     35  H   UNL     1      46.318   3.589   7.270  0.00  0.00    +0.000 HD
ENDBRANCH  22  25
ENDBRANCH  20  21
ENDBRANCH   4  20
TORSDOF 7
ENDMDL
MODEL 3
REMARK VINA RESULT:    -7.021      3.515      5.391
REMARK INTER + INTRA:         -10.712
REMARK INTER:                  -9.796
REMARK INTRA:                  -0.916
REMARK UNBOUND:                -0.817
REMARK  Name = 
REMARK  8 active torsions:
REMARK  status: ('A' for Active; 'I' for Inactive)
REMARK    1  A    between atoms: C_1  and  S_2
REMARK    2  A    between atoms: S_2  and  N_5
REMARK    3  A    between atoms: N_5  and  C_6
REMARK    4  A    between atoms: C_10  and  O_11
REMARK    5  A    between atoms: O_11  and  C_12
REMARK    6  A    between atoms: C_15  and  C_16
REMARK    7  A    between atoms: C_16  and  N_17
REMARK    8  A    between atoms: C_18  and  C_20
REMARK                            x       y       z     vdW  Elec       q    Type
REMARK                         _______ _______ _______ _____ _____    ______ ____
ROOT
ATOM      1  C   UNL     1      51.040   3.942  18.037  0.00  0.00    +0.000 A 
ATOM      2  C   UNL     1      50.082   4.692  18.692  0.00  0.00    +0.000 A 
ATOM      3  C   UNL     1      48.751   4.544  18.307  0.00  0.00    +0.000 A 
ATOM      4  C   UNL     1      48.445   3.666  17.277  0.00  0.00    +0.000 A 
ATOM      5  N   UNL     1      49.410   2.931  16.674  0.00  0.00    +0.000 NA
ATOM      6  N   UNL     1      50.714   3.058  17.070  0.00  0.00    +0.000 NA
ENDROOT
BRANCH   1   7
ATOM      7  O   UNL     1      52.365   4.101  18.433  0.00  0.00    +0.000 OA
BRANCH   7  12
ATOM      8  C   UNL     1      53.230   6.760  16.080  0.00  0.00    +0.000 A 
ATOM      9  C   UNL     1      54.484   7.161  16.540  0.00  0.00    +0.000 A 
ATOM     10  C   UNL     1      55.065   6.504  17.627  0.00  0.00    +0.000 A 
ATOM     11  C   UNL     1      54.386   5.460  18.256  0.00  0.00    +0.000 A 
ATOM     12  C   UNL     1      53.102   5.102  17.836  0.00  0.00    +0.000 A 
ATOM     13  C   UNL     1      52.540   5.728  16.719  0.00  0.00    +0.000 A 
BRANCH   8  14
ATOM     14  N   UNL     1      52.630   7.394  14.952  0.00  0.00    +0.000 N 
ATOM     15  H   UNL     1      52.685   6.879  14.071  0.00  0.00    +0.000 HD
BRANCH  14  17
ATOM     16  C   UNL     1      51.018   9.176  13.760  0.00  0.00    +0.000 C 
ATOM     17  S   UNL     1      51.080   8.049  15.136  0.00  0.00    +0.000 S 
ATOM     18  O   UNL     1      50.991   8.802  16.369  0.00  0.00    +0.000 OA
ATOM     19  O   UNL     1      50.166   6.967  14.853  0.00  0.00    +0.000 OA
ENDBRANCH  14  17
ENDBRANCH   8  14
ENDBRANCH   7  12
ENDBRANCH   1   7
BRANCH   4  20
ATOM     20  C   UNL     1      47.031   3.452  16.809  0.00  0.00    +0.000 C 
BRANCH  20  21
ATOM     21  N   UNL     1      46.644   4.407  15.797  0.00  0.00    +0.000 N 
ATOM     22  C   UNL     1      46.778   4.178  14.455  0.00  0.00    +0.000 C 
ATOM     23  O   UNL     1      47.238   3.127  14.015  0.00  0.00    +0.000 OA
ATOM     24  H   UNL     1      46.500   5.356  16.129  0.00  0.00    +0.000 HD
BRANCH  22  25
ATOM     25  C   UNL     1      46.273   5.236  13.569  0.00  0.00    +0.000 A 
ATOM     26  C   UNL     1      47.053   6.355  13.309  0.00  0.00    +0.000 A 
ATOM     27  S   UNL     1      46.335   7.449  12.214  0.00  0.00    +0.000 S 
ATOM     28  C   UNL     1      44.934   6.488  12.087  0.00  0.00    +0.000 A 
ATOM     29  N   UNL     1      43.889   6.872  11.303  0.00  0.00    +0.000 NA
ATOM     30  C   UNL     1      42.882   6.066  11.328  0.00  0.00    +0.000 A 
ATOM     31  N   UNL     1      42.827   4.905  12.054  0.00  0.00    +0.000 N 
ATOM     32  C   UNL     1      43.878   4.450  12.815  0.00  0.00    +0.000 A 
ATOM     33  O   UNL     1      43.829   3.368  13.384  0.00  0.00    +0.000 OA
ATOM     34  C   UNL     1      45.026   5.339  12.849  0.00  0.00    +0.000 A 
ATOM     35  H   UNL     1      42.017   4.303  12.015  0.00  0.00    +0.000 HD
ENDBRANCH  22  25
ENDBRANCH  20  21
ENDBRANCH   4  20
TORSDOF 7
ENDMDL
MODEL 4
REMARK VINA RESULT:    -6.882      2.080      2.298
REMARK INTER + INTRA:         -10.516
REMARK INTER:                  -9.744
REMARK INTRA:                  -0.772
REMARK UNBOUND:                -0.817
REMARK  Name = 
REMARK  8 active torsions:
REMARK  status: ('A' for Active; 'I' for Inactive)
REMARK    1  A    between atoms: C_1  and  S_2
REMARK    2  A    between atoms: S_2  and  N_5
REMARK    3  A    between atoms: N_5  and  C_6
REMARK    4  A    between atoms: C_10  and  O_11
REMARK    5  A    between atoms: O_11  and  C_12
REMARK    6  A    between atoms: C_15  and  C_16
REMARK    7  A    between atoms: C_16  and  N_17
REMARK    8  A    between atoms: C_18  and  C_20
REMARK                            x       y       z     vdW  Elec       q    Type
REMARK                         _______ _______ _______ _____ _____    ______ ____
ROOT
ATOM      1  C   UNL     1      49.253   7.807  15.923  0.00  0.00    +0.000 A 
ATOM      2  C   UNL     1      48.675   8.966  15.440  0.00  0.00    +0.000 A 
ATOM      3  C   UNL     1      48.136   8.949  14.156  0.00  0.00    +0.000 A 
ATOM      4  C   UNL     1      48.213   7.779  13.412  0.00  0.00    +0.000 A 
ATOM      5  N   UNL     1      48.768   6.657  13.928  0.00  0.00    +0.000 NA
ATOM      6  N   UNL     1      49.274   6.667  15.200  0.00  0.00    +0.000 NA
ENDROOT
BRANCH   1   7
ATOM      7  O   UNL     1      49.788   7.840  17.208  0.00  0.00    +0.000 OA
BRANCH   7  12
ATOM      8  C   UNL     1      50.361   4.838  19.212  0.00  0.00    +0.000 A 
ATOM      9  C   UNL     1      49.097   4.604  19.755  0.00  0.00    +0.000 A 
ATOM     10  C   UNL     1      48.031   5.438  19.412  0.00  0.00    +0.000 A 
ATOM     11  C   UNL     1      48.235   6.508  18.540  0.00  0.00    +0.000 A 
ATOM     12  C   UNL     1      49.515   6.781  18.048  0.00  0.00    +0.000 A 
ATOM     13  C   UNL     1      50.572   5.919  18.354  0.00  0.00    +0.000 A 
BRANCH   8  14
ATOM     14  N   UNL     1      51.459   3.981  19.521  0.00  0.00    +0.000 N 
ATOM     15  H   UNL     1      51.316   3.341  20.305  0.00  0.00    +0.000 HD
BRANCH  14  17
ATOM     16  C   UNL     1      50.813   2.489  17.388  0.00  0.00    +0.000 C 
ATOM     17  S   UNL     1      52.218   3.165  18.247  0.00  0.00    +0.000 S 
ATOM     18  O   UNL     1      53.032   2.081  18.752  0.00  0.00    +0.000 OA
ATOM     19  O   UNL     1      52.783   4.198  17.409  0.00  0.00    +0.000 OA
ENDBRANCH  14  17
ENDBRANCH   8  14
ENDBRANCH   7  12
ENDBRANCH   1   7
BRANCH   4  20
ATOM     20  C   UNL     1      47.650   7.685  12.019  0.00  0.00    +0.000 C 
BRANCH  20  21
ATOM     21  N   UNL     1      46.894   6.471  11.821  0.00  0.00    +0.000 N 
ATOM     22  C   UNL     1      45.528   6.420  11.868  0.00  0.00    +0.000 C 
ATOM     23  O   UNL     1      44.843   7.418  12.079  0.00  0.00    +0.000 OA
ATOM     24  H   UNL     1      47.428   5.610  11.893  0.00  0.00    +0.000 HD
BRANCH  22  25
ATOM     25  C   UNL     1      44.924   5.111  11.580  0.00  0.00    +0.000 A 
ATOM     26  C   UNL     1      44.188   4.455  12.558  0.00  0.00    +0.000 A 
ATOM     27  S   UNL     1      43.512   2.980  12.030  0.00  0.00    +0.000 S 
ATOM     28  C   UNL     1      44.220   3.143  10.489  0.00  0.00    +0.000 A 
ATOM     29  N   UNL     1      44.049   2.188   9.534  0.00  0.00    +0.000 NA
ATOM     30  C   UNL     1      44.669   2.425   8.429  0.00  0.00    +0.000 A 
ATOM     31  N   UNL     1      45.434   3.536   8.183  0.00  0.00    +0.000 N 
ATOM     32  C   UNL     1      45.590   4.551   9.097  0.00  0.00    +0.000 A 
ATOM     33  O   UNL     1      46.210   5.568   8.816  0.00  0.00    +0.000 OA
ATOM     34  C   UNL     1      44.939   4.318  10.374  0.00  0.00    +0.000 A 
ATOM     35  H   UNL     1      45.878   3.676   7.287  0.00  0.00    +0.000 HD
ENDBRANCH  22  25
ENDBRANCH  20  21
ENDBRANCH   4  20
TORSDOF 7
ENDMDL
MODEL 5
REMARK VINA RESULT:    -6.848      3.317      8.331
REMARK INTER + INTRA:         -10.467
REMARK INTER:                  -9.547
REMARK INTRA:                  -0.920
REMARK UNBOUND:                -0.817
REMARK  Name = 
REMARK  8 active torsions:
REMARK  status: ('A' for Active; 'I' for Inactive)
REMARK    1  A    between atoms: C_1  and  S_2
REMARK    2  A    between atoms: S_2  and  N_5
REMARK    3  A    between atoms: N_5  and  C_6
REMARK    4  A    between atoms: C_10  and  O_11
REMARK    5  A    between atoms: O_11  and  C_12
REMARK    6  A    between atoms: C_15  and  C_16
REMARK    7  A    between atoms: C_16  and  N_17
REMARK    8  A    between atoms: C_18  and  C_20
REMARK                            x       y       z     vdW  Elec       q    Type
REMARK                         _______ _______ _______ _____ _____    ______ ____
ROOT
ATOM      1  C   UNL     1      48.479   7.045  13.279  0.00  0.00    +0.000 A 
ATOM      2  C   UNL     1      49.190   8.165  13.666  0.00  0.00    +0.000 A 
ATOM      3  C   UNL     1      49.651   8.233  14.980  0.00  0.00    +0.000 A 
ATOM      4  C   UNL     1      49.366   7.186  15.845  0.00  0.00    +0.000 A 
ATOM      5  N   UNL     1      48.685   6.095  15.421  0.00  0.00    +0.000 NA
ATOM      6  N   UNL     1      48.255   6.017  14.125  0.00  0.00    +0.000 NA
ENDROOT
BRANCH   1   7
ATOM      7  O   UNL     1      48.026   6.992  11.964  0.00  0.00    +0.000 OA
BRANCH   7  12
ATOM      8  C   UNL     1      44.723   5.635  11.186  0.00  0.00    +0.000 A 
ATOM      9  C   UNL     1      43.908   6.761  11.311  0.00  0.00    +0.000 A 
ATOM     10  C   UNL     1      44.479   7.998  11.618  0.00  0.00    +0.000 A 
ATOM     11  C   UNL     1      45.857   8.102  11.813  0.00  0.00    +0.000 A 
ATOM     12  C   UNL     1      46.664   6.962  11.752  0.00  0.00    +0.000 A 
ATOM     13  C   UNL     1      46.099   5.733  11.398  0.00  0.00    +0.000 A 
BRANCH   8  14
ATOM     14  N   UNL     1      44.168   4.367  10.841  0.00  0.00    +0.000 N 
ATOM     15  H   UNL     1      44.581   3.908  10.028  0.00  0.00    +0.000 HD
BRANCH  14  17
ATOM     16  C   UNL     1      43.148   4.244  13.319  0.00  0.00    +0.000 C 
ATOM     17  S   UNL     1      43.932   3.237  12.079  0.00  0.00    +0.000 S 
ATOM     18  O   UNL     1      45.204   2.766  12.585  0.00  0.00    +0.000 OA
ATOM     19  O   UNL     1      42.939   2.315  11.577  0.00  0.00    +0.000 OA
ENDBRANCH  14  17
ENDBRANCH   8  14
ENDBRANCH   7  12
ENDBRANCH   1   7
BRANCH   4  20
ATOM     20  C   UNL     1      49.832   7.188  17.276  0.00  0.00    +0.000 C 
BRANCH  20  21
ATOM     21  N   UNL     1      50.757   6.113  17.547  0.00  0.00    +0.000 N 
ATOM     22  C   UNL     1      51.170   5.774  18.806  0.00  0.00    +0.000 C 
ATOM     23  O   UNL     1      50.771   6.368  19.806  0.00  0.00    +0.000 OA
ATOM     24  H   UNL     1      51.282   5.779  16.744  0.00  0.00    +0.000 HD
BRANCH  22  25
ATOM     25  C   UNL     1      52.064   4.612  18.899  0.00  0.00    +0.000 A 
ATOM     26  C   UNL     1      53.230   4.690  19.650  0.00  0.00    +0.000 A 
ATOM     27  S   UNL     1      54.113   3.231  19.694  0.00  0.00    +0.000 S 
ATOM     28  C   UNL     1      52.993   2.457  18.671  0.00  0.00    +0.000 A 
ATOM     29  N   UNL     1      53.171   1.163  18.287  0.00  0.00    +0.000 NA
ATOM     30  C   UNL     1      52.265   0.717  17.485  0.00  0.00    +0.000 A 
ATOM     31  N   UNL     1      51.188   1.440  17.041  0.00  0.00    +0.000 N 
ATOM     32  C   UNL     1      50.939   2.730  17.444  0.00  0.00    +0.000 A 
ATOM     33  O   UNL     1      49.924   3.319  17.096  0.00  0.00    +0.000 OA
ATOM     34  C   UNL     1      51.949   3.293  18.323  0.00  0.00    +0.000 A 
ATOM     35  H   UNL     1      50.499   1.027  16.429  0.00  0.00    +0.000 HD
ENDBRANCH  22  25
ENDBRANCH  20  21
ENDBRANCH   4  20
TORSDOF 7
ENDMDL
MODEL 6
REMARK VINA RESULT:    -6.752      3.681      4.400
REMARK INTER + INTRA:         -10.333
REMARK INTER:                  -9.309
REMARK INTRA:                  -1.024
REMARK UNBOUND:                -0.817
REMARK  Name = 
REMARK  8 active torsions:
REMARK  status: ('A' for Active; 'I' for Inactive)
REMARK    1  A    between atoms: C_1  and  S_2
REMARK    2  A    between atoms: S_2  and  N_5
REMARK    3  A    between atoms: N_5  and  C_6
REMARK    4  A    between atoms: C_10  and  O_11
REMARK    5  A    between atoms: O_11  and  C_12
REMARK    6  A    between atoms: C_15  and  C_16
REMARK    7  A    between atoms: C_16  and  N_17
REMARK    8  A    between atoms: C_18  and  C_20
REMARK                            x       y       z     vdW  Elec       q    Type
REMARK                         _______ _______ _______ _____ _____    ______ ____
ROOT
ATOM      1  C   UNL     1      49.308   5.489  17.812  0.00  0.00    +0.000 A 
ATOM      2  C   UNL     1      49.414   6.858  17.965  0.00  0.00    +0.000 A 
ATOM      3  C   UNL     1      49.092   7.671  16.879  0.00  0.00    +0.000 A 
ATOM      4  C   UNL     1      48.693   7.074  15.691  0.00  0.00    +0.000 A 
ATOM      5  N   UNL     1      48.580   5.729  15.588  0.00  0.00    +0.000 NA
ATOM      6  N   UNL     1      48.872   4.933  16.662  0.00  0.00    +0.000 NA
ENDROOT
BRANCH   1   7
ATOM      7  O   UNL     1      49.635   4.691  18.905  0.00  0.00    +0.000 OA
BRANCH   7  12
ATOM      8  C   UNL     1      52.977   3.260  18.534  0.00  0.00    +0.000 A 
ATOM      9  C   UNL     1      53.684   3.902  19.552  0.00  0.00    +0.000 A 
ATOM     10  C   UNL     1      53.021   4.793  20.398  0.00  0.00    +0.000 A 
ATOM     11  C   UNL     1      51.662   5.050  20.217  0.00  0.00    +0.000 A 
ATOM     12  C   UNL     1      50.970   4.457  19.157  0.00  0.00    +0.000 A 
ATOM     13  C   UNL     1      51.621   3.528  18.339  0.00  0.00    +0.000 A 
BRANCH   8  14
ATOM     14  N   UNL     1      53.623   2.321  17.677  0.00  0.00    +0.000 N 
ATOM     15  H   UNL     1      54.567   2.569  17.377  0.00  0.00    +0.000 HD
BRANCH  14  17
ATOM     16  C   UNL     1      54.332  -0.066  16.680  0.00  0.00    +0.000 C 
ATOM     17  S   UNL     1      53.569   0.684  18.103  0.00  0.00    +0.000 S 
ATOM     18  O   UNL     1      52.199   0.229  18.200  0.00  0.00    +0.000 OA
ATOM     19  O   UNL     1      54.485   0.542  19.212  0.00  0.00    +0.000 OA
ENDBRANCH  14  17
ENDBRANCH   8  14
ENDBRANCH   7  12
ENDBRANCH   1   7
BRANCH   4  20
ATOM     20  C   UNL     1      48.327   7.886  14.478  0.00  0.00    +0.000 C 
BRANCH  20  21
ATOM     21  N   UNL     1      47.100   7.429  13.870  0.00  0.00    +0.000 N 
ATOM     22  C   UNL     1      47.053   6.776  12.668  0.00  0.00    +0.000 C 
ATOM     23  O   UNL     1      48.067   6.527  12.021  0.00  0.00    +0.000 OA
ATOM     24  H   UNL     1      46.249   7.834  14.251  0.00  0.00    +0.000 HD
BRANCH  22  25
ATOM     25  C   UNL     1      45.723   6.328  12.232  0.00  0.00    +0.000 A 
ATOM     26  C   UNL     1      44.823   7.240  11.698  0.00  0.00    +0.000 A 
ATOM     27  S   UNL     1      43.355   6.534  11.191  0.00  0.00    +0.000 S 
ATOM     28  C   UNL     1      43.852   4.991  11.712  0.00  0.00    +0.000 A 
ATOM     29  N   UNL     1      43.033   3.910  11.587  0.00  0.00    +0.000 NA
ATOM     30  C   UNL     1      43.526   2.814  12.053  0.00  0.00    +0.000 A 
ATOM     31  N   UNL     1      44.766   2.693  12.625  0.00  0.00    +0.000 N 
ATOM     32  C   UNL     1      45.647   3.744  12.723  0.00  0.00    +0.000 A 
ATOM     33  O   UNL     1      46.779   3.584  13.161  0.00  0.00    +0.000 OA
ATOM     34  C   UNL     1      45.129   5.012  12.242  0.00  0.00    +0.000 A 
ATOM     35  H   UNL     1      45.104   1.800  12.953  0.00  0.00    +0.000 HD
ENDBRANCH  22  25
ENDBRANCH  20  21
ENDBRANCH   4  20
TORSDOF 7
ENDMDL
MODEL 7
REMARK VINA RESULT:    -6.657      4.472      7.085
REMARK INTER + INTRA:         -10.198
REMARK INTER:                  -9.151
REMARK INTRA:                  -1.047
REMARK UNBOUND:                -0.817
REMARK  Name = 
REMARK  8 active torsions:
REMARK  status: ('A' for Active; 'I' for Inactive)
REMARK    1  A    between atoms: C_1  and  S_2
REMARK    2  A    between atoms: S_2  and  N_5
REMARK    3  A    between atoms: N_5  and  C_6
REMARK    4  A    between atoms: C_10  and  O_11
REMARK    5  A    between atoms: O_11  and  C_12
REMARK    6  A    between atoms: C_15  and  C_16
REMARK    7  A    between atoms: C_16  and  N_17
REMARK    8  A    between atoms: C_18  and  C_20
REMARK                            x       y       z     vdW  Elec       q    Type
REMARK                         _______ _______ _______ _____ _____    ______ ____
ROOT
ATOM      1  C   UNL     1      50.814   8.358  12.180  0.00  0.00    +0.000 A 
ATOM      2  C   UNL     1      50.023   7.589  11.348  0.00  0.00    +0.000 A 
ATOM      3  C   UNL     1      48.660   7.504  11.626  0.00  0.00    +0.000 A 
ATOM      4  C   UNL     1      48.158   8.180  12.729  0.00  0.00    +0.000 A 
ATOM      5  N   UNL     1      48.962   8.942  13.508  0.00  0.00    +0.000 NA
ATOM      6  N   UNL     1      50.295   9.046  13.220  0.00  0.00    +0.000 NA
ENDROOT
BRANCH   1   7
ATOM      7  O   UNL     1      52.174   8.433  11.889  0.00  0.00    +0.000 OA
BRANCH   7  12
ATOM      8  C   UNL     1      53.643   8.222   8.550  0.00  0.00    +0.000 A 
ATOM      9  C   UNL     1      53.333   9.473   8.015  0.00  0.00    +0.000 A 
ATOM     10  C   UNL     1      52.660  10.413   8.798  0.00  0.00    +0.000 A 
ATOM     11  C   UNL     1      52.289  10.095  10.105  0.00  0.00    +0.000 A 
ATOM     12  C   UNL     1      52.541   8.820  10.618  0.00  0.00    +0.000 A 
ATOM     13  C   UNL     1      53.256   7.895   9.851  0.00  0.00    +0.000 A 
BRANCH   8  14
ATOM     14  N   UNL     1      54.358   7.256   7.781  0.00  0.00    +0.000 N 
ATOM     15  H   UNL     1      55.043   6.698   8.295  0.00  0.00    +0.000 HD
BRANCH  14  17
ATOM     16  C   UNL     1      53.915   4.647   7.345  0.00  0.00    +0.000 C 
ATOM     17  S   UNL     1      53.478   6.261   6.733  0.00  0.00    +0.000 S 
ATOM     18  O   UNL     1      53.960   6.400   5.376  0.00  0.00    +0.000 OA
ATOM     19  O   UNL     1      52.089   6.487   7.060  0.00  0.00    +0.000 OA
ENDBRANCH  14  17
ENDBRANCH   8  14
ENDBRANCH   7  12
ENDBRANCH   1   7
BRANCH   4  20
ATOM     20  C   UNL     1      46.697   8.138  13.090  0.00  0.00    +0.000 C 
BRANCH  20  21
ATOM     21  N   UNL     1      46.097   6.864  12.773  0.00  0.00    +0.000 N 
ATOM     22  C   UNL     1      45.041   6.722  11.914  0.00  0.00    +0.000 C 
ATOM     23  O   UNL     1      44.531   7.682  11.343  0.00  0.00    +0.000 OA
ATOM     24  H   UNL     1      46.329   6.104  13.407  0.00  0.00    +0.000 HD
BRANCH  22  25
ATOM     25  C   UNL     1      44.601   5.343  11.660  0.00  0.00    +0.000 A 
ATOM     26  C   UNL     1      43.864   4.661  12.619  0.00  0.00    +0.000 A 
ATOM     27  S   UNL     1      43.387   3.098  12.131  0.00  0.00    +0.000 S 
ATOM     28  C   UNL     1      44.191   3.258  10.638  0.00  0.00    +0.000 A 
ATOM     29  N   UNL     1      44.194   2.243   9.731  0.00  0.00    +0.000 NA
ATOM     30  C   UNL     1      44.869   2.490   8.660  0.00  0.00    +0.000 A 
ATOM     31  N   UNL     1      45.532   3.663   8.406  0.00  0.00    +0.000 N 
ATOM     32  C   UNL     1      45.511   4.733   9.268  0.00  0.00    +0.000 A 
ATOM     33  O   UNL     1      46.042   5.796   8.973  0.00  0.00    +0.000 OA
ATOM     34  C   UNL     1      44.792   4.496  10.506  0.00  0.00    +0.000 A 
ATOM     35  H   UNL     1      46.027   3.804   7.537  0.00  0.00    +0.000 HD
ENDBRANCH  22  25
ENDBRANCH  20  21
ENDBRANCH   4  20
TORSDOF 7
ENDMDL
MODEL 8
REMARK VINA RESULT:    -6.561      2.643      3.868
REMARK INTER + INTRA:         -10.064
REMARK INTER:                  -9.019
REMARK INTRA:                  -1.045
REMARK UNBOUND:                -0.817
REMARK  Name = 
REMARK  8 active torsions:
REMARK  status: ('A' for Active; 'I' for Inactive)
REMARK    1  A    between atoms: C_1  and  S_2
REMARK    2  A    between atoms: S_2  and  N_5
REMARK    3  A    between atoms: N_5  and  C_6
REMARK    4  A    between atoms: C_10  and  O_11
REMARK    5  A    between atoms: O_11  and  C_12
REMARK    6  A    between atoms: C_15  and  C_16
REMARK    7  A    between atoms: C_16  and  N_17
REMARK    8  A    between atoms: C_18  and  C_20
REMARK                            x       y       z     vdW  Elec       q    Type
REMARK                         _______ _______ _______ _____ _____    ______ ____
ROOT
ATOM      1  C   UNL     1      49.669   6.240  16.474  0.00  0.00    +0.000 A 
ATOM      2  C   UNL     1      50.365   7.313  15.952  0.00  0.00    +0.000 A 
ATOM      3  C   UNL     1      50.035   7.755  14.672  0.00  0.00    +0.000 A 
ATOM      4  C   UNL     1      49.036   7.092  13.972  0.00  0.00    +0.000 A 
ATOM      5  N   UNL     1      48.362   6.058  14.526  0.00  0.00    +0.000 NA
ATOM      6  N   UNL     1      48.668   5.641  15.793  0.00  0.00    +0.000 NA
ENDROOT
BRANCH   1   7
ATOM      7  O   UNL     1      50.010   5.811  17.754  0.00  0.00    +0.000 OA
BRANCH   7  12
ATOM      8  C   UNL     1      48.790   7.900  20.493  0.00  0.00    +0.000 A 
ATOM      9  C   UNL     1      47.683   7.178  20.940  0.00  0.00    +0.000 A 
ATOM     10  C   UNL     1      47.368   5.955  20.343  0.00  0.00    +0.000 A 
ATOM     11  C   UNL     1      48.149   5.467  19.296  0.00  0.00    +0.000 A 
ATOM     12  C   UNL     1      49.218   6.222  18.805  0.00  0.00    +0.000 A 
ATOM     13  C   UNL     1      49.563   7.423  19.432  0.00  0.00    +0.000 A 
BRANCH   8  14
ATOM     14  N   UNL     1      49.152   9.136  21.107  0.00  0.00    +0.000 N 
ATOM     15  H   UNL     1      50.154   9.326  21.163  0.00  0.00    +0.000 HD
BRANCH  14  17
ATOM     16  C   UNL     1      49.659  11.716  20.579  0.00  0.00    +0.000 C 
ATOM     17  S   UNL     1      48.329  10.535  20.630  0.00  0.00    +0.000 S 
ATOM     18  O   UNL     1      47.378  10.935  21.644  0.00  0.00    +0.000 OA
ATOM     19  O   UNL     1      47.911  10.293  19.267  0.00  0.00    +0.000 OA
ENDBRANCH  14  17
ENDBRANCH   8  14
ENDBRANCH   7  12
ENDBRANCH   1   7
BRANCH   4  20
ATOM     20  C   UNL     1      48.624   7.513  12.587  0.00  0.00    +0.000 C 
BRANCH  20  21
ATOM     21  N   UNL     1      47.766   6.538  11.956  0.00  0.00    +0.000 N 
ATOM     22  C   UNL     1      46.468   6.792  11.606  0.00  0.00    +0.000 C 
ATOM     23  O   UNL     1      45.940   7.884  11.803  0.00  0.00    +0.000 OA
ATOM     24  H   UNL     1      48.089   5.577  12.010  0.00  0.00    +0.000 HD
BRANCH  22  25
ATOM     25  C   UNL     1      45.763   5.703  10.916  0.00  0.00    +0.000 A 
ATOM     26  C   UNL     1      45.852   5.583   9.535  0.00  0.00    +0.000 A 
ATOM     27  S   UNL     1      45.023   4.229   8.912  0.00  0.00    +0.000 S 
ATOM     28  C   UNL     1      44.475   3.782  10.462  0.00  0.00    +0.000 A 
ATOM     29  N   UNL     1      43.677   2.692  10.636  0.00  0.00    +0.000 NA
ATOM     30  C   UNL     1      43.310   2.492  11.856  0.00  0.00    +0.000 A 
ATOM     31  N   UNL     1      43.676   3.274  12.922  0.00  0.00    +0.000 N 
ATOM     32  C   UNL     1      44.522   4.350  12.801  0.00  0.00    +0.000 A 
ATOM     33  O   UNL     1      44.898   4.976  13.784  0.00  0.00    +0.000 OA
ATOM     34  C   UNL     1      44.939   4.640  11.441  0.00  0.00    +0.000 A 
ATOM     35  H   UNL     1      43.373   3.052  13.859  0.00  0.00    +0.000 HD
ENDBRANCH  22  25
ENDBRANCH  20  21
ENDBRANCH   4  20
TORSDOF 7
ENDMDL
MODEL 9
REMARK VINA RESULT:    -6.417      3.282      3.654
REMARK INTER + INTRA:          -9.860
REMARK INTER:                  -9.307
REMARK INTRA:                  -0.553
REMARK UNBOUND:                -0.817
REMARK  Name = 
REMARK  8 active torsions:
REMARK  status: ('A' for Active; 'I' for Inactive)
REMARK    1  A    between atoms: C_1  and  S_2
REMARK    2  A    between atoms: S_2  and  N_5
REMARK    3  A    between atoms: N_5  and  C_6
REMARK    4  A    between atoms: C_10  and  O_11
REMARK    5  A    between atoms: O_11  and  C_12
REMARK    6  A    between atoms: C_15  and  C_16
REMARK    7  A    between atoms: C_16  and  N_17
REMARK    8  A    between atoms: C_18  and  C_20
REMARK                            x       y       z     vdW  Elec       q    Type
REMARK                         _______ _______ _______ _____ _____    ______ ____
ROOT
ATOM      1  C   UNL     1      49.978   6.908  16.052  0.00  0.00    +0.000 A 
ATOM      2  C   UNL     1      50.224   8.072  15.350  0.00  0.00    +0.000 A 
ATOM      3  C   UNL     1      49.545   8.276  14.150  0.00  0.00    +0.000 A 
ATOM      4  C   UNL     1      48.665   7.299  13.705  0.00  0.00    +0.000 A 
ATOM      5  N   UNL     1      48.433   6.181  14.433  0.00  0.00    +0.000 NA
ATOM      6  N   UNL     1      49.081   5.994  15.623  0.00  0.00    +0.000 NA
ENDROOT
BRANCH   1   7
ATOM      7  O   UNL     1      50.664   6.719  17.249  0.00  0.00    +0.000 OA
BRANCH   7  12
ATOM      8  C   UNL     1      53.224   4.220  17.996  0.00  0.00    +0.000 A 
ATOM      9  C   UNL     1      54.281   4.633  17.184  0.00  0.00    +0.000 A 
ATOM     10  C   UNL     1      54.148   5.787  16.408  0.00  0.00    +0.000 A 
ATOM     11  C   UNL     1      52.958   6.514  16.437  0.00  0.00    +0.000 A 
ATOM     12  C   UNL     1      51.876   6.064  17.200  0.00  0.00    +0.000 A 
ATOM     13  C   UNL     1      52.025   4.936  18.013  0.00  0.00    +0.000 A 
BRANCH   8  14
ATOM     14  N   UNL     1      53.347   3.063  18.822  0.00  0.00    +0.000 N 
ATOM     15  H   UNL     1      52.694   3.006  19.605  0.00  0.00    +0.000 HD
BRANCH  14  17
ATOM     16  C   UNL     1      51.810   1.334  17.465  0.00  0.00    +0.000 C 
ATOM     17  S   UNL     1      53.471   1.554  18.067  0.00  0.00    +0.000 S 
ATOM     18  O   UNL     1      53.763   0.522  19.038  0.00  0.00    +0.000 OA
ATOM     19  O   UNL     1      54.324   1.765  16.919  0.00  0.00    +0.000 OA
ENDBRANCH  14  17
ENDBRANCH   8  14
ENDBRANCH   7  12
ENDBRANCH   1   7
BRANCH   4  20
ATOM     20  C   UNL     1      47.894   7.450  12.421  0.00  0.00    +0.000 C 
BRANCH  20  21
ATOM     21  N   UNL     1      47.095   6.285  12.127  0.00  0.00    +0.000 N 
ATOM     22  C   UNL     1      45.733   6.253  12.256  0.00  0.00    +0.000 C 
ATOM     23  O   UNL     1      45.090   7.231  12.629  0.00  0.00    +0.000 OA
ATOM     24  H   UNL     1      47.609   5.411  12.061  0.00  0.00    +0.000 HD
BRANCH  22  25
ATOM     25  C   UNL     1      45.078   5.001  11.852  0.00  0.00    +0.000 A 
ATOM     26  C   UNL     1      44.368   4.257  12.784  0.00  0.00    +0.000 A 
ATOM     27  S   UNL     1      43.625   2.868  12.127  0.00  0.00    +0.000 S 
ATOM     28  C   UNL     1      44.267   3.188  10.583  0.00  0.00    +0.000 A 
ATOM     29  N   UNL     1      44.025   2.351   9.536  0.00  0.00    +0.000 NA
ATOM     30  C   UNL     1      44.601   2.698   8.435  0.00  0.00    +0.000 A 
ATOM     31  N   UNL     1      45.387   3.810   8.279  0.00  0.00    +0.000 N 
ATOM     32  C   UNL     1      45.615   4.710   9.292  0.00  0.00    +0.000 A 
ATOM     33  O   UNL     1      46.251   5.737   9.098  0.00  0.00    +0.000 OA
ATOM     34  C   UNL     1      45.015   4.350  10.565  0.00  0.00    +0.000 A 
ATOM     35  H   UNL     1      45.794   4.039   7.384  0.00  0.00    +0.000 HD
ENDBRANCH  22  25
ENDBRANCH  20  21
ENDBRANCH   4  20
TORSDOF 7
ENDMDL
