MODEL 1
REMARK VINA RESULT:    -7.814      0.000      0.000
REMARK INTER + INTRA:         -13.000
REMARK INTER:                 -11.469
REMARK INTRA:                  -1.531
REMARK UNBOUND:                -1.531
REMARK  Name = 
REMARK  10 active torsions:
REMARK  status: ('A' for Active; 'I' for Inactive)
REMARK    1  A    between atoms: C_1  and  C_2
REMARK    2  A    between atoms: C_2  and  C_3
REMARK    3  A    between atoms: C_2  and  C_4
REMARK    4  A    between atoms: C_6  and  C_7
REMARK    5  A    between atoms: C_12  and  C_13
REMARK    6  A    between atoms: C_13  and  O_14
REMARK    7  A    between atoms: O_14  and  C_15
REMARK    8  A    between atoms: C_19  and  C_20
REMARK    9  A    between atoms: C_25  and  O_26
REMARK   10  A    between atoms: O_26  and  C_27
REMARK                            x       y       z     vdW  Elec       q    Type
REMARK                         _______ _______ _______ _____ _____    ______ ____
ROOT
ATOM      1  C   UNL     1      47.250   7.417  12.434  0.00  0.00    +0.000 A 
ATOM      2  C   UNL     1      46.281   8.328  12.833  0.00  0.00    +0.000 A 
ATOM      3  C   UNL     1      45.001   8.242  12.289  0.00  0.00    +0.000 A 
ATOM      4  C   UNL     1      44.681   7.237  11.361  0.00  0.00    +0.000 A 
ATOM      5  C   UNL     1      45.639   6.313  10.912  0.00  0.00    +0.000 A 
ATOM      6  C   UNL     1      46.938   6.465  11.453  0.00  0.00    +0.000 A 
ENDROOT
BRANCH   5   7
ATOM      7  C   UNL     1      45.302   5.154  10.018  0.00  0.00    +0.000 A 
ATOM      8  C   UNL     1      46.031   5.004   8.813  0.00  0.00    +0.000 A 
ATOM      9  C   UNL     1      45.848   3.927   7.946  0.00  0.00    +0.000 A 
ATOM     10  C   UNL     1      44.975   2.912   8.294  0.00  0.00    +0.000 A 
ATOM     11  C   UNL     1      44.252   3.007   9.480  0.00  0.00    +0.000 A 
ATOM     12  C   UNL     1      44.336   4.148  10.299  0.00  0.00    +0.000 A 
BRANCH  12  13
ATOM     13  O   UNL     1      43.517   4.316  11.383  0.00  0.00    +0.000 OA
BRANCH  13  14
ATOM     14  C   UNL     1      43.837   3.664  12.612  0.00  0.00    +0.000 C 
ATOM     15  F   UNL     1      45.148   3.683  12.933  0.00  0.00    +0.000 F 
ATOM     16  F   UNL     1      43.136   4.232  13.619  0.00  0.00    +0.000 F 
ATOM     17  F   UNL     1      43.465   2.366  12.524  0.00  0.00    +0.000 F 
ENDBRANCH  13  14
ENDBRANCH  12  13
ENDBRANCH   5   7
BRANCH   1  18
ATOM     18  O   UNL     1      48.529   7.341  12.920  0.00  0.00    +0.000 OA
BRANCH  18  19
ATOM     19  C   UNL     1      48.738   7.689  14.302  0.00  0.00    +0.000 C 
BRANCH  19  25
ATOM     20  C   UNL     1      48.854   6.643  16.650  0.00  0.00    +0.000 A 
ATOM     21  C   UNL     1      48.553   5.529  17.465  0.00  0.00    +0.000 A 
ATOM     22  C   UNL     1      47.909   4.404  16.958  0.00  0.00    +0.000 A 
ATOM     23  C   UNL     1      47.610   4.411  15.615  0.00  0.00    +0.000 A 
ATOM     24  N   UNL     1      47.903   5.440  14.782  0.00  0.00    +0.000 NA
ATOM     25  C   UNL     1      48.484   6.564  15.298  0.00  0.00    +0.000 A 
BRANCH  22  26
ATOM     26  C   UNL     1      47.573   3.292  17.882  0.00  0.00    +0.000 C 
ATOM     27  N   UNL     1      48.346   3.097  18.997  0.00  0.00    +0.000 N 
ATOM     28  O   UNL     1      46.625   2.553  17.669  0.00  0.00    +0.000 OA
ATOM     29  H   UNL     1      49.155   3.623  19.266  0.00  0.00    +0.000 HD
ATOM     30  H   UNL     1      48.081   2.306  19.589  0.00  0.00    +0.000 HD
ENDBRANCH  22  26
BRANCH  20  32
ATOM     31  C   UNL     1      48.523   8.822  17.880  0.00  0.00    +0.000 C 
ATOM     32  C   UNL     1      49.545   7.842  17.284  0.00  0.00    +0.000 C 
ATOM     33  C   UNL     1      50.608   7.399  18.299  0.00  0.00    +0.000 C 
ENDBRANCH  20  32
ENDBRANCH  19  25
ENDBRANCH  18  19
ENDBRANCH   1  18
TORSDOF 8
ENDMDL
MODEL 2
REMARK VINA RESULT:    -7.348      1.834      2.681
REMARK INTER + INTRA:         -12.316
REMARK INTER:                 -10.248
REMARK INTRA:                  -2.068
REMARK UNBOUND:                -1.531
REMARK  Name = 
REMARK  10 active torsions:
REMARK  status: ('A' for Active; 'I' for Inactive)
REMARK    1  A    between atoms: C_1  and  C_2
REMARK    2  A    between atoms: C_2  and  C_3
REMARK    3  A    between atoms: C_2  and  C_4
REMARK    4  A    between atoms: C_6  and  C_7
REMARK    5  A    between atoms: C_12  and  C_13
REMARK    6  A    between atoms: C_13  and  O_14
REMARK    7  A    between atoms: O_14  and  C_15
REMARK    8  A    between atoms: C_19  and  C_20
REMARK    9  A    between atoms: C_25  and  O_26
REMARK   10  A    between atoms: O_26  and  C_27
REMARK                            x       y       z     vdW  Elec       q    Type
REMARK                         _______ _______ _______ _____ _____    ______ ____
ROOT
ATOM      1  C   UNL     1      47.373   7.184  13.061  0.00  0.00    +0.000 A 
ATOM      2  C   UNL     1      46.577   8.295  13.302  0.00  0.00    +0.000 A 
ATOM      3  C   UNL     1      45.446   8.506  12.516  0.00  0.00    +0.000 A 
ATOM      4  C   UNL     1      45.097   7.598  11.502  0.00  0.00    +0.000 A 
ATOM      5  C   UNL     1      45.890   6.477  11.209  0.00  0.00    +0.000 A 
ATOM      6  C   UNL     1      47.054   6.326  11.998  0.00  0.00    +0.000 A 
ENDROOT
BRANCH   5   7
ATOM      7  C   UNL     1      45.482   5.423  10.218  0.00  0.00    +0.000 A 
ATOM      8  C   UNL     1      46.180   5.357   8.988  0.00  0.00    +0.000 A 
ATOM      9  C   UNL     1      45.931   4.376   8.028  0.00  0.00    +0.000 A 
ATOM     10  C   UNL     1      45.020   3.372   8.299  0.00  0.00    +0.000 A 
ATOM     11  C   UNL     1      44.325   3.385   9.505  0.00  0.00    +0.000 A 
ATOM     12  C   UNL     1      44.477   4.438  10.426  0.00  0.00    +0.000 A 
BRANCH  12  13
ATOM     13  O   UNL     1      43.687   4.538  11.540  0.00  0.00    +0.000 OA
BRANCH  13  14
ATOM     14  C   UNL     1      44.110   3.923  12.756  0.00  0.00    +0.000 C 
ATOM     15  F   UNL     1      43.190   3.117  13.328  0.00  0.00    +0.000 F 
ATOM     16  F   UNL     1      45.234   3.206  12.532  0.00  0.00    +0.000 F 
ATOM     17  F   UNL     1      44.405   4.892  13.653  0.00  0.00    +0.000 F 
ENDBRANCH  13  14
ENDBRANCH  12  13
ENDBRANCH   5   7
BRANCH   1  18
ATOM     18  O   UNL     1      48.479   6.816  13.782  0.00  0.00    +0.000 OA
BRANCH  18  19
ATOM     19  C   UNL     1      48.486   7.120  15.190  0.00  0.00    +0.000 C 
BRANCH  19  25
ATOM     20  C   UNL     1      48.850   4.990  16.587  0.00  0.00    +0.000 A 
ATOM     21  C   UNL     1      49.749   4.222  17.360  0.00  0.00    +0.000 A 
ATOM     22  C   UNL     1      51.063   4.628  17.574  0.00  0.00    +0.000 A 
ATOM     23  C   UNL     1      51.438   5.835  17.028  0.00  0.00    +0.000 A 
ATOM     24  N   UNL     1      50.608   6.625  16.303  0.00  0.00    +0.000 NA
ATOM     25  C   UNL     1      49.337   6.192  16.048  0.00  0.00    +0.000 A 
BRANCH  22  26
ATOM     26  C   UNL     1      51.970   3.746  18.350  0.00  0.00    +0.000 C 
ATOM     27  N   UNL     1      52.155   3.993  19.686  0.00  0.00    +0.000 N 
ATOM     28  O   UNL     1      52.549   2.810  17.825  0.00  0.00    +0.000 OA
ATOM     29  H   UNL     1      51.752   4.739  20.220  0.00  0.00    +0.000 HD
ATOM     30  H   UNL     1      52.804   3.367  20.168  0.00  0.00    +0.000 HD
ENDBRANCH  22  26
BRANCH  20  32
ATOM     31  C   UNL     1      47.257   3.868  14.983  0.00  0.00    +0.000 C 
ATOM     32  C   UNL     1      47.435   4.468  16.385  0.00  0.00    +0.000 C 
ATOM     33  C   UNL     1      47.036   3.495  17.504  0.00  0.00    +0.000 C 
ENDBRANCH  20  32
ENDBRANCH  19  25
ENDBRANCH  18  19
ENDBRANCH   1  18
TORSDOF 8
ENDMDL
MODEL 3
REMARK VINA RESULT:    -7.190      3.081      8.194
REMARK INTER + INTRA:         -12.084
REMARK INTER:                  -9.774
REMARK INTRA:                  -2.310
REMARK UNBOUND:                -1.531
REMARK  Name = 
REMARK  10 active torsions:
REMARK  status: ('A' for Active; 'I' for Inactive)
REMARK    1  A    between atoms: C_1  and  C_2
REMARK    2  A    between atoms: C_2  and  C_3
REMARK    3  A    between atoms: C_2  and  C_4
REMARK    4  A    between atoms: C_6  and  C_7
REMARK    5  A    between atoms: C_12  and  C_13
REMARK    6  A    between atoms: C_13  and  O_14
REMARK    7  A    between atoms: O_14  and  C_15
REMARK    8  A    between atoms: C_19  and  C_20
REMARK    9  A    between atoms: C_25  and  O_26
REMARK   10  A    between atoms: O_26  and  C_27
REMARK                            x       y       z     vdW  Elec       q    Type
REMARK                         _______ _______ _______ _____ _____    ______ ____
ROOT
ATOM      1  C   UNL     1      47.724   3.776  16.144  0.00  0.00    +0.000 A 
ATOM      2  C   UNL     1      48.260   2.774  16.941  0.00  0.00    +0.000 A 
ATOM      3  C   UNL     1      48.896   3.118  18.132  0.00  0.00    +0.000 A 
ATOM      4  C   UNL     1      48.982   4.460  18.538  0.00  0.00    +0.000 A 
ATOM      5  C   UNL     1      48.476   5.506  17.748  0.00  0.00    +0.000 A 
ATOM      6  C   UNL     1      47.881   5.117  16.525  0.00  0.00    +0.000 A 
ENDROOT
BRANCH   5   7
ATOM      7  C   UNL     1      48.441   6.935  18.209  0.00  0.00    +0.000 A 
ATOM      8  C   UNL     1      47.510   7.290  19.216  0.00  0.00    +0.000 A 
ATOM      9  C   UNL     1      47.440   8.570  19.765  0.00  0.00    +0.000 A 
ATOM     10  C   UNL     1      48.357   9.529  19.377  0.00  0.00    +0.000 A 
ATOM     11  C   UNL     1      49.303   9.219  18.406  0.00  0.00    +0.000 A 
ATOM     12  C   UNL     1      49.303   7.972  17.756  0.00  0.00    +0.000 A 
BRANCH  12  13
ATOM     13  O   UNL     1      50.129   7.714  16.695  0.00  0.00    +0.000 OA
BRANCH  13  14
ATOM     14  C   UNL     1      49.692   8.026  15.373  0.00  0.00    +0.000 C 
ATOM     15  F   UNL     1      50.383   9.019  14.772  0.00  0.00    +0.000 F 
ATOM     16  F   UNL     1      49.765   6.920  14.600  0.00  0.00    +0.000 F 
ATOM     17  F   UNL     1      48.397   8.415  15.425  0.00  0.00    +0.000 F 
ENDBRANCH  13  14
ENDBRANCH  12  13
ENDBRANCH   5   7
BRANCH   1  18
ATOM     18  O   UNL     1      47.024   3.589  14.980  0.00  0.00    +0.000 OA
BRANCH  18  19
ATOM     19  C   UNL     1      46.187   4.670  14.527  0.00  0.00    +0.000 C 
BRANCH  19  25
ATOM     20  C   UNL     1      46.175   5.824  12.227  0.00  0.00    +0.000 A 
ATOM     21  C   UNL     1      45.889   5.710  10.848  0.00  0.00    +0.000 A 
ATOM     22  C   UNL     1      45.388   4.534  10.298  0.00  0.00    +0.000 A 
ATOM     23  C   UNL     1      45.148   3.494  11.168  0.00  0.00    +0.000 A 
ATOM     24  N   UNL     1      45.376   3.559  12.503  0.00  0.00    +0.000 NA
ATOM     25  C   UNL     1      45.922   4.697  13.026  0.00  0.00    +0.000 A 
BRANCH  22  26
ATOM     26  C   UNL     1      45.162   4.464   8.833  0.00  0.00    +0.000 C 
ATOM     27  N   UNL     1      43.940   4.052   8.368  0.00  0.00    +0.000 N 
ATOM     28  O   UNL     1      46.037   4.769   8.040  0.00  0.00    +0.000 OA
ATOM     29  H   UNL     1      43.155   3.760   8.918  0.00  0.00    +0.000 HD
ATOM     30  H   UNL     1      43.845   4.006   7.350  0.00  0.00    +0.000 HD
ENDBRANCH  22  26
BRANCH  20  32
ATOM     31  C   UNL     1      47.967   7.577  11.938  0.00  0.00    +0.000 C 
ATOM     32  C   UNL     1      46.737   7.139  12.747  0.00  0.00    +0.000 C 
ATOM     33  C   UNL     1      45.651   8.221  12.812  0.00  0.00    +0.000 C 
ENDBRANCH  20  32
ENDBRANCH  19  25
ENDBRANCH  18  19
ENDBRANCH   1  18
TORSDOF 8
ENDMDL
MODEL 4
REMARK VINA RESULT:    -7.079      3.332      8.333
REMARK INTER + INTRA:         -11.921
REMARK INTER:                 -10.154
REMARK INTRA:                  -1.767
REMARK UNBOUND:                -1.531
REMARK  Name = 
REMARK  10 active torsions:
REMARK  status: ('A' for Active; 'I' for Inactive)
REMARK    1  A    between atoms: C_1  and  C_2
REMARK    2  A    between atoms: C_2  and  C_3
REMARK    3  A    between atoms: C_2  and  C_4
REMARK    4  A    between atoms: C_6  and  C_7
REMARK    5  A    between atoms: C_12  and  C_13
REMARK    6  A    between atoms: C_13  and  O_14
REMARK    7  A    between atoms: O_14  and  C_15
REMARK    8  A    between atoms: C_19  and  C_20
REMARK    9  A    between atoms: C_25  and  O_26
REMARK   10  A    between atoms: O_26  and  C_27
REMARK                            x       y       z     vdW  Elec       q    Type
REMARK                         _______ _______ _______ _____ _____    ______ ____
ROOT
ATOM      1  C   UNL     1      47.893   3.788  16.265  0.00  0.00    +0.000 A 
ATOM      2  C   UNL     1      48.463   2.582  16.650  0.00  0.00    +0.000 A 
ATOM      3  C   UNL     1      49.634   2.592  17.406  0.00  0.00    +0.000 A 
ATOM      4  C   UNL     1      50.226   3.805  17.795  0.00  0.00    +0.000 A 
ATOM      5  C   UNL     1      49.696   5.046  17.405  0.00  0.00    +0.000 A 
ATOM      6  C   UNL     1      48.534   4.990  16.599  0.00  0.00    +0.000 A 
ENDROOT
BRANCH   5   7
ATOM      7  C   UNL     1      50.231   6.358  17.905  0.00  0.00    +0.000 A 
ATOM      8  C   UNL     1      51.192   7.033  17.114  0.00  0.00    +0.000 A 
ATOM      9  C   UNL     1      51.702   8.288  17.448  0.00  0.00    +0.000 A 
ATOM     10  C   UNL     1      51.207   8.951  18.556  0.00  0.00    +0.000 A 
ATOM     11  C   UNL     1      50.246   8.335  19.351  0.00  0.00    +0.000 A 
ATOM     12  C   UNL     1      49.817   7.020  19.094  0.00  0.00    +0.000 A 
BRANCH  12  13
ATOM     13  O   UNL     1      48.990   6.352  19.957  0.00  0.00    +0.000 OA
BRANCH  13  14
ATOM     14  C   UNL     1      47.580   6.560  19.878  0.00  0.00    +0.000 C 
ATOM     15  F   UNL     1      46.997   6.916  21.043  0.00  0.00    +0.000 F 
ATOM     16  F   UNL     1      47.315   7.511  18.954  0.00  0.00    +0.000 F 
ATOM     17  F   UNL     1      46.994   5.409  19.473  0.00  0.00    +0.000 F 
ENDBRANCH  13  14
ENDBRANCH  12  13
ENDBRANCH   5   7
BRANCH   1  18
ATOM     18  O   UNL     1      46.721   3.937  15.572  0.00  0.00    +0.000 OA
BRANCH  18  19
ATOM     19  C   UNL     1      46.631   5.035  14.644  0.00  0.00    +0.000 C 
BRANCH  19  25
ATOM     20  C   UNL     1      45.933   5.616  12.236  0.00  0.00    +0.000 A 
ATOM     21  C   UNL     1      45.379   5.154  11.021  0.00  0.00    +0.000 A 
ATOM     22  C   UNL     1      44.971   3.834  10.858  0.00  0.00    +0.000 A 
ATOM     23  C   UNL     1      45.098   3.004  11.948  0.00  0.00    +0.000 A 
ATOM     24  N   UNL     1      45.596   3.402  13.145  0.00  0.00    +0.000 NA
ATOM     25  C   UNL     1      46.048   4.684  13.281  0.00  0.00    +0.000 A 
BRANCH  22  26
ATOM     26  C   UNL     1      44.448   3.402   9.538  0.00  0.00    +0.000 C 
ATOM     27  N   UNL     1      44.003   4.353   8.656  0.00  0.00    +0.000 N 
ATOM     28  O   UNL     1      44.409   2.223   9.224  0.00  0.00    +0.000 OA
ATOM     29  H   UNL     1      43.967   5.342   8.807  0.00  0.00    +0.000 HD
ATOM     30  H   UNL     1      43.636   3.999   7.769  0.00  0.00    +0.000 HD
ENDBRANCH  22  26
BRANCH  20  32
ATOM     31  C   UNL     1      47.747   7.280  11.680  0.00  0.00    +0.000 C 
ATOM     32  C   UNL     1      46.371   7.070  12.329  0.00  0.00    +0.000 C 
ATOM     33  C   UNL     1      45.297   8.011  11.767  0.00  0.00    +0.000 C 
ENDBRANCH  20  32
ENDBRANCH  19  25
ENDBRANCH  18  19
ENDBRANCH   1  18
TORSDOF 8
ENDMDL
MODEL 5
REMARK VINA RESULT:    -6.940      3.070      4.803
REMARK INTER + INTRA:         -11.717
REMARK INTER:                  -9.682
REMARK INTRA:                  -2.035
REMARK UNBOUND:                -1.531
REMARK  Name = 
REMARK  10 active torsions:
REMARK  status: ('A' for Active; 'I' for Inactive)
REMARK    1  A    between atoms: C_1  and  C_2
REMARK    2  A    between atoms: C_2  and  C_3
REMARK    3  A    between atoms: C_2  and  C_4
REMARK    4  A    between atoms: C_6  and  C_7
REMARK    5  A    between atoms: C_12  and  C_13
REMARK    6  A    between atoms: C_13  and  O_14
REMARK    7  A    between atoms: O_14  and  C_15
REMARK    8  A    between atoms: C_19  and  C_20
REMARK    9  A    between atoms: C_25  and  O_26
REMARK   10  A    between atoms: O_26  and  C_27
REMARK                            x       y       z     vdW  Elec       q    Type
REMARK                         _______ _______ _______ _____ _____    ______ ____
ROOT
ATOM      1  C   UNL     1      46.446   4.270  13.497  0.00  0.00    +0.000 A 
ATOM      2  C   UNL     1      45.548   3.854  12.524  0.00  0.00    +0.000 A 
ATOM      3  C   UNL     1      45.259   4.702  11.456  0.00  0.00    +0.000 A 
ATOM      4  C   UNL     1      45.881   5.957  11.348  0.00  0.00    +0.000 A 
ATOM      5  C   UNL     1      46.775   6.426  12.324  0.00  0.00    +0.000 A 
ATOM      6  C   UNL     1      47.004   5.555  13.416  0.00  0.00    +0.000 A 
ENDROOT
BRANCH   5   7
ATOM      7  C   UNL     1      47.550   7.705  12.177  0.00  0.00    +0.000 A 
ATOM      8  C   UNL     1      48.936   7.619  11.901  0.00  0.00    +0.000 A 
ATOM      9  C   UNL     1      49.735   8.741  11.676  0.00  0.00    +0.000 A 
ATOM     10  C   UNL     1      49.154   9.995  11.645  0.00  0.00    +0.000 A 
ATOM     11  C   UNL     1      47.791  10.126  11.891  0.00  0.00    +0.000 A 
ATOM     12  C   UNL     1      47.001   9.016  12.242  0.00  0.00    +0.000 A 
BRANCH  12  13
ATOM     13  O   UNL     1      45.696   9.157  12.634  0.00  0.00    +0.000 OA
BRANCH  13  14
ATOM     14  C   UNL     1      44.725   9.607  11.690  0.00  0.00    +0.000 C 
ATOM     15  F   UNL     1      45.241  10.199  10.591  0.00  0.00    +0.000 F 
ATOM     16  F   UNL     1      43.960   8.563  11.299  0.00  0.00    +0.000 F 
ATOM     17  F   UNL     1      43.922  10.513  12.292  0.00  0.00    +0.000 F 
ENDBRANCH  13  14
ENDBRANCH  12  13
ENDBRANCH   5   7
BRANCH   1  18
ATOM     18  O   UNL     1      46.869   3.529  14.570  0.00  0.00    +0.000 OA
BRANCH  18  19
ATOM     19  C   UNL     1      47.012   4.208  15.833  0.00  0.00    +0.000 C 
BRANCH  19  25
ATOM     20  C   UNL     1      49.186   5.157  16.828  0.00  0.00    +0.000 A 
ATOM     21  C   UNL     1      50.425   4.877  17.446  0.00  0.00    +0.000 A 
ATOM     22  C   UNL     1      50.827   3.574  17.724  0.00  0.00    +0.000 A 
ATOM     23  C   UNL     1      49.975   2.565  17.337  0.00  0.00    +0.000 A 
ATOM     24  N   UNL     1      48.789   2.776  16.714  0.00  0.00    +0.000 NA
ATOM     25  C   UNL     1      48.375   4.060  16.496  0.00  0.00    +0.000 A 
BRANCH  22  26
ATOM     26  C   UNL     1      52.117   3.354  18.425  0.00  0.00    +0.000 C 
ATOM     27  N   UNL     1      52.272   3.835  19.699  0.00  0.00    +0.000 N 
ATOM     28  O   UNL     1      53.035   2.753  17.891  0.00  0.00    +0.000 OA
ATOM     29  H   UNL     1      51.601   4.357  20.230  0.00  0.00    +0.000 HD
ATOM     30  H   UNL     1      53.186   3.672  20.127  0.00  0.00    +0.000 HD
ENDBRANCH  22  26
BRANCH  20  32
ATOM     31  C   UNL     1      48.816   7.423  17.876  0.00  0.00    +0.000 C 
ATOM     32  C   UNL     1      48.813   6.610  16.573  0.00  0.00    +0.000 C 
ATOM     33  C   UNL     1      49.698   7.229  15.483  0.00  0.00    +0.000 C 
ENDBRANCH  20  32
ENDBRANCH  19  25
ENDBRANCH  18  19
ENDBRANCH   1  18
TORSDOF 8
ENDMDL
MODEL 6
REMARK VINA RESULT:    -6.919      2.807      7.273
REMARK INTER + INTRA:         -11.686
REMARK INTER:                  -9.744
REMARK INTRA:                  -1.942
REMARK UNBOUND:                -1.531
REMARK  Name = 
REMARK  10 active torsions:
REMARK  status: ('A' for Active; 'I' for Inactive)
REMARK    1  A    between atoms: C_1  and  C_2
REMARK    2  A    between atoms: C_2  and  C_3
REMARK    3  A    between atoms: C_2  and  C_4
REMARK    4  A    between atoms: C_6  and  C_7
REMARK    5  A    between atoms: C_12  and  C_13
REMARK    6  A    between atoms: C_13  and  O_14
REMARK    7  A    between atoms: O_14  and  C_15
REMARK    8  A    between atoms: C_19  and  C_20
REMARK    9  A    between atoms: C_25  and  O_26
REMARK   10  A    between atoms: O_26  and  C_27
REMARK                            x       y       z     vdW  Elec       q    Type
REMARK                         _______ _______ _______ _____ _____    ______ ____
ROOT
ATOM      1  C   UNL     1      49.082   7.390  15.080  0.00  0.00    +0.000 A 
ATOM      2  C   UNL     1      48.648   8.703  15.205  0.00  0.00    +0.000 A 
ATOM      3  C   UNL     1      48.321   9.195  16.467  0.00  0.00    +0.000 A 
ATOM      4  C   UNL     1      48.445   8.385  17.608  0.00  0.00    +0.000 A 
ATOM      5  C   UNL     1      48.855   7.044  17.521  0.00  0.00    +0.000 A 
ATOM      6  C   UNL     1      49.131   6.570  16.217  0.00  0.00    +0.000 A 
ENDROOT
BRANCH   5   7
ATOM      7  C   UNL     1      49.116   6.189  18.729  0.00  0.00    +0.000 A 
ATOM      8  C   UNL     1      50.170   6.564  19.597  0.00  0.00    +0.000 A 
ATOM      9  C   UNL     1      50.454   5.883  20.782  0.00  0.00    +0.000 A 
ATOM     10  C   UNL     1      49.638   4.840  21.181  0.00  0.00    +0.000 A 
ATOM     11  C   UNL     1      48.577   4.450  20.368  0.00  0.00    +0.000 A 
ATOM     12  C   UNL     1      48.359   5.048  19.114  0.00  0.00    +0.000 A 
BRANCH  12  13
ATOM     13  O   UNL     1      47.415   4.569  18.244  0.00  0.00    +0.000 OA
BRANCH  13  14
ATOM     14  C   UNL     1      47.704   3.407  17.467  0.00  0.00    +0.000 C 
ATOM     15  F   UNL     1      47.489   3.550  16.142  0.00  0.00    +0.000 F 
ATOM     16  F   UNL     1      48.992   3.045  17.660  0.00  0.00    +0.000 F 
ATOM     17  F   UNL     1      46.915   2.394  17.893  0.00  0.00    +0.000 F 
ENDBRANCH  13  14
ENDBRANCH  12  13
ENDBRANCH   5   7
BRANCH   1  18
ATOM     18  O   UNL     1      49.490   6.787  13.920  0.00  0.00    +0.000 OA
BRANCH  18  19
ATOM     19  C   UNL     1      48.657   6.950  12.756  0.00  0.00    +0.000 C 
BRANCH  19  25
ATOM     20  C   UNL     1      46.102   6.837  12.478  0.00  0.00    +0.000 A 
ATOM     21  C   UNL     1      44.936   6.043  12.566  0.00  0.00    +0.000 A 
ATOM     22  C   UNL     1      44.987   4.708  12.955  0.00  0.00    +0.000 A 
ATOM     23  C   UNL     1      46.224   4.204  13.286  0.00  0.00    +0.000 A 
ATOM     24  N   UNL     1      47.370   4.928  13.248  0.00  0.00    +0.000 NA
ATOM     25  C   UNL     1      47.320   6.222  12.810  0.00  0.00    +0.000 A 
BRANCH  22  26
ATOM     26  C   UNL     1      43.732   3.917  12.974  0.00  0.00    +0.000 C 
ATOM     27  N   UNL     1      43.773   2.596  12.607  0.00  0.00    +0.000 N 
ATOM     28  O   UNL     1      42.671   4.416  13.310  0.00  0.00    +0.000 OA
ATOM     29  H   UNL     1      44.575   2.084  12.296  0.00  0.00    +0.000 HD
ATOM     30  H   UNL     1      42.876   2.104  12.620  0.00  0.00    +0.000 HD
ENDBRANCH  22  26
BRANCH  20  32
ATOM     31  C   UNL     1      44.703   8.484  11.174  0.00  0.00    +0.000 C 
ATOM     32  C   UNL     1      45.963   8.284  12.028  0.00  0.00    +0.000 C 
ATOM     33  C   UNL     1      46.034   9.247  13.222  0.00  0.00    +0.000 C 
ENDBRANCH  20  32
ENDBRANCH  19  25
ENDBRANCH  18  19
ENDBRANCH   1  18
TORSDOF 8
ENDMDL
MODEL 7
REMARK VINA RESULT:    -6.917      3.299      8.527
REMARK INTER + INTRA:         -11.683
REMARK INTER:                  -9.482
REMARK INTRA:                  -2.201
REMARK UNBOUND:                -1.531
REMARK  Name = 
REMARK  10 active torsions:
REMARK  status: ('A' for Active; 'I' for Inactive)
REMARK    1  A    between atoms: C_1  and  C_2
REMARK    2  A    between atoms: C_2  and  C_3
REMARK    3  A    between atoms: C_2  and  C_4
REMARK    4  A    between atoms: C_6  and  C_7
REMARK    5  A    between atoms: C_12  and  C_13
REMARK    6  A    between atoms: C_13  and  O_14
REMARK    7  A    between atoms: O_14  and  C_15
REMARK    8  A    between atoms: C_19  and  C_20
REMARK    9  A    between atoms: C_25  and  O_26
REMARK   10  A    between atoms: O_26  and  C_27
REMARK                            x       y       z     vdW  Elec       q    Type
REMARK                         _______ _______ _______ _____ _____    ______ ____
ROOT
ATOM      1  C   UNL     1      47.669   3.664  16.281  0.00  0.00    +0.000 A 
ATOM      2  C   UNL     1      48.542   2.620  16.552  0.00  0.00    +0.000 A 
ATOM      3  C   UNL     1      49.447   2.744  17.604  0.00  0.00    +0.000 A 
ATOM      4  C   UNL     1      49.470   3.902  18.399  0.00  0.00    +0.000 A 
ATOM      5  C   UNL     1      48.622   4.992  18.142  0.00  0.00    +0.000 A 
ATOM      6  C   UNL     1      47.751   4.844  17.036  0.00  0.00    +0.000 A 
ENDROOT
BRANCH   5   7
ATOM      7  C   UNL     1      48.533   6.190  19.044  0.00  0.00    +0.000 A 
ATOM      8  C   UNL     1      47.578   6.170  20.089  0.00  0.00    +0.000 A 
ATOM      9  C   UNL     1      47.458   7.197  21.026  0.00  0.00    +0.000 A 
ATOM     10  C   UNL     1      48.349   8.255  20.995  0.00  0.00    +0.000 A 
ATOM     11  C   UNL     1      49.318   8.306  19.997  0.00  0.00    +0.000 A 
ATOM     12  C   UNL     1      49.367   7.340  18.975  0.00  0.00    +0.000 A 
BRANCH  12  13
ATOM     13  O   UNL     1      50.216   7.466  17.908  0.00  0.00    +0.000 OA
BRANCH  13  14
ATOM     14  C   UNL     1      49.742   8.065  16.702  0.00  0.00    +0.000 C 
ATOM     15  F   UNL     1      48.414   8.311  16.681  0.00  0.00    +0.000 F 
ATOM     16  F   UNL     1      50.400   9.225  16.486  0.00  0.00    +0.000 F 
ATOM     17  F   UNL     1      50.010   7.233  15.670  0.00  0.00    +0.000 F 
ENDBRANCH  13  14
ENDBRANCH  12  13
ENDBRANCH   5   7
BRANCH   1  18
ATOM     18  O   UNL     1      46.692   3.666  15.321  0.00  0.00    +0.000 OA
BRANCH  18  19
ATOM     19  C   UNL     1      47.078   4.017  13.978  0.00  0.00    +0.000 C 
BRANCH  19  25
ATOM     20  C   UNL     1      45.420   5.676  12.920  0.00  0.00    +0.000 A 
ATOM     21  C   UNL     1      45.156   7.016  12.557  0.00  0.00    +0.000 A 
ATOM     22  C   UNL     1      46.074   8.034  12.797  0.00  0.00    +0.000 A 
ATOM     23  C   UNL     1      47.270   7.670  13.373  0.00  0.00    +0.000 A 
ATOM     24  N   UNL     1      47.586   6.396  13.714  0.00  0.00    +0.000 NA
ATOM     25  C   UNL     1      46.658   5.411  13.528  0.00  0.00    +0.000 A 
BRANCH  22  26
ATOM     26  C   UNL     1      45.711   9.428  12.440  0.00  0.00    +0.000 C 
ATOM     27  N   UNL     1      44.419   9.846  12.628  0.00  0.00    +0.000 N 
ATOM     28  O   UNL     1      46.537  10.204  11.989  0.00  0.00    +0.000 OA
ATOM     29  H   UNL     1      43.654   9.299  12.971  0.00  0.00    +0.000 HD
ATOM     30  H   UNL     1      44.219  10.810  12.348  0.00  0.00    +0.000 HD
ENDBRANCH  22  26
BRANCH  20  32
ATOM     31  C   UNL     1      42.945   5.182  12.872  0.00  0.00    +0.000 C 
ATOM     32  C   UNL     1      44.357   4.624  12.638  0.00  0.00    +0.000 C 
ATOM     33  C   UNL     1      44.533   4.015  11.241  0.00  0.00    +0.000 C 
ENDBRANCH  20  32
ENDBRANCH  19  25
ENDBRANCH  18  19
ENDBRANCH   1  18
TORSDOF 8
ENDMDL
MODEL 8
REMARK VINA RESULT:    -6.872      1.981      2.302
REMARK INTER + INTRA:         -11.617
REMARK INTER:                  -9.996
REMARK INTRA:                  -1.621
REMARK UNBOUND:                -1.531
REMARK  Name = 
REMARK  10 active torsions:
REMARK  status: ('A' for Active; 'I' for Inactive)
REMARK    1  A    between atoms: C_1  and  C_2
REMARK    2  A    between atoms: C_2  and  C_3
REMARK    3  A    between atoms: C_2  and  C_4
REMARK    4  A    between atoms: C_6  and  C_7
REMARK    5  A    between atoms: C_12  and  C_13
REMARK    6  A    between atoms: C_13  and  O_14
REMARK    7  A    between atoms: O_14  and  C_15
REMARK    8  A    between atoms: C_19  and  C_20
REMARK    9  A    between atoms: C_25  and  O_26
REMARK   10  A    between atoms: O_26  and  C_27
REMARK                            x       y       z     vdW  Elec       q    Type
REMARK                         _______ _______ _______ _____ _____    ______ ____
ROOT
ATOM      1  C   UNL     1      47.179   7.069  12.781  0.00  0.00    +0.000 A 
ATOM      2  C   UNL     1      46.252   8.063  13.061  0.00  0.00    +0.000 A 
ATOM      3  C   UNL     1      45.085   8.141  12.302  0.00  0.00    +0.000 A 
ATOM      4  C   UNL     1      44.834   7.215  11.276  0.00  0.00    +0.000 A 
ATOM      5  C   UNL     1      45.757   6.210  10.943  0.00  0.00    +0.000 A 
ATOM      6  C   UNL     1      46.949   6.196  11.707  0.00  0.00    +0.000 A 
ENDROOT
BRANCH   5   7
ATOM      7  C   UNL     1      45.466   5.131   9.939  0.00  0.00    +0.000 A 
ATOM      8  C   UNL     1      46.186   5.142   8.719  0.00  0.00    +0.000 A 
ATOM      9  C   UNL     1      46.045   4.150   7.748  0.00  0.00    +0.000 A 
ATOM     10  C   UNL     1      45.229   3.062   7.999  0.00  0.00    +0.000 A 
ATOM     11  C   UNL     1      44.519   2.999   9.194  0.00  0.00    +0.000 A 
ATOM     12  C   UNL     1      44.557   4.053  10.124  0.00  0.00    +0.000 A 
BRANCH  12  13
ATOM     13  O   UNL     1      43.744   4.068  11.226  0.00  0.00    +0.000 OA
BRANCH  13  14
ATOM     14  C   UNL     1      44.173   3.417  12.422  0.00  0.00    +0.000 C 
ATOM     15  F   UNL     1      43.422   2.354  12.783  0.00  0.00    +0.000 F 
ATOM     16  F   UNL     1      45.455   3.012  12.280  0.00  0.00    +0.000 F 
ATOM     17  F   UNL     1      44.125   4.305  13.441  0.00  0.00    +0.000 F 
ENDBRANCH  13  14
ENDBRANCH  12  13
ENDBRANCH   5   7
BRANCH   1  18
ATOM     18  O   UNL     1      48.338   6.833  13.472  0.00  0.00    +0.000 OA
BRANCH  18  19
ATOM     19  C   UNL     1      48.419   7.327  14.823  0.00  0.00    +0.000 C 
BRANCH  19  25
ATOM     20  C   UNL     1      50.710   6.964  15.937  0.00  0.00    +0.000 A 
ATOM     21  C   UNL     1      51.488   6.173  16.812  0.00  0.00    +0.000 A 
ATOM     22  C   UNL     1      50.961   5.055  17.452  0.00  0.00    +0.000 A 
ATOM     23  C   UNL     1      49.654   4.732  17.166  0.00  0.00    +0.000 A 
ATOM     24  N   UNL     1      48.872   5.439  16.313  0.00  0.00    +0.000 NA
ATOM     25  C   UNL     1      49.378   6.568  15.732  0.00  0.00    +0.000 A 
BRANCH  22  26
ATOM     26  C   UNL     1      51.818   4.300  18.400  0.00  0.00    +0.000 C 
ATOM     27  N   UNL     1      51.659   2.942  18.503  0.00  0.00    +0.000 N 
ATOM     28  O   UNL     1      52.657   4.862  19.084  0.00  0.00    +0.000 OA
ATOM     29  H   UNL     1      50.995   2.376  18.011  0.00  0.00    +0.000 HD
ATOM     30  H   UNL     1      52.262   2.475  19.184  0.00  0.00    +0.000 HD
ENDBRANCH  22  26
BRANCH  20  32
ATOM     31  C   UNL     1      51.205   9.428  16.174  0.00  0.00    +0.000 C 
ATOM     32  C   UNL     1      51.355   8.181  15.290  0.00  0.00    +0.000 C 
ATOM     33  C   UNL     1      52.813   7.897  14.902  0.00  0.00    +0.000 C 
ENDBRANCH  20  32
ENDBRANCH  19  25
ENDBRANCH  18  19
ENDBRANCH   1  18
TORSDOF 8
ENDMDL
MODEL 9
REMARK VINA RESULT:    -6.790      1.970      2.852
REMARK INTER + INTRA:         -11.496
REMARK INTER:                  -9.784
REMARK INTRA:                  -1.712
REMARK UNBOUND:                -1.531
REMARK  Name = 
REMARK  10 active torsions:
REMARK  status: ('A' for Active; 'I' for Inactive)
REMARK    1  A    between atoms: C_1  and  C_2
REMARK    2  A    between atoms: C_2  and  C_3
REMARK    3  A    between atoms: C_2  and  C_4
REMARK    4  A    between atoms: C_6  and  C_7
REMARK    5  A    between atoms: C_12  and  C_13
REMARK    6  A    between atoms: C_13  and  O_14
REMARK    7  A    between atoms: O_14  and  C_15
REMARK    8  A    between atoms: C_19  and  C_20
REMARK    9  A    between atoms: C_25  and  O_26
REMARK   10  A    between atoms: O_26  and  C_27
REMARK                            x       y       z     vdW  Elec       q    Type
REMARK                         _______ _______ _______ _____ _____    ______ ____
ROOT
ATOM      1  C   UNL     1      47.385   6.632  13.398  0.00  0.00    +0.000 A 
ATOM      2  C   UNL     1      46.816   7.885  13.577  0.00  0.00    +0.000 A 
ATOM      3  C   UNL     1      45.880   8.346  12.653  0.00  0.00    +0.000 A 
ATOM      4  C   UNL     1      45.496   7.550  11.561  0.00  0.00    +0.000 A 
ATOM      5  C   UNL     1      46.068   6.288  11.330  0.00  0.00    +0.000 A 
ATOM      6  C   UNL     1      47.048   5.878  12.264  0.00  0.00    +0.000 A 
ENDROOT
BRANCH   5   7
ATOM      7  C   UNL     1      45.593   5.361  10.246  0.00  0.00    +0.000 A 
ATOM      8  C   UNL     1      46.268   5.386   9.002  0.00  0.00    +0.000 A 
ATOM      9  C   UNL     1      45.956   4.521   7.953  0.00  0.00    +0.000 A 
ATOM     10  C   UNL     1      44.999   3.540   8.140  0.00  0.00    +0.000 A 
ATOM     11  C   UNL     1      44.324   3.465   9.355  0.00  0.00    +0.000 A 
ATOM     12  C   UNL     1      44.543   4.410  10.373  0.00  0.00    +0.000 A 
BRANCH  12  13
ATOM     13  O   UNL     1      43.775   4.435  11.507  0.00  0.00    +0.000 OA
BRANCH  13  14
ATOM     14  C   UNL     1      44.132   3.607  12.614  0.00  0.00    +0.000 C 
ATOM     15  F   UNL     1      43.224   2.655  12.919  0.00  0.00    +0.000 F 
ATOM     16  F   UNL     1      45.318   3.008  12.365  0.00  0.00    +0.000 F 
ATOM     17  F   UNL     1      44.278   4.386  13.710  0.00  0.00    +0.000 F 
ENDBRANCH  13  14
ENDBRANCH  12  13
ENDBRANCH   5   7
BRANCH   1  18
ATOM     18  O   UNL     1      48.272   6.024  14.247  0.00  0.00    +0.000 OA
BRANCH  18  19
ATOM     19  C   UNL     1      49.115   6.874  15.049  0.00  0.00    +0.000 C 
BRANCH  19  25
ATOM     20  C   UNL     1      48.459   5.911  17.343  0.00  0.00    +0.000 A 
ATOM     21  C   UNL     1      48.079   6.185  18.676  0.00  0.00    +0.000 A 
ATOM     22  C   UNL     1      47.949   7.488  19.147  0.00  0.00    +0.000 A 
ATOM     23  C   UNL     1      48.174   8.501  18.244  0.00  0.00    +0.000 A 
ATOM     24  N   UNL     1      48.512   8.295  16.947  0.00  0.00    +0.000 NA
ATOM     25  C   UNL     1      48.693   7.014  16.506  0.00  0.00    +0.000 A 
BRANCH  22  26
ATOM     26  C   UNL     1      47.600   7.704  20.574  0.00  0.00    +0.000 C 
ATOM     27  N   UNL     1      47.217   8.955  20.982  0.00  0.00    +0.000 N 
ATOM     28  O   UNL     1      47.645   6.793  21.384  0.00  0.00    +0.000 OA
ATOM     29  H   UNL     1      47.160   9.780  20.416  0.00  0.00    +0.000 HD
ATOM     30  H   UNL     1      47.005   9.052  21.978  0.00  0.00    +0.000 HD
ENDBRANCH  22  26
BRANCH  20  32
ATOM     31  C   UNL     1      49.852   3.813  17.511  0.00  0.00    +0.000 C 
ATOM     32  C   UNL     1      48.595   4.459  16.909  0.00  0.00    +0.000 C 
ATOM     33  C   UNL     1      47.315   3.666  17.210  0.00  0.00    +0.000 C 
ENDBRANCH  20  32
ENDBRANCH  19  25
ENDBRANCH  18  19
ENDBRANCH   1  18
TORSDOF 8
ENDMDL
