MODEL 1
REMARK VINA RESULT:    -7.483      0.000      0.000
REMARK INTER + INTRA:         -11.469
REMARK INTER:                 -10.326
REMARK INTRA:                  -1.143
REMARK UNBOUND:                -1.143
REMARK  Name = 
REMARK  7 active torsions:
REMARK  status: ('A' for Active; 'I' for Inactive)
REMARK    1  A    between atoms: C_2  and  C_4
REMARK    2  A    between atoms: C_8  and  C_9
REMARK    3  A    between atoms: C_9  and  C_10
REMARK    4  A    between atoms: C_10  and  C_11
REMARK    5  A    between atoms: C_11  and  C_12
REMARK    6  A    between atoms: C_16  and  C_17
REMARK    7  A    between atoms: C_17  and  N_18
REMARK                            x       y       z     vdW  Elec       q    Type
REMARK                         _______ _______ _______ _____ _____    ______ ____
ROOT
ATOM      1  C   UNL     1      43.594   3.833  12.662  0.00  0.00    +0.000 C 
ENDROOT
BRANCH   1   6
ATOM      2  C   UNL     1      45.693   7.011  12.844  0.00  0.00    +0.000 A 
ATOM      3  C   UNL     1      46.941   6.506  13.209  0.00  0.00    +0.000 A 
ATOM      4  C   UNL     1      47.111   5.132  13.388  0.00  0.00    +0.000 A 
ATOM      5  C   UNL     1      46.034   4.265  13.200  0.00  0.00    +0.000 A 
ATOM      6  C   UNL     1      44.778   4.758  12.813  0.00  0.00    +0.000 A 
ATOM      7  C   UNL     1      44.619   6.138  12.628  0.00  0.00    +0.000 A 
BRANCH   2   9
ATOM      8  N   UNL     1      46.248   9.285  13.403  0.00  0.00    +0.000 NA
ATOM      9  C   UNL     1      45.498   8.485  12.725  0.00  0.00    +0.000 C 
ATOM     10  N   UNL     1      44.502   8.980  11.931  0.00  0.00    +0.000 N 
ATOM     11  H   UNL     1      46.004  10.252  13.184  0.00  0.00    +0.000 HD
ATOM     12  H   UNL     1      44.178   9.905  12.179  0.00  0.00    +0.000 HD
ATOM     13  H   UNL     1      43.722   8.348  11.777  0.00  0.00    +0.000 HD
ENDBRANCH   2   9
ENDBRANCH   1   6
BRANCH   1  14
ATOM     14  C   UNL     1      43.241   3.642  11.184  0.00  0.00    +0.000 C 
BRANCH  14  15
ATOM     15  C   UNL     1      43.975   2.446  10.578  0.00  0.00    +0.000 C 
BRANCH  15  16
ATOM     16  C   UNL     1      44.888   2.859   9.449  0.00  0.00    +0.000 A 
ATOM     17  C   UNL     1      45.041   4.208   9.107  0.00  0.00    +0.000 A 
ATOM     18  C   UNL     1      45.918   4.583   8.088  0.00  0.00    +0.000 A 
ATOM     19  C   UNL     1      46.655   3.615   7.403  0.00  0.00    +0.000 A 
ATOM     20  C   UNL     1      46.512   2.258   7.721  0.00  0.00    +0.000 A 
ATOM     21  C   UNL     1      45.604   1.892   8.730  0.00  0.00    +0.000 A 
BRANCH  20  22
ATOM     22  C   UNL     1      47.314   1.202   7.004  0.00  0.00    +0.000 C 
BRANCH  22  23
ATOM     23  N   UNL     1      48.320   1.801   6.130  0.00  0.00    +0.000 NA
ATOM     24  H   UNL     1      49.069   1.123   5.986  0.00  0.00    +0.000 HD
ATOM     25  H   UNL     1      48.736   2.603   6.594  0.00  0.00    +0.000 HD
ENDBRANCH  22  23
ENDBRANCH  20  22
ENDBRANCH  15  16
ENDBRANCH  14  15
ENDBRANCH   1  14
TORSDOF 7
ENDMDL
MODEL 2
REMARK VINA RESULT:    -7.336      1.608      2.107
REMARK INTER + INTRA:         -11.267
REMARK INTER:                 -10.172
REMARK INTRA:                  -1.096
REMARK UNBOUND:                -1.143
REMARK  Name = 
REMARK  7 active torsions:
REMARK  status: ('A' for Active; 'I' for Inactive)
REMARK    1  A    between atoms: C_2  and  C_4
REMARK    2  A    between atoms: C_8  and  C_9
REMARK    3  A    between atoms: C_9  and  C_10
REMARK    4  A    between atoms: C_10  and  C_11
REMARK    5  A    between atoms: C_11  and  C_12
REMARK    6  A    between atoms: C_16  and  C_17
REMARK    7  A    between atoms: C_17  and  N_18
REMARK                            x       y       z     vdW  Elec       q    Type
REMARK                         _______ _______ _______ _____ _____    ______ ____
ROOT
ATOM      1  C   UNL     1      43.827   4.131  12.717  0.00  0.00    +0.000 C 
ENDROOT
BRANCH   1   6
ATOM      2  C   UNL     1      46.778   6.500  13.184  0.00  0.00    +0.000 A 
ATOM      3  C   UNL     1      46.387   7.595  12.413  0.00  0.00    +0.000 A 
ATOM      4  C   UNL     1      45.161   7.575  11.747  0.00  0.00    +0.000 A 
ATOM      5  C   UNL     1      44.326   6.462  11.853  0.00  0.00    +0.000 A 
ATOM      6  C   UNL     1      44.699   5.362  12.641  0.00  0.00    +0.000 A 
ATOM      7  C   UNL     1      45.928   5.394  13.312  0.00  0.00    +0.000 A 
BRANCH   2   9
ATOM      8  N   UNL     1      49.182   6.569  13.105  0.00  0.00    +0.000 NA
ATOM      9  C   UNL     1      48.120   6.495  13.833  0.00  0.00    +0.000 C 
ATOM     10  N   UNL     1      48.222   6.374  15.190  0.00  0.00    +0.000 N 
ATOM     11  H   UNL     1      50.009   6.584  13.705  0.00  0.00    +0.000 HD
ATOM     12  H   UNL     1      49.100   6.000  15.522  0.00  0.00    +0.000 HD
ATOM     13  H   UNL     1      47.435   5.913  15.639  0.00  0.00    +0.000 HD
ENDBRANCH   2   9
ENDBRANCH   1   6
BRANCH   1  14
ATOM     14  C   UNL     1      43.277   3.770  11.333  0.00  0.00    +0.000 C 
BRANCH  14  15
ATOM     15  C   UNL     1      43.994   2.559  10.738  0.00  0.00    +0.000 C 
BRANCH  15  16
ATOM     16  C   UNL     1      44.855   2.938   9.558  0.00  0.00    +0.000 A 
ATOM     17  C   UNL     1      45.008   4.278   9.183  0.00  0.00    +0.000 A 
ATOM     18  C   UNL     1      45.837   4.622   8.114  0.00  0.00    +0.000 A 
ATOM     19  C   UNL     1      46.527   3.631   7.413  0.00  0.00    +0.000 A 
ATOM     20  C   UNL     1      46.383   2.283   7.764  0.00  0.00    +0.000 A 
ATOM     21  C   UNL     1      45.522   1.948   8.823  0.00  0.00    +0.000 A 
BRANCH  20  22
ATOM     22  C   UNL     1      47.136   1.203   7.029  0.00  0.00    +0.000 C 
BRANCH  22  23
ATOM     23  N   UNL     1      48.423   1.690   6.541  0.00  0.00    +0.000 NA
ATOM     24  H   UNL     1      49.095   0.924   6.580  0.00  0.00    +0.000 HD
ATOM     25  H   UNL     1      48.768   2.415   7.163  0.00  0.00    +0.000 HD
ENDBRANCH  22  23
ENDBRANCH  20  22
ENDBRANCH  15  16
ENDBRANCH  14  15
ENDBRANCH   1  14
TORSDOF 7
ENDMDL
MODEL 3
REMARK VINA RESULT:    -7.336      0.812      6.517
REMARK INTER + INTRA:         -11.267
REMARK INTER:                 -10.037
REMARK INTRA:                  -1.230
REMARK UNBOUND:                -1.143
REMARK  Name = 
REMARK  7 active torsions:
REMARK  status: ('A' for Active; 'I' for Inactive)
REMARK    1  A    between atoms: C_2  and  C_4
REMARK    2  A    between atoms: C_8  and  C_9
REMARK    3  A    between atoms: C_9  and  C_10
REMARK    4  A    between atoms: C_10  and  C_11
REMARK    5  A    between atoms: C_11  and  C_12
REMARK    6  A    between atoms: C_16  and  C_17
REMARK    7  A    between atoms: C_17  and  N_18
REMARK                            x       y       z     vdW  Elec       q    Type
REMARK                         _______ _______ _______ _____ _____    ______ ____
ROOT
ATOM      1  C   UNL     1      43.902   2.386  10.612  0.00  0.00    +0.000 C 
ENDROOT
BRANCH   1   6
ATOM      2  C   UNL     1      46.511   2.485   7.833  0.00  0.00    +0.000 A 
ATOM      3  C   UNL     1      46.571   3.849   7.549  0.00  0.00    +0.000 A 
ATOM      4  C   UNL     1      45.773   4.745   8.264  0.00  0.00    +0.000 A 
ATOM      5  C   UNL     1      44.920   4.276   9.263  0.00  0.00    +0.000 A 
ATOM      6  C   UNL     1      44.864   2.908   9.572  0.00  0.00    +0.000 A 
ATOM      7  C   UNL     1      45.674   2.018   8.854  0.00  0.00    +0.000 A 
BRANCH   2   9
ATOM      8  N   UNL     1      47.036   0.265   7.067  0.00  0.00    +0.000 NA
ATOM      9  C   UNL     1      47.309   1.524   7.018  0.00  0.00    +0.000 C 
ATOM     10  N   UNL     1      48.348   1.976   6.254  0.00  0.00    +0.000 N 
ATOM     11  H   UNL     1      47.652  -0.245   6.431  0.00  0.00    +0.000 HD
ATOM     12  H   UNL     1      49.058   1.287   6.048  0.00  0.00    +0.000 HD
ATOM     13  H   UNL     1      48.764   2.848   6.569  0.00  0.00    +0.000 HD
ENDBRANCH   2   9
ENDBRANCH   1   6
BRANCH   1  14
ATOM     14  C   UNL     1      43.233   3.542  11.361  0.00  0.00    +0.000 C 
BRANCH  14  15
ATOM     15  C   UNL     1      43.788   3.696  12.776  0.00  0.00    +0.000 C 
BRANCH  15  16
ATOM     16  C   UNL     1      44.839   4.776  12.854  0.00  0.00    +0.000 A 
ATOM     17  C   UNL     1      46.151   4.474  13.240  0.00  0.00    +0.000 A 
ATOM     18  C   UNL     1      47.126   5.472  13.272  0.00  0.00    +0.000 A 
ATOM     19  C   UNL     1      46.802   6.782  12.913  0.00  0.00    +0.000 A 
ATOM     20  C   UNL     1      45.495   7.111  12.533  0.00  0.00    +0.000 A 
ATOM     21  C   UNL     1      44.516   6.102  12.533  0.00  0.00    +0.000 A 
BRANCH  20  22
ATOM     22  C   UNL     1      45.133   8.517  12.124  0.00  0.00    +0.000 C 
BRANCH  22  23
ATOM     23  N   UNL     1      44.056   8.524  11.139  0.00  0.00    +0.000 NA
ATOM     24  H   UNL     1      43.176   8.336  11.619  0.00  0.00    +0.000 HD
ATOM     25  H   UNL     1      44.197   7.764  10.479  0.00  0.00    +0.000 HD
ENDBRANCH  22  23
ENDBRANCH  20  22
ENDBRANCH  15  16
ENDBRANCH  14  15
ENDBRANCH   1  14
TORSDOF 7
ENDMDL
MODEL 4
REMARK VINA RESULT:    -7.298      2.352      6.469
REMARK INTER + INTRA:         -11.215
REMARK INTER:                 -10.085
REMARK INTRA:                  -1.130
REMARK UNBOUND:                -1.143
REMARK  Name = 
REMARK  7 active torsions:
REMARK  status: ('A' for Active; 'I' for Inactive)
REMARK    1  A    between atoms: C_2  and  C_4
REMARK    2  A    between atoms: C_8  and  C_9
REMARK    3  A    between atoms: C_9  and  C_10
REMARK    4  A    between atoms: C_10  and  C_11
REMARK    5  A    between atoms: C_11  and  C_12
REMARK    6  A    between atoms: C_16  and  C_17
REMARK    7  A    between atoms: C_17  and  N_18
REMARK                            x       y       z     vdW  Elec       q    Type
REMARK                         _______ _______ _______ _____ _____    ______ ____
ROOT
ATOM      1  C   UNL     1      43.837   2.990  10.696  0.00  0.00    +0.000 C 
ENDROOT
BRANCH   1   6
ATOM      2  C   UNL     1      46.395   2.274   7.961  0.00  0.00    +0.000 A 
ATOM      3  C   UNL     1      46.645   3.553   7.465  0.00  0.00    +0.000 A 
ATOM      4  C   UNL     1      45.993   4.655   8.021  0.00  0.00    +0.000 A 
ATOM      5  C   UNL     1      45.095   4.478   9.074  0.00  0.00    +0.000 A 
ATOM      6  C   UNL     1      44.849   3.198   9.596  0.00  0.00    +0.000 A 
ATOM      7  C   UNL     1      45.513   2.099   9.036  0.00  0.00    +0.000 A 
BRANCH   2   9
ATOM      8  N   UNL     1      47.892   1.269   6.368  0.00  0.00    +0.000 NA
ATOM      9  C   UNL     1      47.036   1.092   7.316  0.00  0.00    +0.000 C 
ATOM     10  N   UNL     1      46.688  -0.171   7.704  0.00  0.00    +0.000 N 
ATOM     11  H   UNL     1      48.255   0.365   6.060  0.00  0.00    +0.000 HD
ATOM     12  H   UNL     1      46.844  -0.889   7.010  0.00  0.00    +0.000 HD
ATOM     13  H   UNL     1      45.762  -0.253   8.114  0.00  0.00    +0.000 HD
ENDBRANCH   2   9
ENDBRANCH   1   6
BRANCH   1  14
ATOM     14  C   UNL     1      43.119   4.302  11.028  0.00  0.00    +0.000 C 
BRANCH  14  15
ATOM     15  C   UNL     1      43.316   4.700  12.490  0.00  0.00    +0.000 C 
BRANCH  15  16
ATOM     16  C   UNL     1      44.721   5.183  12.758  0.00  0.00    +0.000 A 
ATOM     17  C   UNL     1      45.277   6.225  12.005  0.00  0.00    +0.000 A 
ATOM     18  C   UNL     1      46.562   6.691  12.285  0.00  0.00    +0.000 A 
ATOM     19  C   UNL     1      47.303   6.126  13.325  0.00  0.00    +0.000 A 
ATOM     20  C   UNL     1      46.772   5.077  14.086  0.00  0.00    +0.000 A 
ATOM     21  C   UNL     1      45.488   4.598  13.774  0.00  0.00    +0.000 A 
BRANCH  20  22
ATOM     22  C   UNL     1      47.552   4.468  15.224  0.00  0.00    +0.000 C 
BRANCH  22  23
ATOM     23  N   UNL     1      47.719   3.029  15.044  0.00  0.00    +0.000 NA
ATOM     24  H   UNL     1      48.392   2.872  14.294  0.00  0.00    +0.000 HD
ATOM     25  H   UNL     1      46.839   2.622  14.738  0.00  0.00    +0.000 HD
ENDBRANCH  22  23
ENDBRANCH  20  22
ENDBRANCH  15  16
ENDBRANCH  14  15
ENDBRANCH   1  14
TORSDOF 7
ENDMDL
MODEL 5
REMARK VINA RESULT:    -7.204      2.390      3.231
REMARK INTER + INTRA:         -11.085
REMARK INTER:                 -10.347
REMARK INTRA:                  -0.738
REMARK UNBOUND:                -1.143
REMARK  Name = 
REMARK  7 active torsions:
REMARK  status: ('A' for Active; 'I' for Inactive)
REMARK    1  A    between atoms: C_2  and  C_4
REMARK    2  A    between atoms: C_8  and  C_9
REMARK    3  A    between atoms: C_9  and  C_10
REMARK    4  A    between atoms: C_10  and  C_11
REMARK    5  A    between atoms: C_11  and  C_12
REMARK    6  A    between atoms: C_16  and  C_17
REMARK    7  A    between atoms: C_17  and  N_18
REMARK                            x       y       z     vdW  Elec       q    Type
REMARK                         _______ _______ _______ _____ _____    ______ ____
ROOT
ATOM      1  C   UNL     1      45.839   5.994  10.437  0.00  0.00    +0.000 C 
ENDROOT
BRANCH   1   6
ATOM      2  C   UNL     1      47.274   5.451  13.928  0.00  0.00    +0.000 A 
ATOM      3  C   UNL     1      48.056   6.594  14.094  0.00  0.00    +0.000 A 
ATOM      4  C   UNL     1      48.114   7.551  13.079  0.00  0.00    +0.000 A 
ATOM      5  C   UNL     1      47.389   7.366  11.902  0.00  0.00    +0.000 A 
ATOM      6  C   UNL     1      46.583   6.230  11.730  0.00  0.00    +0.000 A 
ATOM      7  C   UNL     1      46.525   5.278  12.757  0.00  0.00    +0.000 A 
BRANCH   2   9
ATOM      8  N   UNL     1      47.420   3.160  14.649  0.00  0.00    +0.000 NA
ATOM      9  C   UNL     1      47.273   4.397  14.982  0.00  0.00    +0.000 C 
ATOM     10  N   UNL     1      47.078   4.739  16.290  0.00  0.00    +0.000 N 
ATOM     11  H   UNL     1      47.426   2.576  15.487  0.00  0.00    +0.000 HD
ATOM     12  H   UNL     1      46.712   4.001  16.876  0.00  0.00    +0.000 HD
ATOM     13  H   UNL     1      46.569   5.607  16.435  0.00  0.00    +0.000 HD
ENDBRANCH   2   9
ENDBRANCH   1   6
BRANCH   1  14
ATOM     14  C   UNL     1      44.841   4.842  10.588  0.00  0.00    +0.000 C 
BRANCH  14  15
ATOM     15  C   UNL     1      44.262   4.415   9.240  0.00  0.00    +0.000 C 
BRANCH  15  16
ATOM     16  C   UNL     1      45.109   3.360   8.571  0.00  0.00    +0.000 A 
ATOM     17  C   UNL     1      45.205   2.071   9.108  0.00  0.00    +0.000 A 
ATOM     18  C   UNL     1      45.959   1.091   8.462  0.00  0.00    +0.000 A 
ATOM     19  C   UNL     1      46.621   1.386   7.269  0.00  0.00    +0.000 A 
ATOM     20  C   UNL     1      46.549   2.672   6.717  0.00  0.00    +0.000 A 
ATOM     21  C   UNL     1      45.809   3.657   7.394  0.00  0.00    +0.000 A 
BRANCH  20  22
ATOM     22  C   UNL     1      47.243   3.002   5.420  0.00  0.00    +0.000 C 
BRANCH  22  23
ATOM     23  N   UNL     1      48.411   2.151   5.211  0.00  0.00    +0.000 NA
ATOM     24  H   UNL     1      48.826   2.388   4.310  0.00  0.00    +0.000 HD
ATOM     25  H   UNL     1      48.115   1.181   5.151  0.00  0.00    +0.000 HD
ENDBRANCH  22  23
ENDBRANCH  20  22
ENDBRANCH  15  16
ENDBRANCH  14  15
ENDBRANCH   1  14
TORSDOF 7
ENDMDL
MODEL 6
REMARK VINA RESULT:    -6.766      2.274      6.459
REMARK INTER + INTRA:         -10.481
REMARK INTER:                  -9.682
REMARK INTRA:                  -0.799
REMARK UNBOUND:                -1.143
REMARK  Name = 
REMARK  7 active torsions:
REMARK  status: ('A' for Active; 'I' for Inactive)
REMARK    1  A    between atoms: C_2  and  C_4
REMARK    2  A    between atoms: C_8  and  C_9
REMARK    3  A    between atoms: C_9  and  C_10
REMARK    4  A    between atoms: C_10  and  C_11
REMARK    5  A    between atoms: C_11  and  C_12
REMARK    6  A    between atoms: C_16  and  C_17
REMARK    7  A    between atoms: C_17  and  N_18
REMARK                            x       y       z     vdW  Elec       q    Type
REMARK                         _______ _______ _______ _____ _____    ______ ____
ROOT
ATOM      1  C   UNL     1      44.371   4.860   9.568  0.00  0.00    +0.000 C 
ENDROOT
BRANCH   1   6
ATOM      2  C   UNL     1      46.522   2.632   7.345  0.00  0.00    +0.000 A 
ATOM      3  C   UNL     1      46.216   1.362   7.835  0.00  0.00    +0.000 A 
ATOM      4  C   UNL     1      45.303   1.221   8.882  0.00  0.00    +0.000 A 
ATOM      5  C   UNL     1      44.696   2.349   9.435  0.00  0.00    +0.000 A 
ATOM      6  C   UNL     1      44.980   3.631   8.938  0.00  0.00    +0.000 A 
ATOM      7  C   UNL     1      45.892   3.761   7.883  0.00  0.00    +0.000 A 
BRANCH   2   9
ATOM      8  N   UNL     1      47.204   3.206   5.110  0.00  0.00    +0.000 NA
ATOM      9  C   UNL     1      47.552   2.783   6.277  0.00  0.00    +0.000 C 
ATOM     10  N   UNL     1      48.850   2.438   6.527  0.00  0.00    +0.000 N 
ATOM     11  H   UNL     1      48.028   3.280   4.512  0.00  0.00    +0.000 HD
ATOM     12  H   UNL     1      49.393   2.198   5.709  0.00  0.00    +0.000 HD
ATOM     13  H   UNL     1      48.977   1.751   7.265  0.00  0.00    +0.000 HD
ENDBRANCH   2   9
ENDBRANCH   1   6
BRANCH   1  14
ATOM     14  C   UNL     1      43.401   4.472  10.688  0.00  0.00    +0.000 C 
BRANCH  14  15
ATOM     15  C   UNL     1      43.293   5.567  11.748  0.00  0.00    +0.000 C 
BRANCH  15  16
ATOM     16  C   UNL     1      44.645   5.959  12.292  0.00  0.00    +0.000 A 
ATOM     17  C   UNL     1      45.232   7.181  11.943  0.00  0.00    +0.000 A 
ATOM     18  C   UNL     1      46.465   7.552  12.481  0.00  0.00    +0.000 A 
ATOM     19  C   UNL     1      47.122   6.710  13.380  0.00  0.00    +0.000 A 
ATOM     20  C   UNL     1      46.559   5.478  13.738  0.00  0.00    +0.000 A 
ATOM     21  C   UNL     1      45.331   5.104  13.166  0.00  0.00    +0.000 A 
BRANCH  20  22
ATOM     22  C   UNL     1      47.247   4.565  14.721  0.00  0.00    +0.000 C 
BRANCH  22  23
ATOM     23  N   UNL     1      47.338   3.202  14.206  0.00  0.00    +0.000 NA
ATOM     24  H   UNL     1      47.851   2.634  14.881  0.00  0.00    +0.000 HD
ATOM     25  H   UNL     1      47.882   3.200  13.348  0.00  0.00    +0.000 HD
ENDBRANCH  22  23
ENDBRANCH  20  22
ENDBRANCH  15  16
ENDBRANCH  14  15
ENDBRANCH   1  14
TORSDOF 7
ENDMDL
MODEL 7
REMARK VINA RESULT:    -6.558      1.400      2.216
REMARK INTER + INTRA:         -10.193
REMARK INTER:                  -9.543
REMARK INTRA:                  -0.650
REMARK UNBOUND:                -1.143
REMARK  Name = 
REMARK  7 active torsions:
REMARK  status: ('A' for Active; 'I' for Inactive)
REMARK    1  A    between atoms: C_2  and  C_4
REMARK    2  A    between atoms: C_8  and  C_9
REMARK    3  A    between atoms: C_9  and  C_10
REMARK    4  A    between atoms: C_10  and  C_11
REMARK    5  A    between atoms: C_11  and  C_12
REMARK    6  A    between atoms: C_16  and  C_17
REMARK    7  A    between atoms: C_17  and  N_18
REMARK                            x       y       z     vdW  Elec       q    Type
REMARK                         _______ _______ _______ _____ _____    ______ ____
ROOT
ATOM      1  C   UNL     1      45.509   4.518  11.362  0.00  0.00    +0.000 C 
ENDROOT
BRANCH   1   6
ATOM      2  C   UNL     1      45.014   8.270  11.827  0.00  0.00    +0.000 A 
ATOM      3  C   UNL     1      46.147   8.616  12.564  0.00  0.00    +0.000 A 
ATOM      4  C   UNL     1      47.081   7.636  12.906  0.00  0.00    +0.000 A 
ATOM      5  C   UNL     1      46.884   6.314  12.508  0.00  0.00    +0.000 A 
ATOM      6  C   UNL     1      45.759   5.956  11.749  0.00  0.00    +0.000 A 
ATOM      7  C   UNL     1      44.830   6.947  11.404  0.00  0.00    +0.000 A 
BRANCH   2   9
ATOM      8  N   UNL     1      43.078   9.065  10.641  0.00  0.00    +0.000 NA
ATOM      9  C   UNL     1      43.983   9.304  11.528  0.00  0.00    +0.000 C 
ATOM     10  N   UNL     1      44.023  10.513  12.164  0.00  0.00    +0.000 N 
ATOM     11  H   UNL     1      42.438   9.859  10.581  0.00  0.00    +0.000 HD
ATOM     12  H   UNL     1      43.573  11.271  11.670  0.00  0.00    +0.000 HD
ATOM     13  H   UNL     1      44.940  10.789  12.502  0.00  0.00    +0.000 HD
ENDBRANCH   2   9
ENDBRANCH   1   6
BRANCH   1  14
ATOM     14  C   UNL     1      44.130   4.363  10.711  0.00  0.00    +0.000 C 
BRANCH  14  15
ATOM     15  C   UNL     1      44.216   4.414   9.187  0.00  0.00    +0.000 C 
BRANCH  15  16
ATOM     16  C   UNL     1      45.092   3.316   8.634  0.00  0.00    +0.000 A 
ATOM     17  C   UNL     1      44.926   1.989   9.050  0.00  0.00    +0.000 A 
ATOM     18  C   UNL     1      45.714   0.975   8.505  0.00  0.00    +0.000 A 
ATOM     19  C   UNL     1      46.672   1.273   7.534  0.00  0.00    +0.000 A 
ATOM     20  C   UNL     1      46.863   2.594   7.109  0.00  0.00    +0.000 A 
ATOM     21  C   UNL     1      46.082   3.610   7.688  0.00  0.00    +0.000 A 
BRANCH  20  22
ATOM     22  C   UNL     1      47.880   2.931   6.048  0.00  0.00    +0.000 C 
BRANCH  22  23
ATOM     23  N   UNL     1      48.570   1.735   5.574  0.00  0.00    +0.000 NA
ATOM     24  H   UNL     1      48.705   1.817   4.566  0.00  0.00    +0.000 HD
ATOM     25  H   UNL     1      47.978   0.922   5.725  0.00  0.00    +0.000 HD
ENDBRANCH  22  23
ENDBRANCH  20  22
ENDBRANCH  15  16
ENDBRANCH  14  15
ENDBRANCH   1  14
TORSDOF 7
ENDMDL
MODEL 8
REMARK VINA RESULT:    -6.064      2.203      6.776
REMARK INTER + INTRA:          -9.512
REMARK INTER:                  -8.718
REMARK INTRA:                  -0.794
REMARK UNBOUND:                -1.143
REMARK  Name = 
REMARK  7 active torsions:
REMARK  status: ('A' for Active; 'I' for Inactive)
REMARK    1  A    between atoms: C_2  and  C_4
REMARK    2  A    between atoms: C_8  and  C_9
REMARK    3  A    between atoms: C_9  and  C_10
REMARK    4  A    between atoms: C_10  and  C_11
REMARK    5  A    between atoms: C_11  and  C_12
REMARK    6  A    between atoms: C_16  and  C_17
REMARK    7  A    between atoms: C_17  and  N_18
REMARK                            x       y       z     vdW  Elec       q    Type
REMARK                         _______ _______ _______ _____ _____    ______ ____
ROOT
ATOM      1  C   UNL     1      45.379   5.711   9.838  0.00  0.00    +0.000 C 
ENDROOT
BRANCH   1   6
ATOM      2  C   UNL     1      46.452   2.896   7.500  0.00  0.00    +0.000 A 
ATOM      3  C   UNL     1      45.772   1.804   8.041  0.00  0.00    +0.000 A 
ATOM      4  C   UNL     1      44.956   1.977   9.159  0.00  0.00    +0.000 A 
ATOM      5  C   UNL     1      44.817   3.241   9.734  0.00  0.00    +0.000 A 
ATOM      6  C   UNL     1      45.479   4.352   9.188  0.00  0.00    +0.000 A 
ATOM      7  C   UNL     1      46.291   4.170   8.061  0.00  0.00    +0.000 A 
BRANCH   2   9
ATOM      8  N   UNL     1      47.060   3.143   5.185  0.00  0.00    +0.000 NA
ATOM      9  C   UNL     1      47.380   2.694   6.351  0.00  0.00    +0.000 C 
ATOM     10  N   UNL     1      48.545   2.003   6.528  0.00  0.00    +0.000 N 
ATOM     11  H   UNL     1      47.814   2.948   4.524  0.00  0.00    +0.000 HD
ATOM     12  H   UNL     1      48.921   1.578   5.691  0.00  0.00    +0.000 HD
ATOM     13  H   UNL     1      48.540   1.344   7.302  0.00  0.00    +0.000 HD
ENDBRANCH   2   9
ENDBRANCH   1   6
BRANCH   1  14
ATOM     14  C   UNL     1      44.748   5.602  11.229  0.00  0.00    +0.000 C 
BRANCH  14  15
ATOM     15  C   UNL     1      45.778   5.825  12.335  0.00  0.00    +0.000 C 
BRANCH  15  16
ATOM     16  C   UNL     1      46.437   7.179  12.228  0.00  0.00    +0.000 A 
ATOM     17  C   UNL     1      45.674   8.352  12.263  0.00  0.00    +0.000 A 
ATOM     18  C   UNL     1      46.296   9.600  12.202  0.00  0.00    +0.000 A 
ATOM     19  C   UNL     1      47.686   9.690  12.111  0.00  0.00    +0.000 A 
ATOM     20  C   UNL     1      48.470   8.530  12.064  0.00  0.00    +0.000 A 
ATOM     21  C   UNL     1      47.829   7.279  12.097  0.00  0.00    +0.000 A 
BRANCH  20  22
ATOM     22  C   UNL     1      49.973   8.609  11.984  0.00  0.00    +0.000 C 
BRANCH  22  23
ATOM     23  N   UNL     1      50.544   7.367  11.470  0.00  0.00    +0.000 NA
ATOM     24  H   UNL     1      51.106   7.585  10.647  0.00  0.00    +0.000 HD
ATOM     25  H   UNL     1      49.796   6.754  11.159  0.00  0.00    +0.000 HD
ENDBRANCH  22  23
ENDBRANCH  20  22
ENDBRANCH  15  16
ENDBRANCH  14  15
ENDBRANCH   1  14
TORSDOF 7
ENDMDL
MODEL 9
REMARK VINA RESULT:    -5.898      3.594      6.604
REMARK INTER + INTRA:          -9.283
REMARK INTER:                  -7.941
REMARK INTRA:                  -1.341
REMARK UNBOUND:                -1.143
REMARK  Name = 
REMARK  7 active torsions:
REMARK  status: ('A' for Active; 'I' for Inactive)
REMARK    1  A    between atoms: C_2  and  C_4
REMARK    2  A    between atoms: C_8  and  C_9
REMARK    3  A    between atoms: C_9  and  C_10
REMARK    4  A    between atoms: C_10  and  C_11
REMARK    5  A    between atoms: C_11  and  C_12
REMARK    6  A    between atoms: C_16  and  C_17
REMARK    7  A    between atoms: C_17  and  N_18
REMARK                            x       y       z     vdW  Elec       q    Type
REMARK                         _______ _______ _______ _____ _____    ______ ____
ROOT
ATOM      1  C   UNL     1      48.136   7.354  11.624  0.00  0.00    +0.000 C 
ENDROOT
BRANCH   1   6
ATOM      2  C   UNL     1      44.781   5.561  11.880  0.00  0.00    +0.000 A 
ATOM      3  C   UNL     1      44.992   4.719  12.972  0.00  0.00    +0.000 A 
ATOM      4  C   UNL     1      46.220   4.736  13.637  0.00  0.00    +0.000 A 
ATOM      5  C   UNL     1      47.233   5.595  13.211  0.00  0.00    +0.000 A 
ATOM      6  C   UNL     1      47.027   6.462  12.126  0.00  0.00    +0.000 A 
ATOM      7  C   UNL     1      45.789   6.443  11.470  0.00  0.00    +0.000 A 
BRANCH   2   9
ATOM      8  N   UNL     1      43.471   4.948   9.958  0.00  0.00    +0.000 NA
ATOM      9  C   UNL     1      43.495   5.488  11.128  0.00  0.00    +0.000 C 
ATOM     10  N   UNL     1      42.359   6.026  11.664  0.00  0.00    +0.000 N 
ATOM     11  H   UNL     1      42.515   4.952   9.598  0.00  0.00    +0.000 HD
ATOM     12  H   UNL     1      41.652   6.287  10.991  0.00  0.00    +0.000 HD
ATOM     13  H   UNL     1      42.514   6.769  12.339  0.00  0.00    +0.000 HD
ENDBRANCH   2   9
ENDBRANCH   1   6
BRANCH   1  14
ATOM     14  C   UNL     1      48.502   8.408  12.674  0.00  0.00    +0.000 C 
BRANCH  14  15
ATOM     15  C   UNL     1      47.260   9.070  13.267  0.00  0.00    +0.000 C 
BRANCH  15  16
ATOM     16  C   UNL     1      46.572   9.972  12.272  0.00  0.00    +0.000 A 
ATOM     17  C   UNL     1      47.288  10.961  11.586  0.00  0.00    +0.000 A 
ATOM     18  C   UNL     1      46.652  11.765  10.639  0.00  0.00    +0.000 A 
ATOM     19  C   UNL     1      45.296  11.586  10.362  0.00  0.00    +0.000 A 
ATOM     20  C   UNL     1      44.556  10.609  11.042  0.00  0.00    +0.000 A 
ATOM     21  C   UNL     1      45.202   9.826  12.014  0.00  0.00    +0.000 A 
BRANCH  20  22
ATOM     22  C   UNL     1      43.095  10.391  10.742  0.00  0.00    +0.000 C 
BRANCH  22  23
ATOM     23  N   UNL     1      42.746   8.974  10.800  0.00  0.00    +0.000 NA
ATOM     24  H   UNL     1      43.499   8.437  10.370  0.00  0.00    +0.000 HD
ATOM     25  H   UNL     1      41.913   8.808  10.243  0.00  0.00    +0.000 HD
ENDBRANCH  22  23
ENDBRANCH  20  22
ENDBRANCH  15  16
ENDBRANCH  14  15
ENDBRANCH   1  14
TORSDOF 7
ENDMDL
