MODEL 1
REMARK VINA RESULT:    -8.216      0.000      0.000
REMARK INTER + INTRA:         -12.941
REMARK INTER:                 -11.818
REMARK INTRA:                  -1.123
REMARK UNBOUND:                -1.123
REMARK  Name = 
REMARK  9 active torsions:
REMARK  status: ('A' for Active; 'I' for Inactive)
REMARK    1  A    between atoms: C_1  and  C_2
REMARK    2  A    between atoms: C_6  and  C_7
REMARK    3  A    between atoms: C_7  and  N_8
REMARK    4  A    between atoms: N_8  and  C_9
REMARK    5  A    between atoms: C_9  and  C_10
REMARK    6  A    between atoms: C_13  and  C_14
REMARK    7  A    between atoms: C_14  and  N_15
REMARK    8  A    between atoms: C_16  and  C_18
REMARK    9  A    between atoms: C_25  and  O_26
REMARK                            x       y       z     vdW  Elec       q    Type
REMARK                         _______ _______ _______ _____ _____    ______ ____
ROOT
ATOM      1  C   UNL     1      44.689   5.553  11.834  0.00  0.00    +0.000 A 
ATOM      2  C   UNL     1      45.065   4.808  12.960  0.00  0.00    +0.000 A 
ATOM      3  C   UNL     1      46.227   5.124  13.669  0.00  0.00    +0.000 A 
ATOM      4  C   UNL     1      47.034   6.196  13.268  0.00  0.00    +0.000 A 
ATOM      5  C   UNL     1      46.677   6.919  12.121  0.00  0.00    +0.000 A 
ATOM      6  C   UNL     1      45.515   6.603  11.414  0.00  0.00    +0.000 A 
ENDROOT
BRANCH   1   7
ATOM      7  C   UNL     1      43.398   5.250  11.106  0.00  0.00    +0.000 C 
BRANCH   7   8
ATOM      8  N   UNL     1      43.607   4.639   9.792  0.00  0.00    +0.000 NA
ATOM      9  H   UNL     1      42.712   4.599   9.301  0.00  0.00    +0.000 HD
BRANCH   8  10
ATOM     10  C   UNL     1      44.094   3.256   9.898  0.00  0.00    +0.000 C 
BRANCH  10  16
ATOM     11  C   UNL     1      46.856  -0.037   7.596  0.00  0.00    +0.000 C 
ATOM     12  C   UNL     1      46.464   1.400   7.747  0.00  0.00    +0.000 A 
ATOM     13  C   UNL     1      47.053   2.389   6.966  0.00  0.00    +0.000 A 
ATOM     14  C   UNL     1      46.664   3.711   7.150  0.00  0.00    +0.000 A 
ATOM     15  C   UNL     1      45.702   4.009   8.108  0.00  0.00    +0.000 A 
ATOM     16  C   UNL     1      45.162   2.970   8.862  0.00  0.00    +0.000 A 
ATOM     17  N   UNL     1      45.523   1.673   8.683  0.00  0.00    +0.000 NA
ENDBRANCH  10  16
ENDBRANCH   8  10
ENDBRANCH   7   8
ENDBRANCH   1   7
BRANCH   4  18
ATOM     18  C   UNL     1      48.273   6.559  14.043  0.00  0.00    +0.000 C 
BRANCH  18  19
ATOM     19  N   UNL     1      48.079   6.390  15.458  0.00  0.00    +0.000 N 
ATOM     20  C   UNL     1      49.142   6.211  16.303  0.00  0.00    +0.000 C 
ATOM     21  O   UNL     1      50.304   6.239  15.903  0.00  0.00    +0.000 OA
ATOM     22  H   UNL     1      47.152   6.156  15.795  0.00  0.00    +0.000 HD
BRANCH  20  23
ATOM     23  C   UNL     1      48.821   6.058  17.726  0.00  0.00    +0.000 A 
ATOM     24  C   UNL     1      49.078   4.842  18.347  0.00  0.00    +0.000 A 
ATOM     25  S   UNL     1      48.715   4.837  20.009  0.00  0.00    +0.000 S 
ATOM     26  C   UNL     1      48.147   6.437  19.940  0.00  0.00    +0.000 A 
ATOM     27  N   UNL     1      47.667   7.020  21.059  0.00  0.00    +0.000 NA
ATOM     28  C   UNL     1      47.229   8.278  20.889  0.00  0.00    +0.000 A 
ATOM     29  C   UNL     1      47.239   8.971  19.697  0.00  0.00    +0.000 A 
ATOM     30  C   UNL     1      47.749   8.330  18.572  0.00  0.00    +0.000 A 
ATOM     31  C   UNL     1      48.241   7.001  18.668  0.00  0.00    +0.000 A 
BRANCH  30  32
ATOM     32  O   UNL     1      47.771   8.997  17.372  0.00  0.00    +0.000 OA
ATOM     33  H   UNL     1      46.857   9.127  17.060  0.00  0.00    +0.000 HD
ENDBRANCH  30  32
ENDBRANCH  20  23
ENDBRANCH  18  19
ENDBRANCH   4  18
TORSDOF 8
ENDMDL
MODEL 2
REMARK VINA RESULT:    -8.140      1.908      2.674
REMARK INTER + INTRA:         -12.832
REMARK INTER:                 -11.987
REMARK INTRA:                  -0.845
REMARK UNBOUND:                -1.123
REMARK  Name = 
REMARK  9 active torsions:
REMARK  status: ('A' for Active; 'I' for Inactive)
REMARK    1  A    between atoms: C_1  and  C_2
REMARK    2  A    between atoms: C_6  and  C_7
REMARK    3  A    between atoms: C_7  and  N_8
REMARK    4  A    between atoms: N_8  and  C_9
REMARK    5  A    between atoms: C_9  and  C_10
REMARK    6  A    between atoms: C_13  and  C_14
REMARK    7  A    between atoms: C_14  and  N_15
REMARK    8  A    between atoms: C_16  and  C_18
REMARK    9  A    between atoms: C_25  and  O_26
REMARK                            x       y       z     vdW  Elec       q    Type
REMARK                         _______ _______ _______ _____ _____    ______ ____
ROOT
ATOM      1  C   UNL     1      44.238   6.086  11.574  0.00  0.00    +0.000 A 
ATOM      2  C   UNL     1      44.406   7.449  11.296  0.00  0.00    +0.000 A 
ATOM      3  C   UNL     1      45.403   8.190  11.936  0.00  0.00    +0.000 A 
ATOM      4  C   UNL     1      46.256   7.579  12.863  0.00  0.00    +0.000 A 
ATOM      5  C   UNL     1      46.065   6.224  13.168  0.00  0.00    +0.000 A 
ATOM      6  C   UNL     1      45.069   5.484  12.527  0.00  0.00    +0.000 A 
ENDROOT
BRANCH   1   7
ATOM      7  C   UNL     1      43.200   5.271  10.834  0.00  0.00    +0.000 C 
BRANCH   7   8
ATOM      8  N   UNL     1      43.708   4.678   9.595  0.00  0.00    +0.000 NA
ATOM      9  H   UNL     1      42.944   4.617   8.920  0.00  0.00    +0.000 HD
BRANCH   8  10
ATOM     10  C   UNL     1      44.200   3.307   9.800  0.00  0.00    +0.000 C 
BRANCH  10  16
ATOM     11  C   UNL     1      46.832  -0.187   7.648  0.00  0.00    +0.000 C 
ATOM     12  C   UNL     1      46.467   1.264   7.710  0.00  0.00    +0.000 A 
ATOM     13  C   UNL     1      47.044   2.185   6.841  0.00  0.00    +0.000 A 
ATOM     14  C   UNL     1      46.681   3.524   6.944  0.00  0.00    +0.000 A 
ATOM     15  C   UNL     1      45.757   3.905   7.909  0.00  0.00    +0.000 A 
ATOM     16  C   UNL     1      45.228   2.931   8.752  0.00  0.00    +0.000 A 
ATOM     17  N   UNL     1      45.563   1.619   8.655  0.00  0.00    +0.000 NA
ENDBRANCH  10  16
ENDBRANCH   8  10
ENDBRANCH   7   8
ENDBRANCH   1   7
BRANCH   4  18
ATOM     18  C   UNL     1      47.350   8.364  13.537  0.00  0.00    +0.000 C 
BRANCH  18  19
ATOM     19  N   UNL     1      47.705   7.792  14.808  0.00  0.00    +0.000 N 
ATOM     20  C   UNL     1      48.829   7.022  14.951  0.00  0.00    +0.000 C 
ATOM     21  O   UNL     1      49.608   6.829  14.020  0.00  0.00    +0.000 OA
ATOM     22  H   UNL     1      46.998   7.753  15.535  0.00  0.00    +0.000 HD
BRANCH  20  23
ATOM     23  C   UNL     1      49.091   6.501  16.297  0.00  0.00    +0.000 A 
ATOM     24  C   UNL     1      49.817   7.278  17.190  0.00  0.00    +0.000 A 
ATOM     25  S   UNL     1      49.983   6.570  18.728  0.00  0.00    +0.000 S 
ATOM     26  C   UNL     1      49.144   5.178  18.233  0.00  0.00    +0.000 A 
ATOM     27  N   UNL     1      48.964   4.166  19.107  0.00  0.00    +0.000 NA
ATOM     28  C   UNL     1      48.303   3.109  18.608  0.00  0.00    +0.000 A 
ATOM     29  C   UNL     1      47.824   3.005  17.318  0.00  0.00    +0.000 A 
ATOM     30  C   UNL     1      48.028   4.078  16.457  0.00  0.00    +0.000 A 
ATOM     31  C   UNL     1      48.711   5.238  16.908  0.00  0.00    +0.000 A 
BRANCH  30  32
ATOM     32  O   UNL     1      47.562   4.000  15.167  0.00  0.00    +0.000 OA
ATOM     33  H   UNL     1      47.030   3.190  15.066  0.00  0.00    +0.000 HD
ENDBRANCH  30  32
ENDBRANCH  20  23
ENDBRANCH  18  19
ENDBRANCH   4  18
TORSDOF 8
ENDMDL
MODEL 3
REMARK VINA RESULT:    -7.986      1.159      2.006
REMARK INTER + INTRA:         -12.611
REMARK INTER:                 -11.385
REMARK INTRA:                  -1.226
REMARK UNBOUND:                -1.123
REMARK  Name = 
REMARK  9 active torsions:
REMARK  status: ('A' for Active; 'I' for Inactive)
REMARK    1  A    between atoms: C_1  and  C_2
REMARK    2  A    between atoms: C_6  and  C_7
REMARK    3  A    between atoms: C_7  and  N_8
REMARK    4  A    between atoms: N_8  and  C_9
REMARK    5  A    between atoms: C_9  and  C_10
REMARK    6  A    between atoms: C_13  and  C_14
REMARK    7  A    between atoms: C_14  and  N_15
REMARK    8  A    between atoms: C_16  and  C_18
REMARK    9  A    between atoms: C_25  and  O_26
REMARK                            x       y       z     vdW  Elec       q    Type
REMARK                         _______ _______ _______ _____ _____    ______ ____
ROOT
ATOM      1  C   UNL     1      44.752   5.588  11.730  0.00  0.00    +0.000 A 
ATOM      2  C   UNL     1      45.087   4.981  12.949  0.00  0.00    +0.000 A 
ATOM      3  C   UNL     1      46.287   5.292  13.594  0.00  0.00    +0.000 A 
ATOM      4  C   UNL     1      47.174   6.221  13.034  0.00  0.00    +0.000 A 
ATOM      5  C   UNL     1      46.856   6.800  11.798  0.00  0.00    +0.000 A 
ATOM      6  C   UNL     1      45.656   6.490  11.154  0.00  0.00    +0.000 A 
ENDROOT
BRANCH   1   7
ATOM      7  C   UNL     1      43.424   5.298  11.065  0.00  0.00    +0.000 C 
BRANCH   7   8
ATOM      8  N   UNL     1      43.562   4.642   9.764  0.00  0.00    +0.000 NA
ATOM      9  H   UNL     1      42.642   4.583   9.324  0.00  0.00    +0.000 HD
BRANCH   8  10
ATOM     10  C   UNL     1      44.058   3.263   9.890  0.00  0.00    +0.000 C 
BRANCH  10  16
ATOM     11  C   UNL     1      46.895  -0.019   7.666  0.00  0.00    +0.000 C 
ATOM     12  C   UNL     1      46.497   1.417   7.809  0.00  0.00    +0.000 A 
ATOM     13  C   UNL     1      47.109   2.409   7.050  0.00  0.00    +0.000 A 
ATOM     14  C   UNL     1      46.712   3.730   7.226  0.00  0.00    +0.000 A 
ATOM     15  C   UNL     1      45.720   4.024   8.154  0.00  0.00    +0.000 A 
ATOM     16  C   UNL     1      45.159   2.982   8.887  0.00  0.00    +0.000 A 
ATOM     17  N   UNL     1      45.527   1.686   8.716  0.00  0.00    +0.000 NA
ENDBRANCH  10  16
ENDBRANCH   8  10
ENDBRANCH   7   8
ENDBRANCH   1   7
BRANCH   4  18
ATOM     18  C   UNL     1      48.456   6.581  13.737  0.00  0.00    +0.000 C 
BRANCH  18  19
ATOM     19  N   UNL     1      48.288   6.600  15.166  0.00  0.00    +0.000 N 
ATOM     20  C   UNL     1      48.838   7.594  15.931  0.00  0.00    +0.000 C 
ATOM     21  O   UNL     1      49.450   8.536  15.433  0.00  0.00    +0.000 OA
ATOM     22  H   UNL     1      47.976   5.752  15.627  0.00  0.00    +0.000 HD
BRANCH  20  23
ATOM     23  C   UNL     1      48.592   7.511  17.375  0.00  0.00    +0.000 A 
ATOM     24  C   UNL     1      48.176   8.650  18.053  0.00  0.00    +0.000 A 
ATOM     25  S   UNL     1      47.869   8.383  19.704  0.00  0.00    +0.000 S 
ATOM     26  C   UNL     1      48.338   6.755  19.581  0.00  0.00    +0.000 A 
ATOM     27  N   UNL     1      48.317   5.973  20.680  0.00  0.00    +0.000 NA
ATOM     28  C   UNL     1      48.723   4.709  20.473  0.00  0.00    +0.000 A 
ATOM     29  C   UNL     1      49.140   4.194  19.264  0.00  0.00    +0.000 A 
ATOM     30  C   UNL     1      49.137   5.038  18.158  0.00  0.00    +0.000 A 
ATOM     31  C   UNL     1      48.715   6.387  18.288  0.00  0.00    +0.000 A 
BRANCH  30  32
ATOM     32  O   UNL     1      49.547   4.550  16.941  0.00  0.00    +0.000 OA
ATOM     33  H   UNL     1      49.248   5.153  16.236  0.00  0.00    +0.000 HD
ENDBRANCH  30  32
ENDBRANCH  20  23
ENDBRANCH  18  19
ENDBRANCH   4  18
TORSDOF 8
ENDMDL
MODEL 4
REMARK VINA RESULT:    -7.282      3.282      8.814
REMARK INTER + INTRA:         -11.598
REMARK INTER:                 -10.012
REMARK INTRA:                  -1.586
REMARK UNBOUND:                -1.123
REMARK  Name = 
REMARK  9 active torsions:
REMARK  status: ('A' for Active; 'I' for Inactive)
REMARK    1  A    between atoms: C_1  and  C_2
REMARK    2  A    between atoms: C_6  and  C_7
REMARK    3  A    between atoms: C_7  and  N_8
REMARK    4  A    between atoms: N_8  and  C_9
REMARK    5  A    between atoms: C_9  and  C_10
REMARK    6  A    between atoms: C_13  and  C_14
REMARK    7  A    between atoms: C_14  and  N_15
REMARK    8  A    between atoms: C_16  and  C_18
REMARK    9  A    between atoms: C_25  and  O_26
REMARK                            x       y       z     vdW  Elec       q    Type
REMARK                         _______ _______ _______ _____ _____    ______ ____
ROOT
ATOM      1  C   UNL     1      49.732   8.343  15.674  0.00  0.00    +0.000 A 
ATOM      2  C   UNL     1      48.415   8.815  15.580  0.00  0.00    +0.000 A 
ATOM      3  C   UNL     1      47.720   8.754  14.369  0.00  0.00    +0.000 A 
ATOM      4  C   UNL     1      48.328   8.216  13.228  0.00  0.00    +0.000 A 
ATOM      5  C   UNL     1      49.656   7.776  13.312  0.00  0.00    +0.000 A 
ATOM      6  C   UNL     1      50.350   7.836  14.523  0.00  0.00    +0.000 A 
ENDROOT
BRANCH   1   7
ATOM      7  C   UNL     1      50.460   8.350  16.999  0.00  0.00    +0.000 C 
BRANCH   7   8
ATOM      8  N   UNL     1      49.898   7.410  17.971  0.00  0.00    +0.000 NA
ATOM      9  H   UNL     1      50.137   7.727  18.912  0.00  0.00    +0.000 HD
BRANCH   8  10
ATOM     10  C   UNL     1      50.461   6.060  17.824  0.00  0.00    +0.000 C 
BRANCH  10  16
ATOM     11  C   UNL     1      47.001   4.412  14.811  0.00  0.00    +0.000 C 
ATOM     12  C   UNL     1      47.740   4.239  16.102  0.00  0.00    +0.000 A 
ATOM     13  C   UNL     1      47.435   3.194  16.968  0.00  0.00    +0.000 A 
ATOM     14  C   UNL     1      48.143   3.081  18.159  0.00  0.00    +0.000 A 
ATOM     15  C   UNL     1      49.130   4.013  18.454  0.00  0.00    +0.000 A 
ATOM     16  C   UNL     1      49.375   5.040  17.546  0.00  0.00    +0.000 A 
ATOM     17  N   UNL     1      48.701   5.155  16.372  0.00  0.00    +0.000 NA
ENDBRANCH  10  16
ENDBRANCH   8  10
ENDBRANCH   7   8
ENDBRANCH   1   7
BRANCH   4  18
ATOM     18  C   UNL     1      47.576   8.122  11.927  0.00  0.00    +0.000 C 
BRANCH  18  19
ATOM     19  N   UNL     1      46.881   6.868  11.807  0.00  0.00    +0.000 N 
ATOM     20  C   UNL     1      45.512   6.814  11.809  0.00  0.00    +0.000 C 
ATOM     21  O   UNL     1      44.820   7.828  11.860  0.00  0.00    +0.000 OA
ATOM     22  H   UNL     1      47.398   6.011  11.970  0.00  0.00    +0.000 HD
BRANCH  20  23
ATOM     23  C   UNL     1      44.917   5.480  11.673  0.00  0.00    +0.000 A 
ATOM     24  C   UNL     1      44.249   4.926  12.758  0.00  0.00    +0.000 A 
ATOM     25  S   UNL     1      43.558   3.408  12.428  0.00  0.00    +0.000 S 
ATOM     26  C   UNL     1      44.179   3.413  10.847  0.00  0.00    +0.000 A 
ATOM     27  N   UNL     1      43.947   2.356  10.040  0.00  0.00    +0.000 NA
ATOM     28  C   UNL     1      44.497   2.456   8.818  0.00  0.00    +0.000 A 
ATOM     29  C   UNL     1      45.248   3.521   8.367  0.00  0.00    +0.000 A 
ATOM     30  C   UNL     1      45.454   4.590   9.234  0.00  0.00    +0.000 A 
ATOM     31  C   UNL     1      44.900   4.567  10.541  0.00  0.00    +0.000 A 
BRANCH  30  32
ATOM     32  O   UNL     1      46.198   5.663   8.810  0.00  0.00    +0.000 OA
ATOM     33  H   UNL     1      46.817   5.924   9.516  0.00  0.00    +0.000 HD
ENDBRANCH  30  32
ENDBRANCH  20  23
ENDBRANCH  18  19
ENDBRANCH   4  18
TORSDOF 8
ENDMDL
MODEL 5
REMARK VINA RESULT:    -7.152      5.889      7.977
REMARK INTER + INTRA:         -11.411
REMARK INTER:                 -10.882
REMARK INTRA:                  -0.529
REMARK UNBOUND:                -1.123
REMARK  Name = 
REMARK  9 active torsions:
REMARK  status: ('A' for Active; 'I' for Inactive)
REMARK    1  A    between atoms: C_1  and  C_2
REMARK    2  A    between atoms: C_6  and  C_7
REMARK    3  A    between atoms: C_7  and  N_8
REMARK    4  A    between atoms: N_8  and  C_9
REMARK    5  A    between atoms: C_9  and  C_10
REMARK    6  A    between atoms: C_13  and  C_14
REMARK    7  A    between atoms: C_14  and  N_15
REMARK    8  A    between atoms: C_16  and  C_18
REMARK    9  A    between atoms: C_25  and  O_26
REMARK                            x       y       z     vdW  Elec       q    Type
REMARK                         _______ _______ _______ _____ _____    ______ ____
ROOT
ATOM      1  C   UNL     1      44.343   5.010  12.077  0.00  0.00    +0.000 A 
ATOM      2  C   UNL     1      43.126   5.489  11.572  0.00  0.00    +0.000 A 
ATOM      3  C   UNL     1      42.970   6.839  11.248  0.00  0.00    +0.000 A 
ATOM      4  C   UNL     1      44.031   7.737  11.419  0.00  0.00    +0.000 A 
ATOM      5  C   UNL     1      45.237   7.265  11.957  0.00  0.00    +0.000 A 
ATOM      6  C   UNL     1      45.392   5.915  12.279  0.00  0.00    +0.000 A 
ENDROOT
BRANCH   1   7
ATOM      7  C   UNL     1      44.530   3.537  12.366  0.00  0.00    +0.000 C 
BRANCH   7   8
ATOM      8  N   UNL     1      45.017   2.780  11.212  0.00  0.00    +0.000 NA
ATOM      9  H   UNL     1      46.038   2.802  11.210  0.00  0.00    +0.000 HD
BRANCH   8  10
ATOM     10  C   UNL     1      44.579   3.371   9.939  0.00  0.00    +0.000 C 
BRANCH  10  16
ATOM     11  C   UNL     1      46.830  -0.299   7.651  0.00  0.00    +0.000 C 
ATOM     12  C   UNL     1      46.514   1.164   7.687  0.00  0.00    +0.000 A 
ATOM     13  C   UNL     1      47.002   2.026   6.710  0.00  0.00    +0.000 A 
ATOM     14  C   UNL     1      46.689   3.379   6.791  0.00  0.00    +0.000 A 
ATOM     15  C   UNL     1      45.903   3.832   7.844  0.00  0.00    +0.000 A 
ATOM     16  C   UNL     1      45.458   2.915   8.792  0.00  0.00    +0.000 A 
ATOM     17  N   UNL     1      45.744   1.589   8.717  0.00  0.00    +0.000 NA
ENDBRANCH  10  16
ENDBRANCH   8  10
ENDBRANCH   7   8
ENDBRANCH   1   7
BRANCH   4  18
ATOM     18  C   UNL     1      43.880   9.188  11.046  0.00  0.00    +0.000 C 
BRANCH  18  19
ATOM     19  N   UNL     1      42.495   9.567  10.949  0.00  0.00    +0.000 N 
ATOM     20  C   UNL     1      42.042  10.742  11.487  0.00  0.00    +0.000 C 
ATOM     21  O   UNL     1      42.799  11.546  12.026  0.00  0.00    +0.000 OA
ATOM     22  H   UNL     1      41.815   8.855  10.704  0.00  0.00    +0.000 HD
BRANCH  20  23
ATOM     23  C   UNL     1      40.613  11.024  11.318  0.00  0.00    +0.000 A 
ATOM     24  C   UNL     1      40.013  10.752  10.094  0.00  0.00    +0.000 A 
ATOM     25  S   UNL     1      38.342  11.068  10.071  0.00  0.00    +0.000 S 
ATOM     26  C   UNL     1      38.376  11.635  11.673  0.00  0.00    +0.000 A 
ATOM     27  N   UNL     1      37.238  12.081  12.243  0.00  0.00    +0.000 NA
ATOM     28  C   UNL     1      37.381  12.521  13.505  0.00  0.00    +0.000 A 
ATOM     29  C   UNL     1      38.565  12.543  14.211  0.00  0.00    +0.000 A 
ATOM     30  C   UNL     1      39.711  12.066  13.582  0.00  0.00    +0.000 A 
ATOM     31  C   UNL     1      39.644  11.575  12.251  0.00  0.00    +0.000 A 
BRANCH  30  32
ATOM     32  O   UNL     1      40.903  12.077  14.263  0.00  0.00    +0.000 OA
ATOM     33  H   UNL     1      41.560  12.585  13.752  0.00  0.00    +0.000 HD
ENDBRANCH  30  32
ENDBRANCH  20  23
ENDBRANCH  18  19
ENDBRANCH   4  18
TORSDOF 8
ENDMDL
MODEL 6
REMARK VINA RESULT:    -6.957      3.488      5.382
REMARK INTER + INTRA:         -11.131
REMARK INTER:                  -9.860
REMARK INTRA:                  -1.271
REMARK UNBOUND:                -1.123
REMARK  Name = 
REMARK  9 active torsions:
REMARK  status: ('A' for Active; 'I' for Inactive)
REMARK    1  A    between atoms: C_1  and  C_2
REMARK    2  A    between atoms: C_6  and  C_7
REMARK    3  A    between atoms: C_7  and  N_8
REMARK    4  A    between atoms: N_8  and  C_9
REMARK    5  A    between atoms: C_9  and  C_10
REMARK    6  A    between atoms: C_13  and  C_14
REMARK    7  A    between atoms: C_14  and  N_15
REMARK    8  A    between atoms: C_16  and  C_18
REMARK    9  A    between atoms: C_25  and  O_26
REMARK                            x       y       z     vdW  Elec       q    Type
REMARK                         _______ _______ _______ _____ _____    ______ ____
ROOT
ATOM      1  C   UNL     1      47.531   5.813  14.134  0.00  0.00    +0.000 A 
ATOM      2  C   UNL     1      48.262   6.251  15.247  0.00  0.00    +0.000 A 
ATOM      3  C   UNL     1      48.403   5.435  16.373  0.00  0.00    +0.000 A 
ATOM      4  C   UNL     1      47.819   4.162  16.405  0.00  0.00    +0.000 A 
ATOM      5  C   UNL     1      47.058   3.739  15.307  0.00  0.00    +0.000 A 
ATOM      6  C   UNL     1      46.919   4.554  14.182  0.00  0.00    +0.000 A 
ENDROOT
BRANCH   1   7
ATOM      7  C   UNL     1      47.433   6.671  12.892  0.00  0.00    +0.000 C 
BRANCH   7   8
ATOM      8  N   UNL     1      46.160   7.387  12.785  0.00  0.00    +0.000 NA
ATOM      9  H   UNL     1      45.546   7.085  13.542  0.00  0.00    +0.000 HD
BRANCH   8  10
ATOM     10  C   UNL     1      45.460   7.086  11.528  0.00  0.00    +0.000 C 
BRANCH  10  16
ATOM     11  C   UNL     1      44.690   2.628   9.709  0.00  0.00    +0.000 C 
ATOM     12  C   UNL     1      44.361   3.636  10.767  0.00  0.00    +0.000 A 
ATOM     13  C   UNL     1      43.432   3.352  11.763  0.00  0.00    +0.000 A 
ATOM     14  C   UNL     1      43.153   4.324  12.717  0.00  0.00    +0.000 A 
ATOM     15  C   UNL     1      43.804   5.550  12.649  0.00  0.00    +0.000 A 
ATOM     16  C   UNL     1      44.714   5.770  11.618  0.00  0.00    +0.000 A 
ATOM     17  N   UNL     1      45.007   4.825  10.687  0.00  0.00    +0.000 NA
ENDBRANCH  10  16
ENDBRANCH   8  10
ENDBRANCH   7   8
ENDBRANCH   1   7
BRANCH   4  18
ATOM     18  C   UNL     1      47.990   3.267  17.604  0.00  0.00    +0.000 C 
BRANCH  18  19
ATOM     19  N   UNL     1      49.379   3.038  17.899  0.00  0.00    +0.000 N 
ATOM     20  C   UNL     1      50.144   2.213  17.117  0.00  0.00    +0.000 C 
ATOM     21  O   UNL     1      49.697   1.676  16.106  0.00  0.00    +0.000 OA
ATOM     22  H   UNL     1      49.726   3.288  18.819  0.00  0.00    +0.000 HD
BRANCH  20  23
ATOM     23  C   UNL     1      51.548   2.065  17.512  0.00  0.00    +0.000 A 
ATOM     24  C   UNL     1      52.074   0.787  17.664  0.00  0.00    +0.000 A 
ATOM     25  S   UNL     1      53.728   0.775  18.059  0.00  0.00    +0.000 S 
ATOM     26  C   UNL     1      53.782   2.473  18.101  0.00  0.00    +0.000 A 
ATOM     27  N   UNL     1      54.940   3.093  18.409  0.00  0.00    +0.000 NA
ATOM     28  C   UNL     1      54.867   4.434  18.429  0.00  0.00    +0.000 A 
ATOM     29  C   UNL     1      53.733   5.174  18.169  0.00  0.00    +0.000 A 
ATOM     30  C   UNL     1      52.564   4.490  17.851  0.00  0.00    +0.000 A 
ATOM     31  C   UNL     1      52.558   3.071  17.799  0.00  0.00    +0.000 A 
BRANCH  30  32
ATOM     32  O   UNL     1      51.420   5.202  17.587  0.00  0.00    +0.000 OA
ATOM     33  H   UNL     1      51.647   5.993  17.064  0.00  0.00    +0.000 HD
ENDBRANCH  30  32
ENDBRANCH  20  23
ENDBRANCH  18  19
ENDBRANCH   4  18
TORSDOF 8
ENDMDL
MODEL 7
REMARK VINA RESULT:    -6.772      4.090      5.293
REMARK INTER + INTRA:         -10.864
REMARK INTER:                  -9.539
REMARK INTRA:                  -1.325
REMARK UNBOUND:                -1.123
REMARK  Name = 
REMARK  9 active torsions:
REMARK  status: ('A' for Active; 'I' for Inactive)
REMARK    1  A    between atoms: C_1  and  C_2
REMARK    2  A    between atoms: C_6  and  C_7
REMARK    3  A    between atoms: C_7  and  N_8
REMARK    4  A    between atoms: N_8  and  C_9
REMARK    5  A    between atoms: C_9  and  C_10
REMARK    6  A    between atoms: C_13  and  C_14
REMARK    7  A    between atoms: C_14  and  N_15
REMARK    8  A    between atoms: C_16  and  C_18
REMARK    9  A    between atoms: C_25  and  O_26
REMARK                            x       y       z     vdW  Elec       q    Type
REMARK                         _______ _______ _______ _____ _____    ______ ____
ROOT
ATOM      1  C   UNL     1      44.861   5.165  12.510  0.00  0.00    +0.000 A 
ATOM      2  C   UNL     1      46.110   5.266  13.139  0.00  0.00    +0.000 A 
ATOM      3  C   UNL     1      46.837   6.458  13.092  0.00  0.00    +0.000 A 
ATOM      4  C   UNL     1      46.327   7.575  12.419  0.00  0.00    +0.000 A 
ATOM      5  C   UNL     1      45.094   7.464  11.760  0.00  0.00    +0.000 A 
ATOM      6  C   UNL     1      44.368   6.272  11.808  0.00  0.00    +0.000 A 
ENDROOT
BRANCH   1   7
ATOM      7  C   UNL     1      44.046   3.895  12.615  0.00  0.00    +0.000 C 
BRANCH   7   8
ATOM      8  N   UNL     1      44.606   2.784  11.843  0.00  0.00    +0.000 NA
ATOM      9  H   UNL     1      45.591   2.978  11.654  0.00  0.00    +0.000 HD
BRANCH   8  10
ATOM     10  C   UNL     1      43.948   2.632  10.537  0.00  0.00    +0.000 C 
BRANCH  10  16
ATOM     11  C   UNL     1      47.015   0.541   7.377  0.00  0.00    +0.000 C 
ATOM     12  C   UNL     1      46.383   1.802   7.879  0.00  0.00    +0.000 A 
ATOM     13  C   UNL     1      46.696   3.034   7.313  0.00  0.00    +0.000 A 
ATOM     14  C   UNL     1      46.090   4.179   7.821  0.00  0.00    +0.000 A 
ATOM     15  C   UNL     1      45.195   4.062   8.877  0.00  0.00    +0.000 A 
ATOM     16  C   UNL     1      44.937   2.799   9.402  0.00  0.00    +0.000 A 
ATOM     17  N   UNL     1      45.510   1.671   8.907  0.00  0.00    +0.000 NA
ENDBRANCH  10  16
ENDBRANCH   8  10
ENDBRANCH   7   8
ENDBRANCH   1   7
BRANCH   4  18
ATOM     18  C   UNL     1      47.092   8.871  12.387  0.00  0.00    +0.000 C 
BRANCH  18  19
ATOM     19  N   UNL     1      48.385   8.736  13.005  0.00  0.00    +0.000 N 
ATOM     20  C   UNL     1      49.517   9.199  12.389  0.00  0.00    +0.000 C 
ATOM     21  O   UNL     1      49.477   9.793  11.313  0.00  0.00    +0.000 OA
ATOM     22  H   UNL     1      48.488   8.084  13.774  0.00  0.00    +0.000 HD
BRANCH  20  23
ATOM     23  C   UNL     1      50.775   9.012  13.119  0.00  0.00    +0.000 A 
ATOM     24  C   UNL     1      50.818   9.316  14.475  0.00  0.00    +0.000 A 
ATOM     25  S   UNL     1      52.322   8.986  15.197  0.00  0.00    +0.000 S 
ATOM     26  C   UNL     1      52.982   8.486  13.714  0.00  0.00    +0.000 A 
ATOM     27  N   UNL     1      54.272   8.092  13.660  0.00  0.00    +0.000 NA
ATOM     28  C   UNL     1      54.695   7.733  12.437  0.00  0.00    +0.000 A 
ATOM     29  C   UNL     1      53.927   7.747  11.292  0.00  0.00    +0.000 A 
ATOM     30  C   UNL     1      52.601   8.156  11.399  0.00  0.00    +0.000 A 
ATOM     31  C   UNL     1      52.072   8.544  12.658  0.00  0.00    +0.000 A 
BRANCH  30  32
ATOM     32  O   UNL     1      51.814   8.179  10.274  0.00  0.00    +0.000 OA
ATOM     33  H   UNL     1      52.354   8.449   9.509  0.00  0.00    +0.000 HD
ENDBRANCH  30  32
ENDBRANCH  20  23
ENDBRANCH  18  19
ENDBRANCH   4  18
TORSDOF 8
ENDMDL
MODEL 8
REMARK VINA RESULT:    -6.671      3.656      5.583
REMARK INTER + INTRA:         -10.719
REMARK INTER:                  -9.617
REMARK INTRA:                  -1.102
REMARK UNBOUND:                -1.123
REMARK  Name = 
REMARK  9 active torsions:
REMARK  status: ('A' for Active; 'I' for Inactive)
REMARK    1  A    between atoms: C_1  and  C_2
REMARK    2  A    between atoms: C_6  and  C_7
REMARK    3  A    between atoms: C_7  and  N_8
REMARK    4  A    between atoms: N_8  and  C_9
REMARK    5  A    between atoms: C_9  and  C_10
REMARK    6  A    between atoms: C_13  and  C_14
REMARK    7  A    between atoms: C_14  and  N_15
REMARK    8  A    between atoms: C_16  and  C_18
REMARK    9  A    between atoms: C_25  and  O_26
REMARK                            x       y       z     vdW  Elec       q    Type
REMARK                         _______ _______ _______ _____ _____    ______ ____
ROOT
ATOM      1  C   UNL     1      47.497   6.145  13.780  0.00  0.00    +0.000 A 
ATOM      2  C   UNL     1      46.834   4.927  13.989  0.00  0.00    +0.000 A 
ATOM      3  C   UNL     1      47.003   4.219  15.181  0.00  0.00    +0.000 A 
ATOM      4  C   UNL     1      47.834   4.717  16.192  0.00  0.00    +0.000 A 
ATOM      5  C   UNL     1      48.525   5.917  15.969  0.00  0.00    +0.000 A 
ATOM      6  C   UNL     1      48.355   6.625  14.778  0.00  0.00    +0.000 A 
ENDROOT
BRANCH   1   7
ATOM      7  C   UNL     1      47.264   6.942  12.516  0.00  0.00    +0.000 C 
BRANCH   7   8
ATOM      8  N   UNL     1      45.846   7.107  12.191  0.00  0.00    +0.000 NA
ATOM      9  H   UNL     1      45.288   6.595  12.877  0.00  0.00    +0.000 HD
BRANCH   8  10
ATOM     10  C   UNL     1      45.512   6.545  10.874  0.00  0.00    +0.000 C 
BRANCH  10  16
ATOM     11  C   UNL     1      44.709   2.064   9.130  0.00  0.00    +0.000 C 
ATOM     12  C   UNL     1      44.418   3.077  10.193  0.00  0.00    +0.000 A 
ATOM     13  C   UNL     1      43.540   2.792  11.234  0.00  0.00    +0.000 A 
ATOM     14  C   UNL     1      43.294   3.769  12.192  0.00  0.00    +0.000 A 
ATOM     15  C   UNL     1      43.928   5.001  12.083  0.00  0.00    +0.000 A 
ATOM     16  C   UNL     1      44.786   5.222  11.010  0.00  0.00    +0.000 A 
ATOM     17  N   UNL     1      45.046   4.272  10.074  0.00  0.00    +0.000 NA
ENDBRANCH  10  16
ENDBRANCH   8  10
ENDBRANCH   7   8
ENDBRANCH   1   7
BRANCH   4  18
ATOM     18  C   UNL     1      48.000   3.973  17.490  0.00  0.00    +0.000 C 
BRANCH  18  19
ATOM     19  N   UNL     1      49.349   4.061  17.981  0.00  0.00    +0.000 N 
ATOM     20  C   UNL     1      50.326   3.216  17.525  0.00  0.00    +0.000 C 
ATOM     21  O   UNL     1      50.110   2.386  16.644  0.00  0.00    +0.000 OA
ATOM     22  H   UNL     1      49.520   4.577  18.837  0.00  0.00    +0.000 HD
BRANCH  20  23
ATOM     23  C   UNL     1      51.665   3.407  18.093  0.00  0.00    +0.000 A 
ATOM     24  C   UNL     1      51.988   4.634  18.658  0.00  0.00    +0.000 A 
ATOM     25  S   UNL     1      53.549   4.683  19.332  0.00  0.00    +0.000 S 
ATOM     26  C   UNL     1      53.866   3.088  18.839  0.00  0.00    +0.000 A 
ATOM     27  N   UNL     1      55.069   2.538  19.105  0.00  0.00    +0.000 NA
ATOM     28  C   UNL     1      55.219   1.280  18.656  0.00  0.00    +0.000 A 
ATOM     29  C   UNL     1      54.263   0.559  17.972  0.00  0.00    +0.000 A 
ATOM     30  C   UNL     1      53.036   1.168  17.727  0.00  0.00    +0.000 A 
ATOM     31  C   UNL     1      52.792   2.493  18.175  0.00  0.00    +0.000 A 
BRANCH  30  32
ATOM     32  O   UNL     1      52.066   0.472  17.049  0.00  0.00    +0.000 OA
ATOM     33  H   UNL     1      51.224   0.535  17.536  0.00  0.00    +0.000 HD
ENDBRANCH  30  32
ENDBRANCH  20  23
ENDBRANCH  18  19
ENDBRANCH   4  18
TORSDOF 8
ENDMDL
