MODEL 1
REMARK VINA RESULT:    -6.857      0.000      0.000
REMARK INTER + INTRA:         -10.357
REMARK INTER:                  -9.663
REMARK INTRA:                  -0.694
REMARK UNBOUND:                -0.694
REMARK  Name = 
REMARK  8 active torsions:
REMARK  status: ('A' for Active; 'I' for Inactive)
REMARK    1  A    between atoms: N_1  and  C_2
REMARK    2  A    between atoms: C_2  and  C_3
REMARK    3  A    between atoms: C_7  and  S_8
REMARK    4  A    between atoms: S_8  and  C_9
REMARK    5  A    between atoms: C_9  and  C_10
REMARK    6  A    between atoms: C_10  and  C_11
REMARK    7  A    between atoms: C_15  and  C_16
REMARK    8  A    between atoms: C_16  and  N_17
REMARK                            x       y       z     vdW  Elec       q    Type
REMARK                         _______ _______ _______ _____ _____    ______ ____
ROOT
ATOM      1  C   UNL     1      43.183   4.042  11.272  0.00  0.00    +0.000 C 
ENDROOT
BRANCH   1   2
ATOM      2  S   UNL     1      43.469   4.240  13.070  0.00  0.00    +0.000 S 
BRANCH   2   7
ATOM      3  C   UNL     1      45.878   7.473  12.499  0.00  0.00    +0.000 A 
ATOM      4  C   UNL     1      47.123   7.007  12.947  0.00  0.00    +0.000 A 
ATOM      5  C   UNL     1      47.262   5.705  13.429  0.00  0.00    +0.000 A 
ATOM      6  C   UNL     1      46.153   4.856  13.480  0.00  0.00    +0.000 A 
ATOM      7  C   UNL     1      44.905   5.303  13.043  0.00  0.00    +0.000 A 
ATOM      8  C   UNL     1      44.777   6.602  12.538  0.00  0.00    +0.000 A 
BRANCH   3   9
ATOM      9  C   UNL     1      45.713   8.897  12.035  0.00  0.00    +0.000 C 
BRANCH   9  10
ATOM     10  N   UNL     1      44.714   9.618  12.815  0.00  0.00    +0.000 NA
ATOM     11  H   UNL     1      44.510   9.090  13.659  0.00  0.00    +0.000 HD
ATOM     12  H   UNL     1      43.845   9.652  12.280  0.00  0.00    +0.000 HD
ENDBRANCH   9  10
ENDBRANCH   3   9
ENDBRANCH   2   7
ENDBRANCH   1   2
BRANCH   1  13
ATOM     13  C   UNL     1      43.923   2.805  10.757  0.00  0.00    +0.000 C 
BRANCH  13  14
ATOM     14  C   UNL     1      44.840   3.089   9.587  0.00  0.00    +0.000 A 
ATOM     15  C   UNL     1      45.074   4.408   9.204  0.00  0.00    +0.000 A 
ATOM     16  C   UNL     1      45.955   4.660   8.157  0.00  0.00    +0.000 A 
ATOM     17  C   UNL     1      46.581   3.592   7.523  0.00  0.00    +0.000 A 
ATOM     18  C   UNL     1      46.301   2.298   7.951  0.00  0.00    +0.000 A 
ATOM     19  N   UNL     1      45.437   2.041   8.968  0.00  0.00    +0.000 NA
BRANCH  18  20
ATOM     20  C   UNL     1      46.991   1.108   7.321  0.00  0.00    +0.000 C 
BRANCH  20  21
ATOM     21  N   UNL     1      48.158   1.465   6.508  0.00  0.00    +0.000 NA
ATOM     22  H   UNL     1      47.904   1.334   5.528  0.00  0.00    +0.000 HD
ATOM     23  H   UNL     1      48.896   0.788   6.695  0.00  0.00    +0.000 HD
ENDBRANCH  20  21
ENDBRANCH  18  20
ENDBRANCH  13  14
ENDBRANCH   1  13
TORSDOF 8
ENDMDL
MODEL 2
REMARK VINA RESULT:    -6.831      1.102      6.485
REMARK INTER + INTRA:         -10.320
REMARK INTER:                  -9.692
REMARK INTRA:                  -0.627
REMARK UNBOUND:                -0.694
REMARK  Name = 
REMARK  8 active torsions:
REMARK  status: ('A' for Active; 'I' for Inactive)
REMARK    1  A    between atoms: N_1  and  C_2
REMARK    2  A    between atoms: C_2  and  C_3
REMARK    3  A    between atoms: C_7  and  S_8
REMARK    4  A    between atoms: S_8  and  C_9
REMARK    5  A    between atoms: C_9  and  C_10
REMARK    6  A    between atoms: C_10  and  C_11
REMARK    7  A    between atoms: C_15  and  C_16
REMARK    8  A    between atoms: C_16  and  N_17
REMARK                            x       y       z     vdW  Elec       q    Type
REMARK                         _______ _______ _______ _____ _____    ______ ____
ROOT
ATOM      1  C   UNL     1      42.963   4.429  11.448  0.00  0.00    +0.000 C 
ENDROOT
BRANCH   1   2
ATOM      2  S   UNL     1      43.610   2.742  11.144  0.00  0.00    +0.000 S 
BRANCH   2   7
ATOM      3  C   UNL     1      46.245   2.215   8.085  0.00  0.00    +0.000 A 
ATOM      4  C   UNL     1      46.494   3.531   7.669  0.00  0.00    +0.000 A 
ATOM      5  C   UNL     1      45.874   4.606   8.306  0.00  0.00    +0.000 A 
ATOM      6  C   UNL     1      44.985   4.377   9.360  0.00  0.00    +0.000 A 
ATOM      7  C   UNL     1      44.721   3.074   9.786  0.00  0.00    +0.000 A 
ATOM      8  C   UNL     1      45.365   2.001   9.158  0.00  0.00    +0.000 A 
BRANCH   3   9
ATOM      9  C   UNL     1      46.867   1.049   7.360  0.00  0.00    +0.000 C 
BRANCH   9  10
ATOM     10  N   UNL     1      48.044   1.442   6.594  0.00  0.00    +0.000 NA
ATOM     11  H   UNL     1      48.842   1.502   7.221  0.00  0.00    +0.000 HD
ATOM     12  H   UNL     1      47.895   2.383   6.227  0.00  0.00    +0.000 HD
ENDBRANCH   9  10
ENDBRANCH   3   9
ENDBRANCH   2   7
ENDBRANCH   1   2
BRANCH   1  13
ATOM     13  C   UNL     1      43.329   4.882  12.864  0.00  0.00    +0.000 C 
BRANCH  13  14
ATOM     14  C   UNL     1      44.682   5.554  12.958  0.00  0.00    +0.000 A 
ATOM     15  C   UNL     1      45.812   4.784  13.228  0.00  0.00    +0.000 A 
ATOM     16  C   UNL     1      47.056   5.404  13.266  0.00  0.00    +0.000 A 
ATOM     17  C   UNL     1      47.141   6.773  13.031  0.00  0.00    +0.000 A 
ATOM     18  C   UNL     1      45.975   7.485  12.771  0.00  0.00    +0.000 A 
ATOM     19  N   UNL     1      44.754   6.889  12.738  0.00  0.00    +0.000 NA
BRANCH  18  20
ATOM     20  C   UNL     1      46.024   8.966  12.466  0.00  0.00    +0.000 C 
BRANCH  20  21
ATOM     21  N   UNL     1      44.765   9.667  12.741  0.00  0.00    +0.000 NA
ATOM     22  H   UNL     1      44.003   9.065  12.430  0.00  0.00    +0.000 HD
ATOM     23  H   UNL     1      44.725  10.494  12.146  0.00  0.00    +0.000 HD
ENDBRANCH  20  21
ENDBRANCH  18  20
ENDBRANCH  13  14
ENDBRANCH   1  13
TORSDOF 8
ENDMDL
MODEL 3
REMARK VINA RESULT:    -6.379      1.472      2.010
REMARK INTER + INTRA:          -9.683
REMARK INTER:                  -8.973
REMARK INTRA:                  -0.710
REMARK UNBOUND:                -0.694
REMARK  Name = 
REMARK  8 active torsions:
REMARK  status: ('A' for Active; 'I' for Inactive)
REMARK    1  A    between atoms: N_1  and  C_2
REMARK    2  A    between atoms: C_2  and  C_3
REMARK    3  A    between atoms: C_7  and  S_8
REMARK    4  A    between atoms: S_8  and  C_9
REMARK    5  A    between atoms: C_9  and  C_10
REMARK    6  A    between atoms: C_10  and  C_11
REMARK    7  A    between atoms: C_15  and  C_16
REMARK    8  A    between atoms: C_16  and  N_17
REMARK                            x       y       z     vdW  Elec       q    Type
REMARK                         _______ _______ _______ _____ _____    ______ ____
ROOT
ATOM      1  C   UNL     1      44.691   2.925  11.821  0.00  0.00    +0.000 C 
ENDROOT
BRANCH   1   2
ATOM      2  S   UNL     1      43.540   4.106  12.618  0.00  0.00    +0.000 S 
BRANCH   2   7
ATOM      3  C   UNL     1      46.420   6.961  12.983  0.00  0.00    +0.000 A 
ATOM      4  C   UNL     1      45.935   7.989  12.163  0.00  0.00    +0.000 A 
ATOM      5  C   UNL     1      44.724   7.843  11.484  0.00  0.00    +0.000 A 
ATOM      6  C   UNL     1      43.990   6.661  11.608  0.00  0.00    +0.000 A 
ATOM      7  C   UNL     1      44.460   5.623  12.416  0.00  0.00    +0.000 A 
ATOM      8  C   UNL     1      45.663   5.786  13.114  0.00  0.00    +0.000 A 
BRANCH   3   9
ATOM      9  C   UNL     1      47.756   7.092  13.670  0.00  0.00    +0.000 C 
BRANCH   9  10
ATOM     10  N   UNL     1      48.195   5.835  14.264  0.00  0.00    +0.000 NA
ATOM     11  H   UNL     1      47.378   5.276  14.496  0.00  0.00    +0.000 HD
ATOM     12  H   UNL     1      48.663   6.039  15.148  0.00  0.00    +0.000 HD
ENDBRANCH   9  10
ENDBRANCH   3   9
ENDBRANCH   2   7
ENDBRANCH   1   2
BRANCH   1  13
ATOM     13  C   UNL     1      44.154   2.519  10.446  0.00  0.00    +0.000 C 
BRANCH  13  14
ATOM     14  C   UNL     1      45.049   2.931   9.297  0.00  0.00    +0.000 A 
ATOM     15  C   UNL     1      45.192   4.283   8.992  0.00  0.00    +0.000 A 
ATOM     16  C   UNL     1      46.053   4.655   7.965  0.00  0.00    +0.000 A 
ATOM     17  C   UNL     1      46.750   3.670   7.272  0.00  0.00    +0.000 A 
ATOM     18  C   UNL     1      46.559   2.337   7.623  0.00  0.00    +0.000 A 
ATOM     19  N   UNL     1      45.715   1.964   8.621  0.00  0.00    +0.000 NA
BRANCH  18  20
ATOM     20  C   UNL     1      47.328   1.235   6.927  0.00  0.00    +0.000 C 
BRANCH  20  21
ATOM     21  N   UNL     1      48.429   1.722   6.090  0.00  0.00    +0.000 NA
ATOM     22  H   UNL     1      49.245   1.141   6.285  0.00  0.00    +0.000 HD
ATOM     23  H   UNL     1      48.677   2.660   6.404  0.00  0.00    +0.000 HD
ENDBRANCH  20  21
ENDBRANCH  18  20
ENDBRANCH  13  14
ENDBRANCH   1  13
TORSDOF 8
ENDMDL
MODEL 4
REMARK VINA RESULT:    -6.056      3.267      6.962
REMARK INTER + INTRA:          -9.228
REMARK INTER:                  -8.900
REMARK INTRA:                  -0.328
REMARK UNBOUND:                -0.694
REMARK  Name = 
REMARK  8 active torsions:
REMARK  status: ('A' for Active; 'I' for Inactive)
REMARK    1  A    between atoms: N_1  and  C_2
REMARK    2  A    between atoms: C_2  and  C_3
REMARK    3  A    between atoms: C_7  and  S_8
REMARK    4  A    between atoms: S_8  and  C_9
REMARK    5  A    between atoms: C_9  and  C_10
REMARK    6  A    between atoms: C_10  and  C_11
REMARK    7  A    between atoms: C_15  and  C_16
REMARK    8  A    between atoms: C_16  and  N_17
REMARK                            x       y       z     vdW  Elec       q    Type
REMARK                         _______ _______ _______ _____ _____    ______ ____
ROOT
ATOM      1  C   UNL     1      46.517   6.047  12.183  0.00  0.00    +0.000 C 
ENDROOT
BRANCH   1   2
ATOM      2  S   UNL     1      44.957   6.324  11.264  0.00  0.00    +0.000 S 
BRANCH   2   7
ATOM      3  C   UNL     1      45.309   3.460   8.390  0.00  0.00    +0.000 A 
ATOM      4  C   UNL     1      44.637   2.371   8.962  0.00  0.00    +0.000 A 
ATOM      5  C   UNL     1      44.059   2.480  10.228  0.00  0.00    +0.000 A 
ATOM      6  C   UNL     1      44.159   3.676  10.943  0.00  0.00    +0.000 A 
ATOM      7  C   UNL     1      44.828   4.771  10.391  0.00  0.00    +0.000 A 
ATOM      8  C   UNL     1      45.385   4.663   9.111  0.00  0.00    +0.000 A 
BRANCH   3   9
ATOM      9  C   UNL     1      45.986   3.327   7.050  0.00  0.00    +0.000 C 
BRANCH   9  10
ATOM     10  N   UNL     1      47.108   4.246   6.906  0.00  0.00    +0.000 NA
ATOM     11  H   UNL     1      47.967   3.758   7.146  0.00  0.00    +0.000 HD
ATOM     12  H   UNL     1      47.005   4.997   7.590  0.00  0.00    +0.000 HD
ENDBRANCH   9  10
ENDBRANCH   3   9
ENDBRANCH   2   7
ENDBRANCH   1   2
BRANCH   1  13
ATOM     13  C   UNL     1      46.299   5.003  13.280  0.00  0.00    +0.000 C 
BRANCH  13  14
ATOM     14  C   UNL     1      47.212   5.176  14.475  0.00  0.00    +0.000 A 
ATOM     15  C   UNL     1      48.018   6.310  14.562  0.00  0.00    +0.000 A 
ATOM     16  C   UNL     1      48.818   6.483  15.686  0.00  0.00    +0.000 A 
ATOM     17  C   UNL     1      48.793   5.524  16.694  0.00  0.00    +0.000 A 
ATOM     18  C   UNL     1      47.969   4.413  16.544  0.00  0.00    +0.000 A 
ATOM     19  N   UNL     1      47.188   4.232  15.446  0.00  0.00    +0.000 NA
BRANCH  18  20
ATOM     20  C   UNL     1      47.875   3.367  17.633  0.00  0.00    +0.000 C 
BRANCH  20  21
ATOM     21  N   UNL     1      46.543   2.770  17.764  0.00  0.00    +0.000 NA
ATOM     22  H   UNL     1      46.063   3.250  18.526  0.00  0.00    +0.000 HD
ATOM     23  H   UNL     1      46.655   1.805  18.074  0.00  0.00    +0.000 HD
ENDBRANCH  20  21
ENDBRANCH  18  20
ENDBRANCH  13  14
ENDBRANCH   1  13
TORSDOF 8
ENDMDL
MODEL 5
REMARK VINA RESULT:    -5.778      5.002      6.844
REMARK INTER + INTRA:          -8.837
REMARK INTER:                  -8.500
REMARK INTRA:                  -0.337
REMARK UNBOUND:                -0.694
REMARK  Name = 
REMARK  8 active torsions:
REMARK  status: ('A' for Active; 'I' for Inactive)
REMARK    1  A    between atoms: N_1  and  C_2
REMARK    2  A    between atoms: C_2  and  C_3
REMARK    3  A    between atoms: C_7  and  S_8
REMARK    4  A    between atoms: S_8  and  C_9
REMARK    5  A    between atoms: C_9  and  C_10
REMARK    6  A    between atoms: C_10  and  C_11
REMARK    7  A    between atoms: C_15  and  C_16
REMARK    8  A    between atoms: C_16  and  N_17
REMARK                            x       y       z     vdW  Elec       q    Type
REMARK                         _______ _______ _______ _____ _____    ______ ____
ROOT
ATOM      1  C   UNL     1      47.349   4.547  15.589  0.00  0.00    +0.000 C 
ENDROOT
BRANCH   1   2
ATOM      2  S   UNL     1      47.511   3.540  17.111  0.00  0.00    +0.000 S 
BRANCH   2   7
ATOM      3  C   UNL     1      51.415   2.459  17.527  0.00  0.00    +0.000 A 
ATOM      4  C   UNL     1      52.047   3.689  17.759  0.00  0.00    +0.000 A 
ATOM      5  C   UNL     1      51.307   4.871  17.799  0.00  0.00    +0.000 A 
ATOM      6  C   UNL     1      49.925   4.839  17.592  0.00  0.00    +0.000 A 
ATOM      7  C   UNL     1      49.278   3.625  17.355  0.00  0.00    +0.000 A 
ATOM      8  C   UNL     1      50.023   2.440  17.341  0.00  0.00    +0.000 A 
BRANCH   3   9
ATOM      9  C   UNL     1      52.219   1.189  17.424  0.00  0.00    +0.000 C 
BRANCH   9  10
ATOM     10  N   UNL     1      51.623   0.097  18.183  0.00  0.00    +0.000 NA
ATOM     11  H   UNL     1      51.055  -0.469  17.559  0.00  0.00    +0.000 HD
ATOM     12  H   UNL     1      50.984   0.491  18.874  0.00  0.00    +0.000 HD
ENDBRANCH   9  10
ENDBRANCH   3   9
ENDBRANCH   2   7
ENDBRANCH   1   2
BRANCH   1  13
ATOM     13  C   UNL     1      47.152   3.634  14.376  0.00  0.00    +0.000 C 
BRANCH  13  14
ATOM     14  C   UNL     1      46.295   4.245  13.288  0.00  0.00    +0.000 A 
ATOM     15  C   UNL     1      46.403   5.607  13.015  0.00  0.00    +0.000 A 
ATOM     16  C   UNL     1      45.645   6.149  11.982  0.00  0.00    +0.000 A 
ATOM     17  C   UNL     1      44.803   5.319  11.249  0.00  0.00    +0.000 A 
ATOM     18  C   UNL     1      44.738   3.968  11.575  0.00  0.00    +0.000 A 
ATOM     19  N   UNL     1      45.470   3.431  12.586  0.00  0.00    +0.000 NA
BRANCH  18  20
ATOM     20  C   UNL     1      43.870   3.020  10.777  0.00  0.00    +0.000 C 
BRANCH  20  21
ATOM     21  N   UNL     1      43.037   2.143  11.606  0.00  0.00    +0.000 NA
ATOM     22  H   UNL     1      43.144   1.192  11.254  0.00  0.00    +0.000 HD
ATOM     23  H   UNL     1      42.061   2.388  11.448  0.00  0.00    +0.000 HD
ENDBRANCH  20  21
ENDBRANCH  18  20
ENDBRANCH  13  14
ENDBRANCH   1  13
TORSDOF 8
ENDMDL
MODEL 6
REMARK VINA RESULT:    -5.532      3.776      7.444
REMARK INTER + INTRA:          -8.489
REMARK INTER:                  -8.122
REMARK INTRA:                  -0.367
REMARK UNBOUND:                -0.694
REMARK  Name = 
REMARK  8 active torsions:
REMARK  status: ('A' for Active; 'I' for Inactive)
REMARK    1  A    between atoms: N_1  and  C_2
REMARK    2  A    between atoms: C_2  and  C_3
REMARK    3  A    between atoms: C_7  and  S_8
REMARK    4  A    between atoms: S_8  and  C_9
REMARK    5  A    between atoms: C_9  and  C_10
REMARK    6  A    between atoms: C_10  and  C_11
REMARK    7  A    between atoms: C_15  and  C_16
REMARK    8  A    between atoms: C_16  and  N_17
REMARK                            x       y       z     vdW  Elec       q    Type
REMARK                         _______ _______ _______ _____ _____    ______ ____
ROOT
ATOM      1  C   UNL     1      47.779   6.006  13.190  0.00  0.00    +0.000 C 
ENDROOT
BRANCH   1   2
ATOM      2  S   UNL     1      46.898   6.991  11.922  0.00  0.00    +0.000 S 
BRANCH   2   7
ATOM      3  C   UNL     1      44.400   3.810  11.453  0.00  0.00    +0.000 A 
ATOM      4  C   UNL     1      44.339   3.674  10.059  0.00  0.00    +0.000 A 
ATOM      5  C   UNL     1      45.054   4.540   9.230  0.00  0.00    +0.000 A 
ATOM      6  C   UNL     1      45.829   5.561   9.786  0.00  0.00    +0.000 A 
ATOM      7  C   UNL     1      45.899   5.714  11.172  0.00  0.00    +0.000 A 
ATOM      8  C   UNL     1      45.199   4.827  11.999  0.00  0.00    +0.000 A 
BRANCH   3   9
ATOM      9  C   UNL     1      43.582   2.914  12.349  0.00  0.00    +0.000 C 
BRANCH   9  10
ATOM     10  N   UNL     1      42.932   1.841  11.608  0.00  0.00    +0.000 NA
ATOM     11  H   UNL     1      41.930   2.010  11.591  0.00  0.00    +0.000 HD
ATOM     12  H   UNL     1      43.067   0.966  12.116  0.00  0.00    +0.000 HD
ENDBRANCH   9  10
ENDBRANCH   3   9
ENDBRANCH   2   7
ENDBRANCH   1   2
BRANCH   1  13
ATOM     13  C   UNL     1      48.521   6.937  14.153  0.00  0.00    +0.000 C 
BRANCH  13  14
ATOM     14  C   UNL     1      48.613   6.402  15.566  0.00  0.00    +0.000 A 
ATOM     15  C   UNL     1      48.938   7.270  16.607  0.00  0.00    +0.000 A 
ATOM     16  C   UNL     1      48.974   6.778  17.908  0.00  0.00    +0.000 A 
ATOM     17  C   UNL     1      48.684   5.437  18.136  0.00  0.00    +0.000 A 
ATOM     18  C   UNL     1      48.370   4.623  17.053  0.00  0.00    +0.000 A 
ATOM     19  N   UNL     1      48.339   5.092  15.778  0.00  0.00    +0.000 NA
BRANCH  18  20
ATOM     20  C   UNL     1      48.005   3.169  17.258  0.00  0.00    +0.000 C 
BRANCH  20  21
ATOM     21  N   UNL     1      46.612   2.962  17.665  0.00  0.00    +0.000 NA
ATOM     22  H   UNL     1      46.128   3.856  17.575  0.00  0.00    +0.000 HD
ATOM     23  H   UNL     1      46.600   2.741  18.660  0.00  0.00    +0.000 HD
ENDBRANCH  20  21
ENDBRANCH  18  20
ENDBRANCH  13  14
ENDBRANCH   1  13
TORSDOF 8
ENDMDL
MODEL 7
REMARK VINA RESULT:    -5.522      1.837      2.379
REMARK INTER + INTRA:          -8.475
REMARK INTER:                  -8.126
REMARK INTRA:                  -0.350
REMARK UNBOUND:                -0.694
REMARK  Name = 
REMARK  8 active torsions:
REMARK  status: ('A' for Active; 'I' for Inactive)
REMARK    1  A    between atoms: N_1  and  C_2
REMARK    2  A    between atoms: C_2  and  C_3
REMARK    3  A    between atoms: C_7  and  S_8
REMARK    4  A    between atoms: S_8  and  C_9
REMARK    5  A    between atoms: C_9  and  C_10
REMARK    6  A    between atoms: C_10  and  C_11
REMARK    7  A    between atoms: C_15  and  C_16
REMARK    8  A    between atoms: C_16  and  N_17
REMARK                            x       y       z     vdW  Elec       q    Type
REMARK                         _______ _______ _______ _____ _____    ______ ____
ROOT
ATOM      1  C   UNL     1      45.187   5.328   9.979  0.00  0.00    +0.000 C 
ENDROOT
BRANCH   1   2
ATOM      2  S   UNL     1      44.321   5.556  11.577  0.00  0.00    +0.000 S 
BRANCH   2   7
ATOM      3  C   UNL     1      47.825   6.714  13.299  0.00  0.00    +0.000 A 
ATOM      4  C   UNL     1      47.955   5.809  14.361  0.00  0.00    +0.000 A 
ATOM      5  C   UNL     1      46.989   4.826  14.578  0.00  0.00    +0.000 A 
ATOM      6  C   UNL     1      45.872   4.746  13.742  0.00  0.00    +0.000 A 
ATOM      7  C   UNL     1      45.722   5.641  12.682  0.00  0.00    +0.000 A 
ATOM      8  C   UNL     1      46.708   6.609  12.455  0.00  0.00    +0.000 A 
BRANCH   3   9
ATOM      9  C   UNL     1      48.836   7.814  13.098  0.00  0.00    +0.000 C 
BRANCH   9  10
ATOM     10  N   UNL     1      48.728   8.427  11.780  0.00  0.00    +0.000 NA
ATOM     11  H   UNL     1      47.870   8.110  11.337  0.00  0.00    +0.000 HD
ATOM     12  H   UNL     1      49.494   8.087  11.198  0.00  0.00    +0.000 HD
ENDBRANCH   9  10
ENDBRANCH   3   9
ENDBRANCH   2   7
ENDBRANCH   1   2
BRANCH   1  13
ATOM     13  C   UNL     1      44.382   4.387   9.078  0.00  0.00    +0.000 C 
BRANCH  13  14
ATOM     14  C   UNL     1      45.219   3.310   8.422  0.00  0.00    +0.000 A 
ATOM     15  C   UNL     1      45.268   2.039   8.991  0.00  0.00    +0.000 A 
ATOM     16  C   UNL     1      46.002   1.043   8.355  0.00  0.00    +0.000 A 
ATOM     17  C   UNL     1      46.665   1.340   7.169  0.00  0.00    +0.000 A 
ATOM     18  C   UNL     1      46.579   2.630   6.654  0.00  0.00    +0.000 A 
ATOM     19  N   UNL     1      45.870   3.611   7.272  0.00  0.00    +0.000 NA
BRANCH  18  20
ATOM     20  C   UNL     1      47.247   2.987   5.344  0.00  0.00    +0.000 C 
BRANCH  20  21
ATOM     21  N   UNL     1      48.467   2.220   5.076  0.00  0.00    +0.000 NA
ATOM     22  H   UNL     1      48.577   2.158   4.064  0.00  0.00    +0.000 HD
ATOM     23  H   UNL     1      48.320   1.264   5.397  0.00  0.00    +0.000 HD
ENDBRANCH  20  21
ENDBRANCH  18  20
ENDBRANCH  13  14
ENDBRANCH   1  13
TORSDOF 8
ENDMDL
MODEL 8
REMARK VINA RESULT:    -5.378      3.729      7.358
REMARK INTER + INTRA:          -8.273
REMARK INTER:                  -7.913
REMARK INTRA:                  -0.359
REMARK UNBOUND:                -0.694
REMARK  Name = 
REMARK  8 active torsions:
REMARK  status: ('A' for Active; 'I' for Inactive)
REMARK    1  A    between atoms: N_1  and  C_2
REMARK    2  A    between atoms: C_2  and  C_3
REMARK    3  A    between atoms: C_7  and  S_8
REMARK    4  A    between atoms: S_8  and  C_9
REMARK    5  A    between atoms: C_9  and  C_10
REMARK    6  A    between atoms: C_10  and  C_11
REMARK    7  A    between atoms: C_15  and  C_16
REMARK    8  A    between atoms: C_16  and  N_17
REMARK                            x       y       z     vdW  Elec       q    Type
REMARK                         _______ _______ _______ _____ _____    ______ ____
ROOT
ATOM      1  C   UNL     1      47.654   6.032  13.341  0.00  0.00    +0.000 C 
ENDROOT
BRANCH   1   2
ATOM      2  S   UNL     1      46.462   7.045  12.387  0.00  0.00    +0.000 S 
BRANCH   2   7
ATOM      3  C   UNL     1      44.286   4.028  10.730  0.00  0.00    +0.000 A 
ATOM      4  C   UNL     1      43.186   3.936  11.595  0.00  0.00    +0.000 A 
ATOM      5  C   UNL     1      43.077   4.787  12.696  0.00  0.00    +0.000 A 
ATOM      6  C   UNL     1      44.074   5.731  12.953  0.00  0.00    +0.000 A 
ATOM      7  C   UNL     1      45.179   5.835  12.106  0.00  0.00    +0.000 A 
ATOM      8  C   UNL     1      45.271   4.995  10.989  0.00  0.00    +0.000 A 
BRANCH   3   9
ATOM      9  C   UNL     1      44.437   3.071   9.575  0.00  0.00    +0.000 C 
BRANCH   9  10
ATOM     10  N   UNL     1      44.317   3.741   8.286  0.00  0.00    +0.000 NA
ATOM     11  H   UNL     1      44.167   3.043   7.563  0.00  0.00    +0.000 HD
ATOM     12  H   UNL     1      45.207   4.193   8.069  0.00  0.00    +0.000 HD
ENDBRANCH   9  10
ENDBRANCH   3   9
ENDBRANCH   2   7
ENDBRANCH   1   2
BRANCH   1  13
ATOM     13  C   UNL     1      48.408   6.914  14.340  0.00  0.00    +0.000 C 
BRANCH  13  14
ATOM     14  C   UNL     1      48.602   6.268  15.695  0.00  0.00    +0.000 A 
ATOM     15  C   UNL     1      49.084   7.033  16.756  0.00  0.00    +0.000 A 
ATOM     16  C   UNL     1      49.214   6.443  18.008  0.00  0.00    +0.000 A 
ATOM     17  C   UNL     1      48.859   5.108  18.171  0.00  0.00    +0.000 A 
ATOM     18  C   UNL     1      48.387   4.398  17.071  0.00  0.00    +0.000 A 
ATOM     19  N   UNL     1      48.263   4.965  15.842  0.00  0.00    +0.000 NA
BRANCH  18  20
ATOM     20  C   UNL     1      47.948   2.957  17.210  0.00  0.00    +0.000 C 
BRANCH  20  21
ATOM     21  N   UNL     1      46.586   2.803  17.731  0.00  0.00    +0.000 NA
ATOM     22  H   UNL     1      45.941   3.139  17.014  0.00  0.00    +0.000 HD
ATOM     23  H   UNL     1      46.473   3.437  18.521  0.00  0.00    +0.000 HD
ENDBRANCH  20  21
ENDBRANCH  18  20
ENDBRANCH  13  14
ENDBRANCH   1  13
TORSDOF 8
ENDMDL
MODEL 9
REMARK VINA RESULT:    -5.300      2.635      6.625
REMARK INTER + INTRA:          -8.163
REMARK INTER:                  -7.554
REMARK INTRA:                  -0.609
REMARK UNBOUND:                -0.694
REMARK  Name = 
REMARK  8 active torsions:
REMARK  status: ('A' for Active; 'I' for Inactive)
REMARK    1  A    between atoms: N_1  and  C_2
REMARK    2  A    between atoms: C_2  and  C_3
REMARK    3  A    between atoms: C_7  and  S_8
REMARK    4  A    between atoms: S_8  and  C_9
REMARK    5  A    between atoms: C_9  and  C_10
REMARK    6  A    between atoms: C_10  and  C_11
REMARK    7  A    between atoms: C_15  and  C_16
REMARK    8  A    between atoms: C_16  and  N_17
REMARK                            x       y       z     vdW  Elec       q    Type
REMARK                         _______ _______ _______ _____ _____    ______ ____
ROOT
ATOM      1  C   UNL     1      44.873   5.836  12.958  0.00  0.00    +0.000 C 
ENDROOT
BRANCH   1   2
ATOM      2  S   UNL     1      43.775   4.529  12.293  0.00  0.00    +0.000 S 
BRANCH   2   7
ATOM      3  C   UNL     1      45.281   2.623   9.025  0.00  0.00    +0.000 A 
ATOM      4  C   UNL     1      45.822   3.680   8.279  0.00  0.00    +0.000 A 
ATOM      5  C   UNL     1      45.747   4.991   8.750  0.00  0.00    +0.000 A 
ATOM      6  C   UNL     1      45.117   5.263   9.967  0.00  0.00    +0.000 A 
ATOM      7  C   UNL     1      44.568   4.224  10.722  0.00  0.00    +0.000 A 
ATOM      8  C   UNL     1      44.668   2.908  10.256  0.00  0.00    +0.000 A 
BRANCH   3   9
ATOM      9  C   UNL     1      45.308   1.213   8.491  0.00  0.00    +0.000 C 
BRANCH   9  10
ATOM     10  N   UNL     1      46.634   0.826   8.026  0.00  0.00    +0.000 NA
ATOM     11  H   UNL     1      46.793  -0.152   8.254  0.00  0.00    +0.000 HD
ATOM     12  H   UNL     1      47.331   1.359   8.549  0.00  0.00    +0.000 HD
ENDBRANCH   9  10
ENDBRANCH   3   9
ENDBRANCH   2   7
ENDBRANCH   1   2
BRANCH   1  13
ATOM     13  C   UNL     1      46.169   5.213  13.483  0.00  0.00    +0.000 C 
BRANCH  13  14
ATOM     14  C   UNL     1      47.385   6.098  13.308  0.00  0.00    +0.000 A 
ATOM     15  C   UNL     1      47.611   6.715  12.079  0.00  0.00    +0.000 A 
ATOM     16  C   UNL     1      48.705   7.563  11.942  0.00  0.00    +0.000 A 
ATOM     17  C   UNL     1      49.541   7.776  13.033  0.00  0.00    +0.000 A 
ATOM     18  C   UNL     1      49.261   7.127  14.232  0.00  0.00    +0.000 A 
ATOM     19  N   UNL     1      48.199   6.292  14.373  0.00  0.00    +0.000 NA
BRANCH  18  20
ATOM     20  C   UNL     1      50.117   7.363  15.457  0.00  0.00    +0.000 C 
BRANCH  20  21
ATOM     21  N   UNL     1      51.494   6.879  15.316  0.00  0.00    +0.000 NA
ATOM     22  H   UNL     1      51.943   6.956  16.230  0.00  0.00    +0.000 HD
ATOM     23  H   UNL     1      51.997   7.523  14.707  0.00  0.00    +0.000 HD
ENDBRANCH  20  21
ENDBRANCH  18  20
ENDBRANCH  13  14
ENDBRANCH   1  13
TORSDOF 8
ENDMDL
