MODEL 1
REMARK VINA RESULT:    -8.162      0.000      0.000
REMARK INTER + INTRA:         -11.527
REMARK INTER:                 -10.548
REMARK INTRA:                  -0.979
REMARK UNBOUND:                -0.979
REMARK  Name = 
REMARK  5 active torsions:
REMARK  status: ('A' for Active; 'I' for Inactive)
REMARK    1  A    between atoms: C_4  and  C_5
REMARK    2  A    between atoms: C_5  and  C_6
REMARK    3  A    between atoms: C_6  and  C_7
REMARK    4  A    between atoms: C_9  and  C_10
REMARK    5  A    between atoms: C_18  and  C_19
REMARK                            x       y       z     vdW  Elec       q    Type
REMARK                         _______ _______ _______ _____ _____    ______ ____
ROOT
ATOM      1  F   UNL     1      47.878   7.892  11.813  0.00  0.00    +0.000 F 
ATOM      2  C   UNL     1      47.185   6.916  12.418  0.00  0.00    +0.000 A 
ATOM      3  C   UNL     1      45.924   6.585  11.937  0.00  0.00    +0.000 A 
ATOM      4  C   UNL     1      45.190   5.569  12.554  0.00  0.00    +0.000 A 
ATOM      5  C   UNL     1      45.753   4.923  13.671  0.00  0.00    +0.000 A 
ATOM      6  C   UNL     1      47.039   5.231  14.157  0.00  0.00    +0.000 A 
ATOM      7  C   UNL     1      47.742   6.258  13.509  0.00  0.00    +0.000 A 
ENDROOT
BRANCH   6   8
ATOM      8  C   UNL     1      47.631   4.509  15.301  0.00  0.00    +0.000 A 
ATOM      9  C   UNL     1      48.108   5.161  16.438  0.00  0.00    +0.000 A 
ATOM     10  C   UNL     1      48.651   4.414  17.482  0.00  0.00    +0.000 A 
ATOM     11  C   UNL     1      48.704   3.033  17.369  0.00  0.00    +0.000 A 
ATOM     12  C   UNL     1      48.205   2.455  16.216  0.00  0.00    +0.000 A 
ATOM     13  N   UNL     1      47.672   3.156  15.191  0.00  0.00    +0.000 NA
ENDBRANCH   6   8
BRANCH   4  14
ATOM     14  C   UNL     1      43.790   5.184  12.134  0.00  0.00    +0.000 C 
BRANCH  14  15
ATOM     15  C   UNL     1      43.529   5.169  10.622  0.00  0.00    +0.000 C 
BRANCH  15  16
ATOM     16  C   UNL     1      44.204   4.019   9.909  0.00  0.00    +0.000 A 
ATOM     17  C   UNL     1      45.168   4.290   8.940  0.00  0.00    +0.000 A 
ATOM     18  C   UNL     1      45.776   3.227   8.263  0.00  0.00    +0.000 A 
ATOM     19  C   UNL     1      45.394   1.923   8.588  0.00  0.00    +0.000 A 
ATOM     20  C   UNL     1      44.432   1.739   9.564  0.00  0.00    +0.000 A 
ATOM     21  N   UNL     1      43.838   2.755  10.222  0.00  0.00    +0.000 NA
BRANCH  18  22
ATOM     22  C   UNL     1      46.814   3.469   7.202  0.00  0.00    +0.000 C 
ATOM     23  F   UNL     1      47.375   4.708   7.262  0.00  0.00    +0.000 F 
ATOM     24  F   UNL     1      47.848   2.585   7.277  0.00  0.00    +0.000 F 
ATOM     25  F   UNL     1      46.309   3.347   5.944  0.00  0.00    +0.000 F 
ENDBRANCH  18  22
ENDBRANCH  15  16
ENDBRANCH  14  15
ENDBRANCH   4  14
TORSDOF 5
ENDMDL
MODEL 2
REMARK VINA RESULT:    -7.722      2.187      3.793
REMARK INTER + INTRA:         -10.958
REMARK INTER:                  -9.888
REMARK INTRA:                  -1.070
REMARK UNBOUND:                -0.979
REMARK  Name = 
REMARK  5 active torsions:
REMARK  status: ('A' for Active; 'I' for Inactive)
REMARK    1  A    between atoms: C_4  and  C_5
REMARK    2  A    between atoms: C_5  and  C_6
REMARK    3  A    between atoms: C_6  and  C_7
REMARK    4  A    between atoms: C_9  and  C_10
REMARK    5  A    between atoms: C_18  and  C_19
REMARK                            x       y       z     vdW  Elec       q    Type
REMARK                         _______ _______ _______ _____ _____    ______ ____
ROOT
ATOM      1  F   UNL     1      47.341   3.636  14.838  0.00  0.00    +0.000 F 
ATOM      2  C   UNL     1      46.820   4.627  14.099  0.00  0.00    +0.000 A 
ATOM      3  C   UNL     1      45.524   4.500  13.615  0.00  0.00    +0.000 A 
ATOM      4  C   UNL     1      44.965   5.524  12.847  0.00  0.00    +0.000 A 
ATOM      5  C   UNL     1      45.756   6.656  12.567  0.00  0.00    +0.000 A 
ATOM      6  C   UNL     1      47.063   6.810  13.069  0.00  0.00    +0.000 A 
ATOM      7  C   UNL     1      47.586   5.757  13.836  0.00  0.00    +0.000 A 
ENDROOT
BRANCH   6   8
ATOM      8  C   UNL     1      47.858   8.026  12.804  0.00  0.00    +0.000 A 
ATOM      9  C   UNL     1      48.665   8.167  11.674  0.00  0.00    +0.000 A 
ATOM     10  C   UNL     1      49.385   9.345  11.486  0.00  0.00    +0.000 A 
ATOM     11  C   UNL     1      49.283  10.357  12.429  0.00  0.00    +0.000 A 
ATOM     12  C   UNL     1      48.459  10.150  13.520  0.00  0.00    +0.000 A 
ATOM     13  N   UNL     1      47.748   9.018  13.724  0.00  0.00    +0.000 NA
ENDBRANCH   6   8
BRANCH   4  14
ATOM     14  C   UNL     1      43.586   5.444  12.232  0.00  0.00    +0.000 C 
BRANCH  14  15
ATOM     15  C   UNL     1      43.538   5.480  10.699  0.00  0.00    +0.000 C 
BRANCH  15  16
ATOM     16  C   UNL     1      44.124   4.246  10.051  0.00  0.00    +0.000 A 
ATOM     17  C   UNL     1      45.067   4.393   9.035  0.00  0.00    +0.000 A 
ATOM     18  C   UNL     1      45.592   3.252   8.419  0.00  0.00    +0.000 A 
ATOM     19  C   UNL     1      45.151   1.997   8.849  0.00  0.00    +0.000 A 
ATOM     20  C   UNL     1      44.215   1.938   9.865  0.00  0.00    +0.000 A 
ATOM     21  N   UNL     1      43.701   3.031  10.466  0.00  0.00    +0.000 NA
BRANCH  18  22
ATOM     22  C   UNL     1      46.604   3.358   7.312  0.00  0.00    +0.000 C 
ATOM     23  F   UNL     1      46.070   3.206   6.069  0.00  0.00    +0.000 F 
ATOM     24  F   UNL     1      47.239   4.564   7.302  0.00  0.00    +0.000 F 
ATOM     25  F   UNL     1      47.586   2.421   7.414  0.00  0.00    +0.000 F 
ENDBRANCH  18  22
ENDBRANCH  15  16
ENDBRANCH  14  15
ENDBRANCH   4  14
TORSDOF 5
ENDMDL
MODEL 3
REMARK VINA RESULT:    -7.697      2.606      4.453
REMARK INTER + INTRA:         -10.927
REMARK INTER:                 -10.286
REMARK INTRA:                  -0.641
REMARK UNBOUND:                -0.979
REMARK  Name = 
REMARK  5 active torsions:
REMARK  status: ('A' for Active; 'I' for Inactive)
REMARK    1  A    between atoms: C_4  and  C_5
REMARK    2  A    between atoms: C_5  and  C_6
REMARK    3  A    between atoms: C_6  and  C_7
REMARK    4  A    between atoms: C_9  and  C_10
REMARK    5  A    between atoms: C_18  and  C_19
REMARK                            x       y       z     vdW  Elec       q    Type
REMARK                         _______ _______ _______ _____ _____    ______ ____
ROOT
ATOM      1  F   UNL     1      47.375   4.170  14.478  0.00  0.00    +0.000 F 
ATOM      2  C   UNL     1      46.555   4.833  13.649  0.00  0.00    +0.000 A 
ATOM      3  C   UNL     1      45.481   4.160  13.080  0.00  0.00    +0.000 A 
ATOM      4  C   UNL     1      44.615   4.837  12.217  0.00  0.00    +0.000 A 
ATOM      5  C   UNL     1      44.880   6.191  11.933  0.00  0.00    +0.000 A 
ATOM      6  C   UNL     1      45.951   6.893  12.520  0.00  0.00    +0.000 A 
ATOM      7  C   UNL     1      46.796   6.176  13.380  0.00  0.00    +0.000 A 
ENDROOT
BRANCH   6   8
ATOM      8  C   UNL     1      46.183   8.326  12.246  0.00  0.00    +0.000 A 
ATOM      9  C   UNL     1      45.140   9.237  12.071  0.00  0.00    +0.000 A 
ATOM     10  C   UNL     1      45.433  10.576  11.819  0.00  0.00    +0.000 A 
ATOM     11  C   UNL     1      46.759  10.977  11.751  0.00  0.00    +0.000 A 
ATOM     12  C   UNL     1      47.739  10.020  11.943  0.00  0.00    +0.000 A 
ATOM     13  N   UNL     1      47.482   8.717  12.190  0.00  0.00    +0.000 NA
ENDBRANCH   6   8
BRANCH   4  14
ATOM     14  C   UNL     1      43.458   4.169  11.509  0.00  0.00    +0.000 C 
BRANCH  14  15
ATOM     15  C   UNL     1      43.799   2.883  10.745  0.00  0.00    +0.000 C 
BRANCH  15  16
ATOM     16  C   UNL     1      44.715   3.111   9.564  0.00  0.00    +0.000 A 
ATOM     17  C   UNL     1      45.383   2.025   9.002  0.00  0.00    +0.000 A 
ATOM     18  C   UNL     1      46.251   2.239   7.924  0.00  0.00    +0.000 A 
ATOM     19  C   UNL     1      46.413   3.542   7.446  0.00  0.00    +0.000 A 
ATOM     20  C   UNL     1      45.710   4.564   8.058  0.00  0.00    +0.000 A 
ATOM     21  N   UNL     1      44.873   4.370   9.098  0.00  0.00    +0.000 NA
BRANCH  18  22
ATOM     22  C   UNL     1      47.002   1.102   7.289  0.00  0.00    +0.000 C 
ATOM     23  F   UNL     1      46.777  -0.100   7.887  0.00  0.00    +0.000 F 
ATOM     24  F   UNL     1      46.678   0.934   5.977  0.00  0.00    +0.000 F 
ATOM     25  F   UNL     1      48.350   1.289   7.320  0.00  0.00    +0.000 F 
ENDBRANCH  18  22
ENDBRANCH  15  16
ENDBRANCH  14  15
ENDBRANCH   4  14
TORSDOF 5
ENDMDL
MODEL 4
REMARK VINA RESULT:    -7.606      3.112      6.974
REMARK INTER + INTRA:         -10.808
REMARK INTER:                  -9.820
REMARK INTRA:                  -0.989
REMARK UNBOUND:                -0.979
REMARK  Name = 
REMARK  5 active torsions:
REMARK  status: ('A' for Active; 'I' for Inactive)
REMARK    1  A    between atoms: C_4  and  C_5
REMARK    2  A    between atoms: C_5  and  C_6
REMARK    3  A    between atoms: C_6  and  C_7
REMARK    4  A    between atoms: C_9  and  C_10
REMARK    5  A    between atoms: C_18  and  C_19
REMARK                            x       y       z     vdW  Elec       q    Type
REMARK                         _______ _______ _______ _____ _____    ______ ____
ROOT
ATOM      1  F   UNL     1      42.894   2.032  12.009  0.00  0.00    +0.000 F 
ATOM      2  C   UNL     1      43.580   2.889  11.238  0.00  0.00    +0.000 A 
ATOM      3  C   UNL     1      43.545   4.245  11.537  0.00  0.00    +0.000 A 
ATOM      4  C   UNL     1      44.256   5.150  10.747  0.00  0.00    +0.000 A 
ATOM      5  C   UNL     1      44.977   4.651   9.645  0.00  0.00    +0.000 A 
ATOM      6  C   UNL     1      45.041   3.277   9.341  0.00  0.00    +0.000 A 
ATOM      7  C   UNL     1      44.312   2.402  10.161  0.00  0.00    +0.000 A 
ENDROOT
BRANCH   6   8
ATOM      8  C   UNL     1      45.842   2.768   8.209  0.00  0.00    +0.000 A 
ATOM      9  C   UNL     1      46.153   3.551   7.096  0.00  0.00    +0.000 A 
ATOM     10  C   UNL     1      46.917   3.006   6.065  0.00  0.00    +0.000 A 
ATOM     11  C   UNL     1      47.356   1.695   6.169  0.00  0.00    +0.000 A 
ATOM     12  C   UNL     1      47.016   0.983   7.305  0.00  0.00    +0.000 A 
ATOM     13  N   UNL     1      46.279   1.488   8.319  0.00  0.00    +0.000 NA
ENDBRANCH   6   8
BRANCH   4  14
ATOM     14  C   UNL     1      44.226   6.646  10.965  0.00  0.00    +0.000 C 
BRANCH  14  15
ATOM     15  C   UNL     1      44.608   7.122  12.372  0.00  0.00    +0.000 C 
BRANCH  15  16
ATOM     16  C   UNL     1      46.079   6.958  12.682  0.00  0.00    +0.000 A 
ATOM     17  C   UNL     1      46.996   7.842  12.118  0.00  0.00    +0.000 A 
ATOM     18  C   UNL     1      48.360   7.676  12.385  0.00  0.00    +0.000 A 
ATOM     19  C   UNL     1      48.754   6.624  13.216  0.00  0.00    +0.000 A 
ATOM     20  C   UNL     1      47.781   5.792  13.738  0.00  0.00    +0.000 A 
ATOM     21  N   UNL     1      46.464   5.942  13.488  0.00  0.00    +0.000 NA
BRANCH  18  22
ATOM     22  C   UNL     1      49.389   8.597  11.792  0.00  0.00    +0.000 C 
ATOM     23  F   UNL     1      50.264   7.972  10.956  0.00  0.00    +0.000 F 
ATOM     24  F   UNL     1      48.829   9.603  11.064  0.00  0.00    +0.000 F 
ATOM     25  F   UNL     1      50.151   9.206  12.743  0.00  0.00    +0.000 F 
ENDBRANCH  18  22
ENDBRANCH  15  16
ENDBRANCH  14  15
ENDBRANCH   4  14
TORSDOF 5
ENDMDL
MODEL 5
REMARK VINA RESULT:    -7.465      3.199      8.232
REMARK INTER + INTRA:         -10.626
REMARK INTER:                  -9.931
REMARK INTRA:                  -0.695
REMARK UNBOUND:                -0.979
REMARK  Name = 
REMARK  5 active torsions:
REMARK  status: ('A' for Active; 'I' for Inactive)
REMARK    1  A    between atoms: C_4  and  C_5
REMARK    2  A    between atoms: C_5  and  C_6
REMARK    3  A    between atoms: C_6  and  C_7
REMARK    4  A    between atoms: C_9  and  C_10
REMARK    5  A    between atoms: C_18  and  C_19
REMARK                            x       y       z     vdW  Elec       q    Type
REMARK                         _______ _______ _______ _____ _____    ______ ____
ROOT
ATOM      1  F   UNL     1      41.860   5.678  11.728  0.00  0.00    +0.000 F 
ATOM      2  C   UNL     1      43.111   5.197  11.702  0.00  0.00    +0.000 A 
ATOM      3  C   UNL     1      43.884   5.259  12.854  0.00  0.00    +0.000 A 
ATOM      4  C   UNL     1      45.189   4.759  12.844  0.00  0.00    +0.000 A 
ATOM      5  C   UNL     1      45.688   4.222  11.642  0.00  0.00    +0.000 A 
ATOM      6  C   UNL     1      44.910   4.131  10.471  0.00  0.00    +0.000 A 
ATOM      7  C   UNL     1      43.606   4.645  10.525  0.00  0.00    +0.000 A 
ENDROOT
BRANCH   6   8
ATOM      8  C   UNL     1      45.437   3.520   9.235  0.00  0.00    +0.000 A 
ATOM      9  C   UNL     1      45.824   4.276   8.127  0.00  0.00    +0.000 A 
ATOM     10  C   UNL     1      46.316   3.632   6.994  0.00  0.00    +0.000 A 
ATOM     11  C   UNL     1      46.414   2.249   6.990  0.00  0.00    +0.000 A 
ATOM     12  C   UNL     1      46.020   1.566   8.127  0.00  0.00    +0.000 A 
ATOM     13  N   UNL     1      45.542   2.166   9.239  0.00  0.00    +0.000 NA
ENDBRANCH   6   8
BRANCH   4  14
ATOM     14  C   UNL     1      46.118   4.840  14.034  0.00  0.00    +0.000 C 
BRANCH  14  15
ATOM     15  C   UNL     1      47.011   3.614  14.266  0.00  0.00    +0.000 C 
BRANCH  15  16
ATOM     16  C   UNL     1      47.641   3.583  15.641  0.00  0.00    +0.000 A 
ATOM     17  C   UNL     1      47.261   4.533  16.586  0.00  0.00    +0.000 A 
ATOM     18  C   UNL     1      47.861   4.519  17.850  0.00  0.00    +0.000 A 
ATOM     19  C   UNL     1      48.825   3.544  18.121  0.00  0.00    +0.000 A 
ATOM     20  C   UNL     1      49.144   2.636  17.129  0.00  0.00    +0.000 A 
ATOM     21  N   UNL     1      48.572   2.639  15.907  0.00  0.00    +0.000 NA
BRANCH  18  22
ATOM     22  C   UNL     1      47.492   5.529  18.901  0.00  0.00    +0.000 C 
ATOM     23  F   UNL     1      46.150   5.726  19.019  0.00  0.00    +0.000 F 
ATOM     24  F   UNL     1      47.929   5.173  20.141  0.00  0.00    +0.000 F 
ATOM     25  F   UNL     1      48.030   6.756  18.655  0.00  0.00    +0.000 F 
ENDBRANCH  18  22
ENDBRANCH  15  16
ENDBRANCH  14  15
ENDBRANCH   4  14
TORSDOF 5
ENDMDL
MODEL 6
REMARK VINA RESULT:    -7.105      2.009      2.754
REMARK INTER + INTRA:         -10.161
REMARK INTER:                  -9.268
REMARK INTRA:                  -0.892
REMARK UNBOUND:                -0.979
REMARK  Name = 
REMARK  5 active torsions:
REMARK  status: ('A' for Active; 'I' for Inactive)
REMARK    1  A    between atoms: C_4  and  C_5
REMARK    2  A    between atoms: C_5  and  C_6
REMARK    3  A    between atoms: C_6  and  C_7
REMARK    4  A    between atoms: C_9  and  C_10
REMARK    5  A    between atoms: C_18  and  C_19
REMARK                            x       y       z     vdW  Elec       q    Type
REMARK                         _______ _______ _______ _____ _____    ______ ____
ROOT
ATOM      1  F   UNL     1      49.842   9.387  14.471  0.00  0.00    +0.000 F 
ATOM      2  C   UNL     1      49.127   8.270  14.272  0.00  0.00    +0.000 A 
ATOM      3  C   UNL     1      48.454   8.104  13.068  0.00  0.00    +0.000 A 
ATOM      4  C   UNL     1      47.708   6.945  12.843  0.00  0.00    +0.000 A 
ATOM      5  C   UNL     1      47.645   5.982  13.869  0.00  0.00    +0.000 A 
ATOM      6  C   UNL     1      48.341   6.124  15.086  0.00  0.00    +0.000 A 
ATOM      7  C   UNL     1      49.078   7.304  15.271  0.00  0.00    +0.000 A 
ENDROOT
BRANCH   6   8
ATOM      8  C   UNL     1      48.301   5.080  16.129  0.00  0.00    +0.000 A 
ATOM      9  C   UNL     1      47.193   4.255  16.327  0.00  0.00    +0.000 A 
ATOM     10  C   UNL     1      47.227   3.288  17.329  0.00  0.00    +0.000 A 
ATOM     11  C   UNL     1      48.367   3.163  18.111  0.00  0.00    +0.000 A 
ATOM     12  C   UNL     1      49.429   4.010  17.852  0.00  0.00    +0.000 A 
ATOM     13  N   UNL     1      49.422   4.954  16.885  0.00  0.00    +0.000 NA
ENDBRANCH   6   8
BRANCH   4  14
ATOM     14  C   UNL     1      46.897   6.709  11.589  0.00  0.00    +0.000 C 
BRANCH  14  15
ATOM     15  C   UNL     1      45.375   6.688  11.774  0.00  0.00    +0.000 C 
BRANCH  15  16
ATOM     16  C   UNL     1      44.769   5.313  11.605  0.00  0.00    +0.000 A 
ATOM     17  C   UNL     1      45.074   4.570  10.467  0.00  0.00    +0.000 A 
ATOM     18  C   UNL     1      44.494   3.307  10.298  0.00  0.00    +0.000 A 
ATOM     19  C   UNL     1      43.628   2.832  11.287  0.00  0.00    +0.000 A 
ATOM     20  C   UNL     1      43.380   3.631  12.388  0.00  0.00    +0.000 A 
ATOM     21  N   UNL     1      43.932   4.850  12.561  0.00  0.00    +0.000 NA
BRANCH  18  22
ATOM     22  C   UNL     1      44.784   2.471   9.083  0.00  0.00    +0.000 C 
ATOM     23  F   UNL     1      46.105   2.180   8.923  0.00  0.00    +0.000 F 
ATOM     24  F   UNL     1      44.138   1.272   9.110  0.00  0.00    +0.000 F 
ATOM     25  F   UNL     1      44.393   3.078   7.928  0.00  0.00    +0.000 F 
ENDBRANCH  18  22
ENDBRANCH  15  16
ENDBRANCH  14  15
ENDBRANCH   4  14
TORSDOF 5
ENDMDL
MODEL 7
REMARK VINA RESULT:    -7.044      3.266      7.750
REMARK INTER + INTRA:         -10.082
REMARK INTER:                  -9.287
REMARK INTRA:                  -0.795
REMARK UNBOUND:                -0.979
REMARK  Name = 
REMARK  5 active torsions:
REMARK  status: ('A' for Active; 'I' for Inactive)
REMARK    1  A    between atoms: C_4  and  C_5
REMARK    2  A    between atoms: C_5  and  C_6
REMARK    3  A    between atoms: C_6  and  C_7
REMARK    4  A    between atoms: C_9  and  C_10
REMARK    5  A    between atoms: C_18  and  C_19
REMARK                            x       y       z     vdW  Elec       q    Type
REMARK                         _______ _______ _______ _____ _____    ______ ____
ROOT
ATOM      1  F   UNL     1      41.721   5.464  11.715  0.00  0.00    +0.000 F 
ATOM      2  C   UNL     1      43.041   5.460  11.481  0.00  0.00    +0.000 A 
ATOM      3  C   UNL     1      43.870   6.250  12.267  0.00  0.00    +0.000 A 
ATOM      4  C   UNL     1      45.248   6.255  12.038  0.00  0.00    +0.000 A 
ATOM      5  C   UNL     1      45.753   5.465  10.988  0.00  0.00    +0.000 A 
ATOM      6  C   UNL     1      44.929   4.641  10.196  0.00  0.00    +0.000 A 
ATOM      7  C   UNL     1      43.551   4.666  10.459  0.00  0.00    +0.000 A 
ENDROOT
BRANCH   6   8
ATOM      8  C   UNL     1      45.484   3.783   9.130  0.00  0.00    +0.000 A 
ATOM      9  C   UNL     1      46.080   4.302   7.980  0.00  0.00    +0.000 A 
ATOM     10  C   UNL     1      46.587   3.432   7.016  0.00  0.00    +0.000 A 
ATOM     11  C   UNL     1      46.490   2.063   7.222  0.00  0.00    +0.000 A 
ATOM     12  C   UNL     1      45.893   1.622   8.390  0.00  0.00    +0.000 A 
ATOM     13  N   UNL     1      45.396   2.445   9.340  0.00  0.00    +0.000 NA
ENDBRANCH   6   8
BRANCH   4  14
ATOM     14  C   UNL     1      46.214   7.128  12.807  0.00  0.00    +0.000 C 
BRANCH  14  15
ATOM     15  C   UNL     1      47.635   6.572  12.962  0.00  0.00    +0.000 C 
BRANCH  15  16
ATOM     16  C   UNL     1      48.081   6.457  14.402  0.00  0.00    +0.000 A 
ATOM     17  C   UNL     1      47.820   5.282  15.104  0.00  0.00    +0.000 A 
ATOM     18  C   UNL     1      48.211   5.185  16.445  0.00  0.00    +0.000 A 
ATOM     19  C   UNL     1      48.856   6.276  17.033  0.00  0.00    +0.000 A 
ATOM     20  C   UNL     1      49.080   7.404  16.266  0.00  0.00    +0.000 A 
ATOM     21  N   UNL     1      48.708   7.510  14.974  0.00  0.00    +0.000 NA
BRANCH  18  22
ATOM     22  C   UNL     1      47.944   3.942  17.247  0.00  0.00    +0.000 C 
ATOM     23  F   UNL     1      47.714   4.185  18.567  0.00  0.00    +0.000 F 
ATOM     24  F   UNL     1      46.855   3.258  16.798  0.00  0.00    +0.000 F 
ATOM     25  F   UNL     1      48.981   3.062  17.204  0.00  0.00    +0.000 F 
ENDBRANCH  18  22
ENDBRANCH  15  16
ENDBRANCH  14  15
ENDBRANCH   4  14
TORSDOF 5
ENDMDL
MODEL 8
REMARK VINA RESULT:    -6.902      3.424      7.566
REMARK INTER + INTRA:          -9.899
REMARK INTER:                  -8.949
REMARK INTRA:                  -0.950
REMARK UNBOUND:                -0.979
REMARK  Name = 
REMARK  5 active torsions:
REMARK  status: ('A' for Active; 'I' for Inactive)
REMARK    1  A    between atoms: C_4  and  C_5
REMARK    2  A    between atoms: C_5  and  C_6
REMARK    3  A    between atoms: C_6  and  C_7
REMARK    4  A    between atoms: C_9  and  C_10
REMARK    5  A    between atoms: C_18  and  C_19
REMARK                            x       y       z     vdW  Elec       q    Type
REMARK                         _______ _______ _______ _____ _____    ______ ____
ROOT
ATOM      1  F   UNL     1      44.824   9.619  12.654  0.00  0.00    +0.000 F 
ATOM      2  C   UNL     1      45.547   8.493  12.571  0.00  0.00    +0.000 A 
ATOM      3  C   UNL     1      46.744   8.403  13.272  0.00  0.00    +0.000 A 
ATOM      4  C   UNL     1      47.507   7.236  13.198  0.00  0.00    +0.000 A 
ATOM      5  C   UNL     1      47.041   6.184  12.386  0.00  0.00    +0.000 A 
ATOM      6  C   UNL     1      45.820   6.250  11.687  0.00  0.00    +0.000 A 
ATOM      7  C   UNL     1      45.085   7.440  11.788  0.00  0.00    +0.000 A 
ENDROOT
BRANCH   6   8
ATOM      8  C   UNL     1      45.326   5.116  10.880  0.00  0.00    +0.000 A 
ATOM      9  C   UNL     1      45.498   5.046   9.497  0.00  0.00    +0.000 A 
ATOM     10  C   UNL     1      45.008   3.944   8.798  0.00  0.00    +0.000 A 
ATOM     11  C   UNL     1      44.360   2.935   9.495  0.00  0.00    +0.000 A 
ATOM     12  C   UNL     1      44.234   3.069  10.866  0.00  0.00    +0.000 A 
ATOM     13  N   UNL     1      44.701   4.126  11.567  0.00  0.00    +0.000 NA
ENDBRANCH   6   8
BRANCH   4  14
ATOM     14  C   UNL     1      48.847   7.076  13.880  0.00  0.00    +0.000 C 
BRANCH  14  15
ATOM     15  C   UNL     1      48.968   7.717  15.269  0.00  0.00    +0.000 C 
BRANCH  15  16
ATOM     16  C   UNL     1      48.712   6.748  16.401  0.00  0.00    +0.000 A 
ATOM     17  C   UNL     1      48.496   5.403  16.110  0.00  0.00    +0.000 A 
ATOM     18  C   UNL     1      48.235   4.509  17.155  0.00  0.00    +0.000 A 
ATOM     19  C   UNL     1      48.204   5.002  18.463  0.00  0.00    +0.000 A 
ATOM     20  C   UNL     1      48.431   6.351  18.667  0.00  0.00    +0.000 A 
ATOM     21  N   UNL     1      48.683   7.221  17.667  0.00  0.00    +0.000 NA
BRANCH  18  22
ATOM     22  C   UNL     1      47.986   3.050  16.892  0.00  0.00    +0.000 C 
ATOM     23  F   UNL     1      46.950   2.536  17.611  0.00  0.00    +0.000 F 
ATOM     24  F   UNL     1      47.694   2.801  15.585  0.00  0.00    +0.000 F 
ATOM     25  F   UNL     1      49.067   2.277  17.186  0.00  0.00    +0.000 F 
ENDBRANCH  18  22
ENDBRANCH  15  16
ENDBRANCH  14  15
ENDBRANCH   4  14
TORSDOF 5
ENDMDL
MODEL 9
REMARK VINA RESULT:    -6.741      3.902      6.235
REMARK INTER + INTRA:          -9.691
REMARK INTER:                  -8.765
REMARK INTRA:                  -0.926
REMARK UNBOUND:                -0.979
REMARK  Name = 
REMARK  5 active torsions:
REMARK  status: ('A' for Active; 'I' for Inactive)
REMARK    1  A    between atoms: C_4  and  C_5
REMARK    2  A    between atoms: C_5  and  C_6
REMARK    3  A    between atoms: C_6  and  C_7
REMARK    4  A    between atoms: C_9  and  C_10
REMARK    5  A    between atoms: C_18  and  C_19
REMARK                            x       y       z     vdW  Elec       q    Type
REMARK                         _______ _______ _______ _____ _____    ______ ____
ROOT
ATOM      1  F   UNL     1      48.246  11.268  11.815  0.00  0.00    +0.000 F 
ATOM      2  C   UNL     1      47.159  10.484  11.823  0.00  0.00    +0.000 A 
ATOM      3  C   UNL     1      47.287   9.154  12.205  0.00  0.00    +0.000 A 
ATOM      4  C   UNL     1      46.164   8.324  12.223  0.00  0.00    +0.000 A 
ATOM      5  C   UNL     1      44.927   8.867  11.825  0.00  0.00    +0.000 A 
ATOM      6  C   UNL     1      44.775  10.218  11.457  0.00  0.00    +0.000 A 
ATOM      7  C   UNL     1      45.929  11.017  11.453  0.00  0.00    +0.000 A 
ENDROOT
BRANCH   6   8
ATOM      8  C   UNL     1      43.460  10.780  11.089  0.00  0.00    +0.000 A 
ATOM      9  C   UNL     1      42.919  10.654   9.809  0.00  0.00    +0.000 A 
ATOM     10  C   UNL     1      41.670  11.207   9.534  0.00  0.00    +0.000 A 
ATOM     11  C   UNL     1      40.986  11.870  10.542  0.00  0.00    +0.000 A 
ATOM     12  C   UNL     1      41.581  11.948  11.789  0.00  0.00    +0.000 A 
ATOM     13  N   UNL     1      42.790  11.419  12.082  0.00  0.00    +0.000 NA
ENDBRANCH   6   8
BRANCH   4  14
ATOM     14  C   UNL     1      46.224   6.853  12.567  0.00  0.00    +0.000 C 
BRANCH  14  15
ATOM     15  C   UNL     1      44.881   6.194  12.910  0.00  0.00    +0.000 C 
BRANCH  15  16
ATOM     16  C   UNL     1      44.580   4.973  12.070  0.00  0.00    +0.000 A 
ATOM     17  C   UNL     1      45.103   4.888  10.782  0.00  0.00    +0.000 A 
ATOM     18  C   UNL     1      44.805   3.769   9.995  0.00  0.00    +0.000 A 
ATOM     19  C   UNL     1      43.991   2.770  10.536  0.00  0.00    +0.000 A 
ATOM     20  C   UNL     1      43.516   2.930  11.825  0.00  0.00    +0.000 A 
ATOM     21  N   UNL     1      43.795   4.004  12.592  0.00  0.00    +0.000 NA
BRANCH  18  22
ATOM     22  C   UNL     1      45.336   3.635   8.595  0.00  0.00    +0.000 C 
ATOM     23  F   UNL     1      46.207   4.622   8.246  0.00  0.00    +0.000 F 
ATOM     24  F   UNL     1      46.003   2.463   8.402  0.00  0.00    +0.000 F 
ATOM     25  F   UNL     1      44.348   3.660   7.659  0.00  0.00    +0.000 F 
ENDBRANCH  18  22
ENDBRANCH  15  16
ENDBRANCH  14  15
ENDBRANCH   4  14
TORSDOF 5
ENDMDL
