MODEL 1
REMARK VINA RESULT:    -7.247      0.000      0.000
REMARK INTER + INTRA:          -9.469
REMARK INTER:                  -8.941
REMARK INTRA:                  -0.527
REMARK UNBOUND:                -0.527
REMARK  Name = 
REMARK  5 active torsions:
REMARK  status: ('A' for Active; 'I' for Inactive)
REMARK    1  A    between atoms: C_1  and  C_2
REMARK    2  A    between atoms: C_5  and  O_6
REMARK    3  A    between atoms: O_6  and  C_7
REMARK    4  A    between atoms: C_7  and  C_8
REMARK    5  A    between atoms: C_13  and  C_14
REMARK                            x       y       z     vdW  Elec       q    Type
REMARK                         _______ _______ _______ _____ _____    ______ ____
ROOT
ATOM      1  C   UNL     1      44.563   6.852  11.855  0.00  0.00    +0.000 A 
ATOM      2  C   UNL     1      43.903   7.887  11.181  0.00  0.00    +0.000 A 
ATOM      3  C   UNL     1      44.376   9.193  11.244  0.00  0.00    +0.000 A 
ATOM      4  C   UNL     1      45.527   9.484  11.970  0.00  0.00    +0.000 A 
ATOM      5  F   UNL     1      45.869  10.773  12.057  0.00  0.00    +0.000 F 
ATOM      6  C   UNL     1      46.276   8.481  12.608  0.00  0.00    +0.000 A 
ATOM      7  C   UNL     1      45.759   7.170  12.531  0.00  0.00    +0.000 A 
ENDROOT
BRANCH   6   8
ATOM      8  C   UNL     1      47.535   8.727  13.432  0.00  0.00    +0.000 C 
ATOM      9  C   UNL     1      48.692   9.490  12.760  0.00  0.00    +0.000 C 
ATOM     10  C   UNL     1      49.489   8.616  11.787  0.00  0.00    +0.000 C 
ATOM     11  N   UNL     1      50.001   7.403  12.428  0.00  0.00    +0.000 NA
ATOM     12  C   UNL     1      48.918   6.622  13.025  0.00  0.00    +0.000 C 
ATOM     13  C   UNL     1      48.124   7.436  14.046  0.00  0.00    +0.000 C 
ATOM     14  H   UNL     1      50.665   7.668  13.153  0.00  0.00    +0.000 HD
ENDBRANCH   6   8
BRANCH   1  15
ATOM     15  C   UNL     1      43.973   5.455  11.861  0.00  0.00    +0.000 C 
ATOM     16  C   UNL     1      43.013   5.042  12.974  0.00  0.00    +0.000 C 
ATOM     17  C   UNL     1      42.481   5.325  11.613  0.00  0.00    +0.000 C 
BRANCH  15  18
ATOM     18  O   UNL     1      44.894   4.386  11.553  0.00  0.00    +0.000 OA
BRANCH  18  23
ATOM     19  C   UNL     1      46.492   2.986   6.450  0.00  0.00    +0.000 C 
ATOM     20  C   UNL     1      45.866   3.368   7.753  0.00  0.00    +0.000 A 
ATOM     21  C   UNL     1      45.344   2.409   8.620  0.00  0.00    +0.000 A 
ATOM     22  N   UNL     1      44.917   2.697   9.874  0.00  0.00    +0.000 NA
ATOM     23  C   UNL     1      45.045   3.991  10.239  0.00  0.00    +0.000 A 
ATOM     24  C   UNL     1      45.497   4.962   9.357  0.00  0.00    +0.000 A 
ATOM     25  N   UNL     1      45.912   4.677   8.098  0.00  0.00    +0.000 NA
ENDBRANCH  18  23
ENDBRANCH  15  18
ENDBRANCH   1  15
TORSDOF 4
ENDMDL
MODEL 2
REMARK VINA RESULT:    -6.957      2.611      6.137
REMARK INTER + INTRA:          -9.112
REMARK INTER:                  -8.765
REMARK INTRA:                  -0.346
REMARK UNBOUND:                -0.527
REMARK  Name = 
REMARK  5 active torsions:
REMARK  status: ('A' for Active; 'I' for Inactive)
REMARK    1  A    between atoms: C_1  and  C_2
REMARK    2  A    between atoms: C_5  and  O_6
REMARK    3  A    between atoms: O_6  and  C_7
REMARK    4  A    between atoms: C_7  and  C_8
REMARK    5  A    between atoms: C_13  and  C_14
REMARK                            x       y       z     vdW  Elec       q    Type
REMARK                         _______ _______ _______ _____ _____    ______ ____
ROOT
ATOM      1  C   UNL     1      46.807   7.599  12.169  0.00  0.00    +0.000 A 
ATOM      2  C   UNL     1      46.390   8.935  12.166  0.00  0.00    +0.000 A 
ATOM      3  C   UNL     1      45.104   9.279  11.764  0.00  0.00    +0.000 A 
ATOM      4  C   UNL     1      44.207   8.290  11.370  0.00  0.00    +0.000 A 
ATOM      5  F   UNL     1      43.023   8.704  10.912  0.00  0.00    +0.000 F 
ATOM      6  C   UNL     1      44.540   6.926  11.419  0.00  0.00    +0.000 A 
ATOM      7  C   UNL     1      45.857   6.616  11.823  0.00  0.00    +0.000 A 
ENDROOT
BRANCH   6   8
ATOM      8  C   UNL     1      43.617   5.790  10.990  0.00  0.00    +0.000 C 
ATOM      9  C   UNL     1      42.533   5.335  11.984  0.00  0.00    +0.000 C 
ATOM     10  C   UNL     1      43.094   4.465  13.113  0.00  0.00    +0.000 C 
ATOM     11  N   UNL     1      43.818   3.299  12.601  0.00  0.00    +0.000 NA
ATOM     12  C   UNL     1      44.898   3.700  11.699  0.00  0.00    +0.000 C 
ATOM     13  C   UNL     1      44.379   4.528  10.524  0.00  0.00    +0.000 C 
ATOM     14  H   UNL     1      43.166   2.698  12.101  0.00  0.00    +0.000 HD
ENDBRANCH   6   8
BRANCH   1  15
ATOM     15  C   UNL     1      48.244   7.255  12.510  0.00  0.00    +0.000 C 
ATOM     16  C   UNL     1      49.374   7.725  11.598  0.00  0.00    +0.000 C 
ATOM     17  C   UNL     1      49.161   8.398  12.908  0.00  0.00    +0.000 C 
BRANCH  15  18
ATOM     18  O   UNL     1      48.473   5.901  12.958  0.00  0.00    +0.000 OA
BRANCH  18  23
ATOM     19  C   UNL     1      47.316   3.557  17.828  0.00  0.00    +0.000 C 
ATOM     20  C   UNL     1      47.495   4.340  16.567  0.00  0.00    +0.000 A 
ATOM     21  C   UNL     1      48.401   5.396  16.487  0.00  0.00    +0.000 A 
ATOM     22  N   UNL     1      48.709   6.023  15.325  0.00  0.00    +0.000 NA
ATOM     23  C   UNL     1      48.079   5.542  14.231  0.00  0.00    +0.000 A 
ATOM     24  C   UNL     1      47.124   4.539  14.315  0.00  0.00    +0.000 A 
ATOM     25  N   UNL     1      46.807   3.921  15.478  0.00  0.00    +0.000 NA
ENDBRANCH  18  23
ENDBRANCH  15  18
ENDBRANCH   1  15
TORSDOF 4
ENDMDL
MODEL 3
REMARK VINA RESULT:    -6.952      2.210      3.673
REMARK INTER + INTRA:          -9.104
REMARK INTER:                  -8.770
REMARK INTRA:                  -0.335
REMARK UNBOUND:                -0.527
REMARK  Name = 
REMARK  5 active torsions:
REMARK  status: ('A' for Active; 'I' for Inactive)
REMARK    1  A    between atoms: C_1  and  C_2
REMARK    2  A    between atoms: C_5  and  O_6
REMARK    3  A    between atoms: O_6  and  C_7
REMARK    4  A    between atoms: C_7  and  C_8
REMARK    5  A    between atoms: C_13  and  C_14
REMARK                            x       y       z     vdW  Elec       q    Type
REMARK                         _______ _______ _______ _____ _____    ______ ____
ROOT
ATOM      1  C   UNL     1      44.587   6.866  11.991  0.00  0.00    +0.000 A 
ATOM      2  C   UNL     1      45.689   7.110  12.819  0.00  0.00    +0.000 A 
ATOM      3  C   UNL     1      46.310   8.354  12.828  0.00  0.00    +0.000 A 
ATOM      4  C   UNL     1      45.831   9.380  12.020  0.00  0.00    +0.000 A 
ATOM      5  F   UNL     1      46.533  10.517  12.017  0.00  0.00    +0.000 F 
ATOM      6  C   UNL     1      44.686   9.222  11.221  0.00  0.00    +0.000 A 
ATOM      7  C   UNL     1      44.088   7.943  11.230  0.00  0.00    +0.000 A 
ENDROOT
BRANCH   6   8
ATOM      8  C   UNL     1      44.113  10.294  10.301  0.00  0.00    +0.000 C 
ATOM      9  C   UNL     1      44.627  11.735  10.474  0.00  0.00    +0.000 C 
ATOM     10  C   UNL     1      44.014  12.438  11.689  0.00  0.00    +0.000 C 
ATOM     11  N   UNL     1      42.549  12.436  11.646  0.00  0.00    +0.000 NA
ATOM     12  C   UNL     1      42.026  11.074  11.543  0.00  0.00    +0.000 C 
ATOM     13  C   UNL     1      42.568  10.347  10.313  0.00  0.00    +0.000 C 
ATOM     14  H   UNL     1      42.242  12.978  10.841  0.00  0.00    +0.000 HD
ENDBRANCH   6   8
BRANCH   1  15
ATOM     15  C   UNL     1      43.989   5.474  11.917  0.00  0.00    +0.000 C 
ATOM     16  C   UNL     1      42.984   5.022  12.974  0.00  0.00    +0.000 C 
ATOM     17  C   UNL     1      42.507   5.365  11.606  0.00  0.00    +0.000 C 
BRANCH  15  18
ATOM     18  O   UNL     1      44.915   4.412  11.601  0.00  0.00    +0.000 OA
BRANCH  18  23
ATOM     19  C   UNL     1      46.436   2.977   6.484  0.00  0.00    +0.000 C 
ATOM     20  C   UNL     1      45.830   3.367   7.794  0.00  0.00    +0.000 A 
ATOM     21  C   UNL     1      45.323   2.414   8.675  0.00  0.00    +0.000 A 
ATOM     22  N   UNL     1      44.915   2.711   9.934  0.00  0.00    +0.000 NA
ATOM     23  C   UNL     1      45.046   4.008  10.287  0.00  0.00    +0.000 A 
ATOM     24  C   UNL     1      45.484   4.973   9.392  0.00  0.00    +0.000 A 
ATOM     25  N   UNL     1      45.879   4.679   8.129  0.00  0.00    +0.000 NA
ENDBRANCH  18  23
ENDBRANCH  15  18
ENDBRANCH   1  15
TORSDOF 4
ENDMDL
MODEL 4
REMARK VINA RESULT:    -6.647      1.415      2.148
REMARK INTER + INTRA:          -8.729
REMARK INTER:                  -9.153
REMARK INTRA:                   0.424
REMARK UNBOUND:                -0.527
REMARK  Name = 
REMARK  5 active torsions:
REMARK  status: ('A' for Active; 'I' for Inactive)
REMARK    1  A    between atoms: C_1  and  C_2
REMARK    2  A    between atoms: C_5  and  O_6
REMARK    3  A    between atoms: O_6  and  C_7
REMARK    4  A    between atoms: C_7  and  C_8
REMARK    5  A    between atoms: C_13  and  C_14
REMARK                            x       y       z     vdW  Elec       q    Type
REMARK                         _______ _______ _______ _____ _____    ______ ____
ROOT
ATOM      1  C   UNL     1      44.673   5.638  11.366  0.00  0.00    +0.000 A 
ATOM      2  C   UNL     1      43.727   6.655  11.197  0.00  0.00    +0.000 A 
ATOM      3  C   UNL     1      44.077   7.989  11.374  0.00  0.00    +0.000 A 
ATOM      4  C   UNL     1      45.384   8.330  11.709  0.00  0.00    +0.000 A 
ATOM      5  F   UNL     1      45.622   9.623  11.949  0.00  0.00    +0.000 F 
ATOM      6  C   UNL     1      46.397   7.363  11.822  0.00  0.00    +0.000 A 
ATOM      7  C   UNL     1      46.002   6.019  11.645  0.00  0.00    +0.000 A 
ENDROOT
BRANCH   6   8
ATOM      8  C   UNL     1      47.844   7.660  12.199  0.00  0.00    +0.000 C 
ATOM      9  C   UNL     1      48.635   6.555  12.924  0.00  0.00    +0.000 C 
ATOM     10  C   UNL     1      48.263   6.439  14.405  0.00  0.00    +0.000 C 
ATOM     11  N   UNL     1      48.423   7.710  15.115  0.00  0.00    +0.000 NA
ATOM     12  C   UNL     1      47.634   8.769  14.486  0.00  0.00    +0.000 C 
ATOM     13  C   UNL     1      48.007   8.962  13.017  0.00  0.00    +0.000 C 
ATOM     14  H   UNL     1      49.407   7.972  15.107  0.00  0.00    +0.000 HD
ENDBRANCH   6   8
BRANCH   1  15
ATOM     15  C   UNL     1      44.248   4.185  11.272  0.00  0.00    +0.000 C 
ATOM     16  C   UNL     1      44.951   3.132  12.126  0.00  0.00    +0.000 C 
ATOM     17  C   UNL     1      43.577   3.573  12.489  0.00  0.00    +0.000 C 
BRANCH  15  18
ATOM     18  O   UNL     1      44.009   3.688   9.938  0.00  0.00    +0.000 OA
BRANCH  18  23
ATOM     19  C   UNL     1      47.643   2.214   6.043  0.00  0.00    +0.000 C 
ATOM     20  C   UNL     1      46.827   2.656   7.214  0.00  0.00    +0.000 A 
ATOM     21  C   UNL     1      46.519   3.999   7.423  0.00  0.00    +0.000 A 
ATOM     22  N   UNL     1      45.652   4.421   8.377  0.00  0.00    +0.000 NA
ATOM     23  C   UNL     1      45.088   3.439   9.113  0.00  0.00    +0.000 A 
ATOM     24  C   UNL     1      45.443   2.107   8.956  0.00  0.00    +0.000 A 
ATOM     25  N   UNL     1      46.319   1.686   8.012  0.00  0.00    +0.000 NA
ENDBRANCH  18  23
ENDBRANCH  15  18
ENDBRANCH   1  15
TORSDOF 4
ENDMDL
MODEL 5
REMARK VINA RESULT:    -6.384      2.564      6.846
REMARK INTER + INTRA:          -8.404
REMARK INTER:                  -8.031
REMARK INTRA:                  -0.373
REMARK UNBOUND:                -0.527
REMARK  Name = 
REMARK  5 active torsions:
REMARK  status: ('A' for Active; 'I' for Inactive)
REMARK    1  A    between atoms: C_1  and  C_2
REMARK    2  A    between atoms: C_5  and  O_6
REMARK    3  A    between atoms: O_6  and  C_7
REMARK    4  A    between atoms: C_7  and  C_8
REMARK    5  A    between atoms: C_13  and  C_14
REMARK                            x       y       z     vdW  Elec       q    Type
REMARK                         _______ _______ _______ _____ _____    ______ ____
ROOT
ATOM      1  C   UNL     1      45.447   5.682  11.920  0.00  0.00    +0.000 A 
ATOM      2  C   UNL     1      45.055   5.018  13.088  0.00  0.00    +0.000 A 
ATOM      3  C   UNL     1      44.354   3.818  13.025  0.00  0.00    +0.000 A 
ATOM      4  C   UNL     1      44.046   3.254  11.790  0.00  0.00    +0.000 A 
ATOM      5  F   UNL     1      43.294   2.150  11.809  0.00  0.00    +0.000 F 
ATOM      6  C   UNL     1      44.473   3.833  10.583  0.00  0.00    +0.000 A 
ATOM      7  C   UNL     1      45.172   5.054  10.687  0.00  0.00    +0.000 A 
ENDROOT
BRANCH   6   8
ATOM      8  C   UNL     1      44.160   3.281   9.196  0.00  0.00    +0.000 C 
ATOM      9  C   UNL     1      44.526   1.813   8.911  0.00  0.00    +0.000 C 
ATOM     10  C   UNL     1      46.024   1.616   8.662  0.00  0.00    +0.000 C 
ATOM     11  N   UNL     1      46.519   2.469   7.579  0.00  0.00    +0.000 NA
ATOM     12  C   UNL     1      46.242   3.880   7.848  0.00  0.00    +0.000 C 
ATOM     13  C   UNL     1      44.749   4.138   8.052  0.00  0.00    +0.000 C 
ATOM     14  H   UNL     1      46.066   2.196   6.709  0.00  0.00    +0.000 HD
ENDBRANCH   6   8
BRANCH   1  15
ATOM     15  C   UNL     1      46.117   7.039  12.008  0.00  0.00    +0.000 C 
ATOM     16  C   UNL     1      45.437   8.262  11.397  0.00  0.00    +0.000 C 
ATOM     17  C   UNL     1      45.450   8.093  12.875  0.00  0.00    +0.000 C 
BRANCH  15  18
ATOM     18  O   UNL     1      47.536   7.054  11.745  0.00  0.00    +0.000 OA
BRANCH  18  23
ATOM     19  C   UNL     1      51.477   7.507  15.595  0.00  0.00    +0.000 C 
ATOM     20  C   UNL     1      50.313   7.536  14.658  0.00  0.00    +0.000 A 
ATOM     21  C   UNL     1      50.253   8.437  13.597  0.00  0.00    +0.000 A 
ATOM     22  N   UNL     1      49.298   8.388  12.636  0.00  0.00    +0.000 NA
ATOM     23  C   UNL     1      48.403   7.386  12.768  0.00  0.00    +0.000 A 
ATOM     24  C   UNL     1      48.416   6.529  13.860  0.00  0.00    +0.000 A 
ATOM     25  N   UNL     1      49.362   6.585  14.828  0.00  0.00    +0.000 NA
ENDBRANCH  18  23
ENDBRANCH  15  18
ENDBRANCH   1  15
TORSDOF 4
ENDMDL
MODEL 6
REMARK VINA RESULT:    -6.003      3.587      5.572
REMARK INTER + INTRA:          -7.935
REMARK INTER:                  -7.436
REMARK INTRA:                  -0.498
REMARK UNBOUND:                -0.527
REMARK  Name = 
REMARK  5 active torsions:
REMARK  status: ('A' for Active; 'I' for Inactive)
REMARK    1  A    between atoms: C_1  and  C_2
REMARK    2  A    between atoms: C_5  and  O_6
REMARK    3  A    between atoms: O_6  and  C_7
REMARK    4  A    between atoms: C_7  and  C_8
REMARK    5  A    between atoms: C_13  and  C_14
REMARK                            x       y       z     vdW  Elec       q    Type
REMARK                         _______ _______ _______ _____ _____    ______ ____
ROOT
ATOM      1  C   UNL     1      48.338   7.872  14.462  0.00  0.00    +0.000 A 
ATOM      2  C   UNL     1      48.299   9.194  14.922  0.00  0.00    +0.000 A 
ATOM      3  C   UNL     1      48.506   9.486  16.265  0.00  0.00    +0.000 A 
ATOM      4  C   UNL     1      48.768   8.462  17.171  0.00  0.00    +0.000 A 
ATOM      5  F   UNL     1      48.867   8.811  18.456  0.00  0.00    +0.000 F 
ATOM      6  C   UNL     1      48.892   7.124  16.761  0.00  0.00    +0.000 A 
ATOM      7  C   UNL     1      48.666   6.864  15.392  0.00  0.00    +0.000 A 
ENDROOT
BRANCH   6   8
ATOM      8  C   UNL     1      49.163   5.949  17.696  0.00  0.00    +0.000 C 
ATOM      9  C   UNL     1      49.034   4.529  17.116  0.00  0.00    +0.000 C 
ATOM     10  C   UNL     1      47.576   4.083  16.964  0.00  0.00    +0.000 C 
ATOM     11  N   UNL     1      46.839   4.172  18.227  0.00  0.00    +0.000 NA
ATOM     12  C   UNL     1      46.890   5.527  18.775  0.00  0.00    +0.000 C 
ATOM     13  C   UNL     1      48.327   5.999  18.996  0.00  0.00    +0.000 C 
ATOM     14  H   UNL     1      47.248   3.522  18.895  0.00  0.00    +0.000 HD
ENDBRANCH   6   8
BRANCH   1  15
ATOM     15  C   UNL     1      48.006   7.564  13.014  0.00  0.00    +0.000 C 
ATOM     16  C   UNL     1      48.762   8.275  11.894  0.00  0.00    +0.000 C 
ATOM     17  C   UNL     1      49.063   6.848  12.192  0.00  0.00    +0.000 C 
BRANCH  15  18
ATOM     18  O   UNL     1      46.600   7.465  12.702  0.00  0.00    +0.000 OA
BRANCH  18  23
ATOM     19  C   UNL     1      43.637   2.846  12.032  0.00  0.00    +0.000 C 
ATOM     20  C   UNL     1      44.602   3.982  12.153  0.00  0.00    +0.000 A 
ATOM     21  C   UNL     1      44.937   4.774  11.056  0.00  0.00    +0.000 A 
ATOM     22  N   UNL     1      45.678   5.904  11.156  0.00  0.00    +0.000 NA
ATOM     23  C   UNL     1      46.065   6.226  12.409  0.00  0.00    +0.000 A 
ATOM     24  C   UNL     1      45.795   5.405  13.495  0.00  0.00    +0.000 A 
ATOM     25  N   UNL     1      45.065   4.267  13.393  0.00  0.00    +0.000 NA
ENDBRANCH  18  23
ENDBRANCH  15  18
ENDBRANCH   1  15
TORSDOF 4
ENDMDL
MODEL 7
REMARK VINA RESULT:    -5.893      4.777      7.499
REMARK INTER + INTRA:          -7.798
REMARK INTER:                  -7.420
REMARK INTRA:                  -0.378
REMARK UNBOUND:                -0.527
REMARK  Name = 
REMARK  5 active torsions:
REMARK  status: ('A' for Active; 'I' for Inactive)
REMARK    1  A    between atoms: C_1  and  C_2
REMARK    2  A    between atoms: C_5  and  O_6
REMARK    3  A    between atoms: O_6  and  C_7
REMARK    4  A    between atoms: C_7  and  C_8
REMARK    5  A    between atoms: C_13  and  C_14
REMARK                            x       y       z     vdW  Elec       q    Type
REMARK                         _______ _______ _______ _____ _____    ______ ____
ROOT
ATOM      1  C   UNL     1      48.328   5.721  15.952  0.00  0.00    +0.000 A 
ATOM      2  C   UNL     1      49.233   6.785  15.868  0.00  0.00    +0.000 A 
ATOM      3  C   UNL     1      49.428   7.461  14.669  0.00  0.00    +0.000 A 
ATOM      4  C   UNL     1      48.709   7.094  13.535  0.00  0.00    +0.000 A 
ATOM      5  F   UNL     1      49.016   7.730  12.401  0.00  0.00    +0.000 F 
ATOM      6  C   UNL     1      47.734   6.084  13.571  0.00  0.00    +0.000 A 
ATOM      7  C   UNL     1      47.571   5.413  14.802  0.00  0.00    +0.000 A 
ENDROOT
BRANCH   6   8
ATOM      8  C   UNL     1      46.920   5.618  12.368  0.00  0.00    +0.000 C 
ATOM      9  C   UNL     1      46.339   6.698  11.436  0.00  0.00    +0.000 C 
ATOM     10  C   UNL     1      45.099   7.379  12.023  0.00  0.00    +0.000 C 
ATOM     11  N   UNL     1      44.055   6.414  12.375  0.00  0.00    +0.000 NA
ATOM     12  C   UNL     1      44.558   5.408  13.309  0.00  0.00    +0.000 C 
ATOM     13  C   UNL     1      45.766   4.660  12.746  0.00  0.00    +0.000 C 
ATOM     14  H   UNL     1      43.730   5.955  11.526  0.00  0.00    +0.000 HD
ENDBRANCH   6   8
BRANCH   1  15
ATOM     15  C   UNL     1      48.207   4.929  17.239  0.00  0.00    +0.000 C 
ATOM     16  C   UNL     1      46.998   5.138  18.148  0.00  0.00    +0.000 C 
ATOM     17  C   UNL     1      47.092   3.901  17.326  0.00  0.00    +0.000 C 
BRANCH  15  18
ATOM     18  O   UNL     1      49.418   4.808  18.016  0.00  0.00    +0.000 OA
BRANCH  18  23
ATOM     19  C   UNL     1      53.118   0.713  17.707  0.00  0.00    +0.000 C 
ATOM     20  C   UNL     1      52.165   1.859  17.592  0.00  0.00    +0.000 A 
ATOM     21  C   UNL     1      50.878   1.690  17.087  0.00  0.00    +0.000 A 
ATOM     22  N   UNL     1      49.936   2.664  17.116  0.00  0.00    +0.000 NA
ATOM     23  C   UNL     1      50.328   3.824  17.686  0.00  0.00    +0.000 A 
ATOM     24  C   UNL     1      51.629   4.022  18.127  0.00  0.00    +0.000 A 
ATOM     25  N   UNL     1      52.575   3.052  18.086  0.00  0.00    +0.000 NA
ENDBRANCH  18  23
ENDBRANCH  15  18
ENDBRANCH   1  15
TORSDOF 4
ENDMDL
MODEL 8
REMARK VINA RESULT:    -5.727      2.927      6.688
REMARK INTER + INTRA:          -7.593
REMARK INTER:                  -7.943
REMARK INTRA:                   0.350
REMARK UNBOUND:                -0.527
REMARK  Name = 
REMARK  5 active torsions:
REMARK  status: ('A' for Active; 'I' for Inactive)
REMARK    1  A    between atoms: C_1  and  C_2
REMARK    2  A    between atoms: C_5  and  O_6
REMARK    3  A    between atoms: O_6  and  C_7
REMARK    4  A    between atoms: C_7  and  C_8
REMARK    5  A    between atoms: C_13  and  C_14
REMARK                            x       y       z     vdW  Elec       q    Type
REMARK                         _______ _______ _______ _____ _____    ______ ____
ROOT
ATOM      1  C   UNL     1      47.465   6.759  12.578  0.00  0.00    +0.000 A 
ATOM      2  C   UNL     1      47.537   5.995  13.749  0.00  0.00    +0.000 A 
ATOM      3  C   UNL     1      46.639   4.958  13.978  0.00  0.00    +0.000 A 
ATOM      4  C   UNL     1      45.662   4.658  13.034  0.00  0.00    +0.000 A 
ATOM      5  F   UNL     1      44.782   3.708  13.364  0.00  0.00    +0.000 F 
ATOM      6  C   UNL     1      45.582   5.339  11.808  0.00  0.00    +0.000 A 
ATOM      7  C   UNL     1      46.502   6.391  11.615  0.00  0.00    +0.000 A 
ENDROOT
BRANCH   6   8
ATOM      8  C   UNL     1      44.532   5.076  10.734  0.00  0.00    +0.000 C 
ATOM      9  C   UNL     1      43.214   4.410  11.170  0.00  0.00    +0.000 C 
ATOM     10  C   UNL     1      43.363   2.904  11.405  0.00  0.00    +0.000 C 
ATOM     11  N   UNL     1      43.903   2.214  10.230  0.00  0.00    +0.000 NA
ATOM     12  C   UNL     1      45.188   2.784   9.826  0.00  0.00    +0.000 C 
ATOM     13  C   UNL     1      45.079   4.279   9.527  0.00  0.00    +0.000 C 
ATOM     14  H   UNL     1      43.239   2.299   9.463  0.00  0.00    +0.000 HD
ENDBRANCH   6   8
BRANCH   1  15
ATOM     15  C   UNL     1      48.383   7.951  12.394  0.00  0.00    +0.000 C 
ATOM     16  C   UNL     1      49.896   7.768  12.500  0.00  0.00    +0.000 C 
ATOM     17  C   UNL     1      49.272   7.966  11.163  0.00  0.00    +0.000 C 
BRANCH  15  18
ATOM     18  O   UNL     1      47.966   9.169  13.049  0.00  0.00    +0.000 OA
BRANCH  18  23
ATOM     19  C   UNL     1      44.600  12.012   9.711  0.00  0.00    +0.000 C 
ATOM     20  C   UNL     1      45.445  11.372  10.765  0.00  0.00    +0.000 A 
ATOM     21  C   UNL     1      44.940  10.379  11.602  0.00  0.00    +0.000 A 
ATOM     22  N   UNL     1      45.713   9.664  12.456  0.00  0.00    +0.000 NA
ATOM     23  C   UNL     1      47.028   9.972  12.432  0.00  0.00    +0.000 A 
ATOM     24  C   UNL     1      47.526  11.007  11.653  0.00  0.00    +0.000 A 
ATOM     25  N   UNL     1      46.751  11.730  10.809  0.00  0.00    +0.000 NA
ENDBRANCH  18  23
ENDBRANCH  15  18
ENDBRANCH   1  15
TORSDOF 4
ENDMDL
MODEL 9
REMARK VINA RESULT:    -5.445      2.723      7.066
REMARK INTER + INTRA:          -7.245
REMARK INTER:                  -6.724
REMARK INTRA:                  -0.521
REMARK UNBOUND:                -0.527
REMARK  Name = 
REMARK  5 active torsions:
REMARK  status: ('A' for Active; 'I' for Inactive)
REMARK    1  A    between atoms: C_1  and  C_2
REMARK    2  A    between atoms: C_5  and  O_6
REMARK    3  A    between atoms: O_6  and  C_7
REMARK    4  A    between atoms: C_7  and  C_8
REMARK    5  A    between atoms: C_13  and  C_14
REMARK                            x       y       z     vdW  Elec       q    Type
REMARK                         _______ _______ _______ _____ _____    ______ ____
ROOT
ATOM      1  C   UNL     1      47.387   7.708  12.686  0.00  0.00    +0.000 A 
ATOM      2  C   UNL     1      47.019   8.964  12.188  0.00  0.00    +0.000 A 
ATOM      3  C   UNL     1      45.731   9.195  11.719  0.00  0.00    +0.000 A 
ATOM      4  C   UNL     1      44.783   8.177  11.753  0.00  0.00    +0.000 A 
ATOM      5  F   UNL     1      43.595   8.447  11.204  0.00  0.00    +0.000 F 
ATOM      6  C   UNL     1      45.067   6.917  12.306  0.00  0.00    +0.000 A 
ATOM      7  C   UNL     1      46.387   6.717  12.762  0.00  0.00    +0.000 A 
ENDROOT
BRANCH   6   8
ATOM      8  C   UNL     1      44.086   5.751  12.363  0.00  0.00    +0.000 C 
ATOM      9  C   UNL     1      44.468   4.536  13.229  0.00  0.00    +0.000 C 
ATOM     10  C   UNL     1      45.510   3.637  12.558  0.00  0.00    +0.000 C 
ATOM     11  N   UNL     1      45.077   3.185  11.234  0.00  0.00    +0.000 NA
ATOM     12  C   UNL     1      44.765   4.319  10.364  0.00  0.00    +0.000 C 
ATOM     13  C   UNL     1      43.687   5.219  10.967  0.00  0.00    +0.000 C 
ATOM     14  H   UNL     1      44.250   2.601  11.338  0.00  0.00    +0.000 HD
ENDBRANCH   6   8
BRANCH   1  15
ATOM     15  C   UNL     1      48.824   7.447  13.094  0.00  0.00    +0.000 C 
ATOM     16  C   UNL     1      49.904   7.311  12.024  0.00  0.00    +0.000 C 
ATOM     17  C   UNL     1      49.835   8.552  12.843  0.00  0.00    +0.000 C 
BRANCH  15  18
ATOM     18  O   UNL     1      49.008   6.466  14.138  0.00  0.00    +0.000 OA
BRANCH  18  23
ATOM     19  C   UNL     1      50.063   7.530  19.459  0.00  0.00    +0.000 C 
ATOM     20  C   UNL     1      49.899   7.407  17.978  0.00  0.00    +0.000 A 
ATOM     21  C   UNL     1      50.826   6.721  17.196  0.00  0.00    +0.000 A 
ATOM     22  N   UNL     1      50.631   6.450  15.882  0.00  0.00    +0.000 NA
ATOM     23  C   UNL     1      49.457   6.884  15.376  0.00  0.00    +0.000 A 
ATOM     24  C   UNL     1      48.561   7.627  16.131  0.00  0.00    +0.000 A 
ATOM     25  N   UNL     1      48.761   7.910  17.441  0.00  0.00    +0.000 NA
ENDBRANCH  18  23
ENDBRANCH  15  18
ENDBRANCH   1  15
TORSDOF 4
ENDMDL
