MODEL 1
REMARK VINA RESULT:    -7.501      0.000      0.000
REMARK INTER + INTRA:         -10.784
REMARK INTER:                 -10.131
REMARK INTRA:                  -0.652
REMARK UNBOUND:                -0.652
REMARK  Name = 
REMARK  6 active torsions:
REMARK  status: ('A' for Active; 'I' for Inactive)
REMARK    1  A    between atoms: C_2  and  C_4
REMARK    2  A    between atoms: C_8  and  O_9
REMARK    3  A    between atoms: O_9  and  C_10
REMARK    4  A    between atoms: C_10  and  C_11
REMARK    5  A    between atoms: C_11  and  C_12
REMARK    6  A    between atoms: C_14  and  N_15
REMARK                            x       y       z     vdW  Elec       q    Type
REMARK                         _______ _______ _______ _____ _____    ______ ____
ROOT
ATOM      1  C   UNL     1      44.911   6.535  11.306  0.00  0.00    +0.000 C 
ENDROOT
BRANCH   1   2
ATOM      2  C   UNL     1      44.616   5.087  10.977  0.00  0.00    +0.000 A 
ATOM      3  C   UNL     1      45.216   4.508   9.835  0.00  0.00    +0.000 A 
ATOM      4  C   UNL     1      44.978   3.178   9.440  0.00  0.00    +0.000 A 
ATOM      5  C   UNL     1      44.127   2.425  10.257  0.00  0.00    +0.000 A 
ATOM      6  C   UNL     1      43.541   2.962  11.407  0.00  0.00    +0.000 A 
ATOM      7  C   UNL     1      43.782   4.286  11.766  0.00  0.00    +0.000 A 
ATOM      8 CL   UNL     1      43.025   4.877  13.201  0.00  0.00    +0.000 Cl
BRANCH   4   9
ATOM      9  N   UNL     1      45.553   2.640   8.307  0.00  0.00    +0.000 N 
ATOM     10  C   UNL     1      45.673   1.189   8.091  0.00  0.00    +0.000 C 
ATOM     11  C   UNL     1      47.134   0.810   7.767  0.00  0.00    +0.000 C 
ATOM     12  N   UNL     1      47.699   1.573   6.632  0.00  0.00    +0.000 NA
ATOM     13  C   UNL     1      47.568   3.017   6.924  0.00  0.00    +0.000 C 
ATOM     14  C   UNL     1      46.121   3.474   7.239  0.00  0.00    +0.000 C 
ATOM     15  H   UNL     1      47.138   1.368   5.805  0.00  0.00    +0.000 HD
ENDBRANCH   4   9
ENDBRANCH   1   2
BRANCH   1  16
ATOM     16  C   UNL     1      45.720   6.680  12.594  0.00  0.00    +0.000 C 
BRANCH  16  17
ATOM     17  O   UNL     1      46.762   5.693  12.624  0.00  0.00    +0.000 OA
BRANCH  17  22
ATOM     18  C   UNL     1      47.970   4.472  15.757  0.00  0.00    +0.000 A 
ATOM     19  C   UNL     1      48.633   5.566  16.295  0.00  0.00    +0.000 A 
ATOM     20  C   UNL     1      48.663   6.740  15.548  0.00  0.00    +0.000 A 
ATOM     21  C   UNL     1      48.026   6.776  14.306  0.00  0.00    +0.000 A 
ATOM     22  C   UNL     1      47.386   5.631  13.855  0.00  0.00    +0.000 A 
ATOM     23  N   UNL     1      47.348   4.477  14.549  0.00  0.00    +0.000 NA
BRANCH  18  25
ATOM     24  N   UNL     1      46.922   3.113  17.462  0.00  0.00    +0.000 N 
ATOM     25  C   UNL     1      47.908   3.181  16.512  0.00  0.00    +0.000 C 
ATOM     26  O   UNL     1      48.672   2.251  16.301  0.00  0.00    +0.000 OA
ATOM     27  H   UNL     1      46.822   2.276  18.020  0.00  0.00    +0.000 HD
ATOM     28  H   UNL     1      46.311   3.908  17.607  0.00  0.00    +0.000 HD
ENDBRANCH  18  25
ENDBRANCH  17  22
ENDBRANCH  16  17
ENDBRANCH   1  16
TORSDOF 6
ENDMDL
MODEL 2
REMARK VINA RESULT:    -7.305      2.454      7.397
REMARK INTER + INTRA:         -10.519
REMARK INTER:                  -9.712
REMARK INTRA:                  -0.807
REMARK UNBOUND:                -0.652
REMARK  Name = 
REMARK  6 active torsions:
REMARK  status: ('A' for Active; 'I' for Inactive)
REMARK    1  A    between atoms: C_2  and  C_4
REMARK    2  A    between atoms: C_8  and  O_9
REMARK    3  A    between atoms: O_9  and  C_10
REMARK    4  A    between atoms: C_10  and  C_11
REMARK    5  A    between atoms: C_11  and  C_12
REMARK    6  A    between atoms: C_14  and  N_15
REMARK                            x       y       z     vdW  Elec       q    Type
REMARK                         _______ _______ _______ _____ _____    ______ ____
ROOT
ATOM      1  C   UNL     1      43.416   6.435  11.244  0.00  0.00    +0.000 C 
ENDROOT
BRANCH   1   2
ATOM      2  C   UNL     1      44.628   7.103  11.858  0.00  0.00    +0.000 A 
ATOM      3  C   UNL     1      45.533   6.320  12.611  0.00  0.00    +0.000 A 
ATOM      4  C   UNL     1      46.671   6.862  13.239  0.00  0.00    +0.000 A 
ATOM      5  C   UNL     1      46.893   8.232  13.058  0.00  0.00    +0.000 A 
ATOM      6  C   UNL     1      46.031   9.025  12.296  0.00  0.00    +0.000 A 
ATOM      7  C   UNL     1      44.904   8.466  11.699  0.00  0.00    +0.000 A 
ATOM      8 CL   UNL     1      43.888   9.509  10.770  0.00  0.00    +0.000 Cl
BRANCH   4   9
ATOM      9  N   UNL     1      47.527   6.085  13.992  0.00  0.00    +0.000 N 
ATOM     10  C   UNL     1      47.279   4.658  14.255  0.00  0.00    +0.000 C 
ATOM     11  C   UNL     1      47.333   4.371  15.771  0.00  0.00    +0.000 C 
ATOM     12  N   UNL     1      48.587   4.828  16.410  0.00  0.00    +0.000 NA
ATOM     13  C   UNL     1      48.761   6.270  16.127  0.00  0.00    +0.000 C 
ATOM     14  C   UNL     1      48.739   6.629  14.620  0.00  0.00    +0.000 C 
ATOM     15  H   UNL     1      49.362   4.327  15.975  0.00  0.00    +0.000 HD
ENDBRANCH   4   9
ENDBRANCH   1   2
BRANCH   1  16
ATOM     16  C   UNL     1      43.742   5.051  10.685  0.00  0.00    +0.000 C 
BRANCH  16  17
ATOM     17  O   UNL     1      44.543   5.184   9.501  0.00  0.00    +0.000 OA
BRANCH  17  22
ATOM     18  C   UNL     1      46.373   2.713   7.682  0.00  0.00    +0.000 A 
ATOM     19  C   UNL     1      45.855   1.516   8.154  0.00  0.00    +0.000 A 
ATOM     20  C   UNL     1      44.859   1.576   9.125  0.00  0.00    +0.000 A 
ATOM     21  C   UNL     1      44.419   2.822   9.575  0.00  0.00    +0.000 A 
ATOM     22  C   UNL     1      44.997   3.963   9.039  0.00  0.00    +0.000 A 
ATOM     23  N   UNL     1      45.969   3.939   8.106  0.00  0.00    +0.000 NA
BRANCH  18  25
ATOM     24  N   UNL     1      47.197   3.500   5.547  0.00  0.00    +0.000 N 
ATOM     25  C   UNL     1      47.448   2.711   6.640  0.00  0.00    +0.000 C 
ATOM     26  O   UNL     1      48.477   2.061   6.748  0.00  0.00    +0.000 OA
ATOM     27  H   UNL     1      47.872   3.544   4.797  0.00  0.00    +0.000 HD
ATOM     28  H   UNL     1      46.330   4.022   5.495  0.00  0.00    +0.000 HD
ENDBRANCH  18  25
ENDBRANCH  17  22
ENDBRANCH  16  17
ENDBRANCH   1  16
TORSDOF 6
ENDMDL
MODEL 3
REMARK VINA RESULT:    -7.132      2.620      3.867
REMARK INTER + INTRA:         -10.285
REMARK INTER:                  -9.364
REMARK INTRA:                  -0.922
REMARK UNBOUND:                -0.652
REMARK  Name = 
REMARK  6 active torsions:
REMARK  status: ('A' for Active; 'I' for Inactive)
REMARK    1  A    between atoms: C_2  and  C_4
REMARK    2  A    between atoms: C_8  and  O_9
REMARK    3  A    between atoms: O_9  and  C_10
REMARK    4  A    between atoms: C_10  and  C_11
REMARK    5  A    between atoms: C_11  and  C_12
REMARK    6  A    between atoms: C_14  and  N_15
REMARK                            x       y       z     vdW  Elec       q    Type
REMARK                         _______ _______ _______ _____ _____    ______ ____
ROOT
ATOM      1  C   UNL     1      48.478   7.330  11.963  0.00  0.00    +0.000 C 
ENDROOT
BRANCH   1   2
ATOM      2  C   UNL     1      46.974   7.426  11.820  0.00  0.00    +0.000 A 
ATOM      3  C   UNL     1      46.236   6.252  11.542  0.00  0.00    +0.000 A 
ATOM      4  C   UNL     1      44.839   6.253  11.368  0.00  0.00    +0.000 A 
ATOM      5  C   UNL     1      44.190   7.484  11.514  0.00  0.00    +0.000 A 
ATOM      6  C   UNL     1      44.890   8.656  11.816  0.00  0.00    +0.000 A 
ATOM      7  C   UNL     1      46.274   8.629  11.968  0.00  0.00    +0.000 A 
ATOM      8 CL   UNL     1      47.068  10.116  12.344  0.00  0.00    +0.000 Cl
BRANCH   4   9
ATOM      9  N   UNL     1      44.141   5.100  11.070  0.00  0.00    +0.000 N 
ATOM     10  C   UNL     1      43.188   4.486  12.008  0.00  0.00    +0.000 C 
ATOM     11  C   UNL     1      43.530   2.996  12.229  0.00  0.00    +0.000 C 
ATOM     12  N   UNL     1      43.623   2.224  10.969  0.00  0.00    +0.000 NA
ATOM     13  C   UNL     1      44.611   2.880  10.086  0.00  0.00    +0.000 C 
ATOM     14  C   UNL     1      44.318   4.376   9.804  0.00  0.00    +0.000 C 
ATOM     15  H   UNL     1      42.714   2.265  10.508  0.00  0.00    +0.000 HD
ENDBRANCH   4   9
ENDBRANCH   1   2
BRANCH   1  16
ATOM     16  C   UNL     1      48.890   6.567  13.221  0.00  0.00    +0.000 C 
BRANCH  16  17
ATOM     17  O   UNL     1      48.730   7.410  14.372  0.00  0.00    +0.000 OA
BRANCH  17  22
ATOM     18  C   UNL     1      48.350   4.718  16.691  0.00  0.00    +0.000 A 
ATOM     19  C   UNL     1      48.654   5.300  17.912  0.00  0.00    +0.000 A 
ATOM     20  C   UNL     1      49.004   6.647  17.923  0.00  0.00    +0.000 A 
ATOM     21  C   UNL     1      49.026   7.356  16.720  0.00  0.00    +0.000 A 
ATOM     22  C   UNL     1      48.702   6.686  15.549  0.00  0.00    +0.000 A 
ATOM     23  N   UNL     1      48.370   5.381  15.504  0.00  0.00    +0.000 NA
BRANCH  18  25
ATOM     24  N   UNL     1      46.974   2.889  17.478  0.00  0.00    +0.000 N 
ATOM     25  C   UNL     1      47.970   3.272  16.617  0.00  0.00    +0.000 C 
ATOM     26  O   UNL     1      48.501   2.485  15.846  0.00  0.00    +0.000 OA
ATOM     27  H   UNL     1      46.669   1.926  17.493  0.00  0.00    +0.000 HD
ATOM     28  H   UNL     1      46.563   3.573  18.102  0.00  0.00    +0.000 HD
ENDBRANCH  18  25
ENDBRANCH  17  22
ENDBRANCH  16  17
ENDBRANCH   1  16
TORSDOF 6
ENDMDL
MODEL 4
REMARK VINA RESULT:    -6.867      3.482      4.934
REMARK INTER + INTRA:          -9.928
REMARK INTER:                  -9.080
REMARK INTRA:                  -0.847
REMARK UNBOUND:                -0.652
REMARK  Name = 
REMARK  6 active torsions:
REMARK  status: ('A' for Active; 'I' for Inactive)
REMARK    1  A    between atoms: C_2  and  C_4
REMARK    2  A    between atoms: C_8  and  O_9
REMARK    3  A    between atoms: O_9  and  C_10
REMARK    4  A    between atoms: C_10  and  C_11
REMARK    5  A    between atoms: C_11  and  C_12
REMARK    6  A    between atoms: C_14  and  N_15
REMARK                            x       y       z     vdW  Elec       q    Type
REMARK                         _______ _______ _______ _____ _____    ______ ____
ROOT
ATOM      1  C   UNL     1      48.497   7.774  14.911  0.00  0.00    +0.000 C 
ENDROOT
BRANCH   1   2
ATOM      2  C   UNL     1      47.872   7.327  13.607  0.00  0.00    +0.000 A 
ATOM      3  C   UNL     1      46.781   6.427  13.643  0.00  0.00    +0.000 A 
ATOM      4  C   UNL     1      46.156   5.939  12.481  0.00  0.00    +0.000 A 
ATOM      5  C   UNL     1      46.648   6.413  11.259  0.00  0.00    +0.000 A 
ATOM      6  C   UNL     1      47.706   7.324  11.193  0.00  0.00    +0.000 A 
ATOM      7  C   UNL     1      48.317   7.779  12.359  0.00  0.00    +0.000 A 
ATOM      8 CL   UNL     1      49.616   8.905  12.197  0.00  0.00    +0.000 Cl
BRANCH   4   9
ATOM      9  N   UNL     1      45.110   5.041  12.537  0.00  0.00    +0.000 N 
ATOM     10  C   UNL     1      45.272   3.614  12.216  0.00  0.00    +0.000 C 
ATOM     11  C   UNL     1      44.240   3.177  11.154  0.00  0.00    +0.000 C 
ATOM     12  N   UNL     1      42.843   3.491  11.532  0.00  0.00    +0.000 NA
ATOM     13  C   UNL     1      42.746   4.939  11.817  0.00  0.00    +0.000 C 
ATOM     14  C   UNL     1      43.743   5.444  12.892  0.00  0.00    +0.000 C 
ATOM     15  H   UNL     1      42.630   2.987  12.393  0.00  0.00    +0.000 HD
ENDBRANCH   4   9
ENDBRANCH   1   2
BRANCH   1  16
ATOM     16  C   UNL     1      49.766   6.989  15.240  0.00  0.00    +0.000 C 
BRANCH  16  17
ATOM     17  O   UNL     1      49.968   6.969  16.661  0.00  0.00    +0.000 OA
BRANCH  17  22
ATOM     18  C   UNL     1      49.431   3.526  17.451  0.00  0.00    +0.000 A 
ATOM     19  C   UNL     1      48.440   3.569  18.421  0.00  0.00    +0.000 A 
ATOM     20  C   UNL     1      47.962   4.818  18.808  0.00  0.00    +0.000 A 
ATOM     21  C   UNL     1      48.484   5.965  18.207  0.00  0.00    +0.000 A 
ATOM     22  C   UNL     1      49.469   5.818  17.242  0.00  0.00    +0.000 A 
ATOM     23  N   UNL     1      49.961   4.625  16.854  0.00  0.00    +0.000 NA
BRANCH  18  25
ATOM     24  N   UNL     1      50.969   1.690  17.798  0.00  0.00    +0.000 N 
ATOM     25  C   UNL     1      49.986   2.212  16.997  0.00  0.00    +0.000 C 
ATOM     26  O   UNL     1      49.596   1.638  15.991  0.00  0.00    +0.000 OA
ATOM     27  H   UNL     1      51.399   0.810  17.553  0.00  0.00    +0.000 HD
ATOM     28  H   UNL     1      51.265   2.199  18.623  0.00  0.00    +0.000 HD
ENDBRANCH  18  25
ENDBRANCH  17  22
ENDBRANCH  16  17
ENDBRANCH   1  16
TORSDOF 6
ENDMDL
MODEL 5
REMARK VINA RESULT:    -6.790      2.880      7.758
REMARK INTER + INTRA:          -9.823
REMARK INTER:                  -9.020
REMARK INTRA:                  -0.804
REMARK UNBOUND:                -0.652
REMARK  Name = 
REMARK  6 active torsions:
REMARK  status: ('A' for Active; 'I' for Inactive)
REMARK    1  A    between atoms: C_2  and  C_4
REMARK    2  A    between atoms: C_8  and  O_9
REMARK    3  A    between atoms: O_9  and  C_10
REMARK    4  A    between atoms: C_10  and  C_11
REMARK    5  A    between atoms: C_11  and  C_12
REMARK    6  A    between atoms: C_14  and  N_15
REMARK                            x       y       z     vdW  Elec       q    Type
REMARK                         _______ _______ _______ _____ _____    ______ ____
ROOT
ATOM      1  C   UNL     1      47.020   6.719  12.172  0.00  0.00    +0.000 C 
ENDROOT
BRANCH   1   2
ATOM      2  C   UNL     1      47.967   6.753  13.353  0.00  0.00    +0.000 A 
ATOM      3  C   UNL     1      47.648   6.005  14.509  0.00  0.00    +0.000 A 
ATOM      4  C   UNL     1      48.457   6.000  15.661  0.00  0.00    +0.000 A 
ATOM      5  C   UNL     1      49.633   6.757  15.605  0.00  0.00    +0.000 A 
ATOM      6  C   UNL     1      49.988   7.484  14.465  0.00  0.00    +0.000 A 
ATOM      7  C   UNL     1      49.161   7.484  13.344  0.00  0.00    +0.000 A 
ATOM      8 CL   UNL     1      49.668   8.404  11.974  0.00  0.00    +0.000 Cl
BRANCH   4   9
ATOM      9  N   UNL     1      48.114   5.284  16.789  0.00  0.00    +0.000 N 
ATOM     10  C   UNL     1      48.704   5.555  18.110  0.00  0.00    +0.000 C 
ATOM     11  C   UNL     1      49.287   4.260  18.718  0.00  0.00    +0.000 C 
ATOM     12  N   UNL     1      48.310   3.151  18.780  0.00  0.00    +0.000 NA
ATOM     13  C   UNL     1      47.776   2.916  17.421  0.00  0.00    +0.000 C 
ATOM     14  C   UNL     1      47.154   4.171  16.757  0.00  0.00    +0.000 C 
ATOM     15  H   UNL     1      47.535   3.447  19.374  0.00  0.00    +0.000 HD
ENDBRANCH   4   9
ENDBRANCH   1   2
BRANCH   1  16
ATOM     16  C   UNL     1      45.695   7.416  12.477  0.00  0.00    +0.000 C 
BRANCH  16  17
ATOM     17  O   UNL     1      44.740   7.110  11.449  0.00  0.00    +0.000 OA
BRANCH  17  22
ATOM     18  C   UNL     1      44.300   3.740  10.346  0.00  0.00    +0.000 A 
ATOM     19  C   UNL     1      43.722   3.115  11.441  0.00  0.00    +0.000 A 
ATOM     20  C   UNL     1      43.492   3.881  12.581  0.00  0.00    +0.000 A 
ATOM     21  C   UNL     1      43.839   5.234  12.575  0.00  0.00    +0.000 A 
ATOM     22  C   UNL     1      44.408   5.768  11.429  0.00  0.00    +0.000 A 
ATOM     23  N   UNL     1      44.653   5.052  10.315  0.00  0.00    +0.000 NA
BRANCH  18  25
ATOM     24  N   UNL     1      44.642   1.607   9.255  0.00  0.00    +0.000 N 
ATOM     25  C   UNL     1      44.574   2.967   9.094  0.00  0.00    +0.000 C 
ATOM     26  O   UNL     1      44.725   3.500   8.004  0.00  0.00    +0.000 OA
ATOM     27  H   UNL     1      44.832   1.018   8.456  0.00  0.00    +0.000 HD
ATOM     28  H   UNL     1      44.513   1.205  10.176  0.00  0.00    +0.000 HD
ENDBRANCH  18  25
ENDBRANCH  17  22
ENDBRANCH  16  17
ENDBRANCH   1  16
TORSDOF 6
ENDMDL
MODEL 6
REMARK VINA RESULT:    -6.702      2.411      2.662
REMARK INTER + INTRA:          -9.705
REMARK INTER:                  -9.005
REMARK INTRA:                  -0.700
REMARK UNBOUND:                -0.652
REMARK  Name = 
REMARK  6 active torsions:
REMARK  status: ('A' for Active; 'I' for Inactive)
REMARK    1  A    between atoms: C_2  and  C_4
REMARK    2  A    between atoms: C_8  and  O_9
REMARK    3  A    between atoms: O_9  and  C_10
REMARK    4  A    between atoms: C_10  and  C_11
REMARK    5  A    between atoms: C_11  and  C_12
REMARK    6  A    between atoms: C_14  and  N_15
REMARK                            x       y       z     vdW  Elec       q    Type
REMARK                         _______ _______ _______ _____ _____    ______ ____
ROOT
ATOM      1  C   UNL     1      44.790   6.533  11.282  0.00  0.00    +0.000 C 
ENDROOT
BRANCH   1   2
ATOM      2  C   UNL     1      44.542   5.074  10.964  0.00  0.00    +0.000 A 
ATOM      3  C   UNL     1      45.149   4.510   9.818  0.00  0.00    +0.000 A 
ATOM      4  C   UNL     1      44.953   3.171   9.433  0.00  0.00    +0.000 A 
ATOM      5  C   UNL     1      44.139   2.392  10.264  0.00  0.00    +0.000 A 
ATOM      6  C   UNL     1      43.549   2.915  11.418  0.00  0.00    +0.000 A 
ATOM      7  C   UNL     1      43.747   4.248  11.767  0.00  0.00    +0.000 A 
ATOM      8 CL   UNL     1      42.987   4.820  13.209  0.00  0.00    +0.000 Cl
BRANCH   4   9
ATOM      9  N   UNL     1      45.533   2.647   8.295  0.00  0.00    +0.000 N 
ATOM     10  C   UNL     1      45.644   1.199   8.056  0.00  0.00    +0.000 C 
ATOM     11  C   UNL     1      47.105   0.814   7.737  0.00  0.00    +0.000 C 
ATOM     12  N   UNL     1      47.685   1.592   6.620  0.00  0.00    +0.000 NA
ATOM     13  C   UNL     1      47.563   3.032   6.935  0.00  0.00    +0.000 C 
ATOM     14  C   UNL     1      46.116   3.494   7.246  0.00  0.00    +0.000 C 
ATOM     15  H   UNL     1      47.129   1.405   5.785  0.00  0.00    +0.000 HD
ENDBRANCH   4   9
ENDBRANCH   1   2
BRANCH   1  16
ATOM     16  C   UNL     1      45.955   6.721  12.252  0.00  0.00    +0.000 C 
BRANCH  16  17
ATOM     17  O   UNL     1      47.162   6.972  11.515  0.00  0.00    +0.000 OA
BRANCH  17  22
ATOM     18  C   UNL     1      48.954   8.141  14.377  0.00  0.00    +0.000 A 
ATOM     19  C   UNL     1      50.220   8.409  13.877  0.00  0.00    +0.000 A 
ATOM     20  C   UNL     1      50.449   8.170  12.525  0.00  0.00    +0.000 A 
ATOM     21  C   UNL     1      49.408   7.684  11.731  0.00  0.00    +0.000 A 
ATOM     22  C   UNL     1      48.176   7.451  12.323  0.00  0.00    +0.000 A 
ATOM     23  N   UNL     1      47.925   7.662  13.630  0.00  0.00    +0.000 NA
BRANCH  18  25
ATOM     24  N   UNL     1      47.647   9.279  16.066  0.00  0.00    +0.000 N 
ATOM     25  C   UNL     1      48.649   8.375  15.824  0.00  0.00    +0.000 C 
ATOM     26  O   UNL     1      49.241   7.803  16.728  0.00  0.00    +0.000 OA
ATOM     27  H   UNL     1      47.390   9.497  17.018  0.00  0.00    +0.000 HD
ATOM     28  H   UNL     1      47.183   9.732  15.288  0.00  0.00    +0.000 HD
ENDBRANCH  18  25
ENDBRANCH  17  22
ENDBRANCH  16  17
ENDBRANCH   1  16
TORSDOF 6
ENDMDL
MODEL 7
REMARK VINA RESULT:    -6.697      3.616      9.174
REMARK INTER + INTRA:          -9.699
REMARK INTER:                  -9.001
REMARK INTRA:                  -0.698
REMARK UNBOUND:                -0.652
REMARK  Name = 
REMARK  6 active torsions:
REMARK  status: ('A' for Active; 'I' for Inactive)
REMARK    1  A    between atoms: C_2  and  C_4
REMARK    2  A    between atoms: C_8  and  O_9
REMARK    3  A    between atoms: O_9  and  C_10
REMARK    4  A    between atoms: C_10  and  C_11
REMARK    5  A    between atoms: C_11  and  C_12
REMARK    6  A    between atoms: C_14  and  N_15
REMARK                            x       y       z     vdW  Elec       q    Type
REMARK                         _______ _______ _______ _____ _____    ______ ____
ROOT
ATOM      1  C   UNL     1      48.150   2.820  16.881  0.00  0.00    +0.000 C 
ENDROOT
BRANCH   1   2
ATOM      2  C   UNL     1      49.276   3.704  17.374  0.00  0.00    +0.000 A 
ATOM      3  C   UNL     1      48.998   5.052  17.697  0.00  0.00    +0.000 A 
ATOM      4  C   UNL     1      49.987   5.951  18.137  0.00  0.00    +0.000 A 
ATOM      5  C   UNL     1      51.283   5.439  18.273  0.00  0.00    +0.000 A 
ATOM      6  C   UNL     1      51.583   4.103  17.987  0.00  0.00    +0.000 A 
ATOM      7  C   UNL     1      50.586   3.240  17.538  0.00  0.00    +0.000 A 
ATOM      8 CL   UNL     1      51.033   1.605  17.209  0.00  0.00    +0.000 Cl
BRANCH   4   9
ATOM      9  N   UNL     1      49.700   7.270  18.422  0.00  0.00    +0.000 N 
ATOM     10  C   UNL     1      50.461   8.052  19.410  0.00  0.00    +0.000 C 
ATOM     11  C   UNL     1      49.508   8.691  20.444  0.00  0.00    +0.000 C 
ATOM     12  N   UNL     1      48.433   9.499  19.828  0.00  0.00    +0.000 NA
ATOM     13  C   UNL     1      47.695   8.649  18.868  0.00  0.00    +0.000 C 
ATOM     14  C   UNL     1      48.589   7.990  17.786  0.00  0.00    +0.000 C 
ATOM     15  H   UNL     1      48.870  10.257  19.304  0.00  0.00    +0.000 HD
ENDBRANCH   4   9
ENDBRANCH   1   2
BRANCH   1  16
ATOM     16  C   UNL     1      47.233   3.548  15.900  0.00  0.00    +0.000 C 
BRANCH  16  17
ATOM     17  O   UNL     1      47.522   3.122  14.560  0.00  0.00    +0.000 OA
BRANCH  17  22
ATOM     18  C   UNL     1      45.174   3.875  11.975  0.00  0.00    +0.000 A 
ATOM     19  C   UNL     1      45.346   5.236  11.770  0.00  0.00    +0.000 A 
ATOM     20  C   UNL     1      46.289   5.898  12.552  0.00  0.00    +0.000 A 
ATOM     21  C   UNL     1      47.023   5.175  13.494  0.00  0.00    +0.000 A 
ATOM     22  C   UNL     1      46.781   3.815  13.621  0.00  0.00    +0.000 A 
ATOM     23  N   UNL     1      45.869   3.148  12.888  0.00  0.00    +0.000 NA
BRANCH  18  25
ATOM     24  N   UNL     1      44.703   2.331  10.172  0.00  0.00    +0.000 N 
ATOM     25  C   UNL     1      44.172   3.111  11.166  0.00  0.00    +0.000 C 
ATOM     26  O   UNL     1      42.968   3.170  11.373  0.00  0.00    +0.000 OA
ATOM     27  H   UNL     1      44.089   1.792   9.578  0.00  0.00    +0.000 HD
ATOM     28  H   UNL     1      45.706   2.312  10.033  0.00  0.00    +0.000 HD
ENDBRANCH  18  25
ENDBRANCH  17  22
ENDBRANCH  16  17
ENDBRANCH   1  16
TORSDOF 6
ENDMDL
MODEL 8
REMARK VINA RESULT:    -6.678      3.173      7.869
REMARK INTER + INTRA:          -9.673
REMARK INTER:                  -9.003
REMARK INTRA:                  -0.670
REMARK UNBOUND:                -0.652
REMARK  Name = 
REMARK  6 active torsions:
REMARK  status: ('A' for Active; 'I' for Inactive)
REMARK    1  A    between atoms: C_2  and  C_4
REMARK    2  A    between atoms: C_8  and  O_9
REMARK    3  A    between atoms: O_9  and  C_10
REMARK    4  A    between atoms: C_10  and  C_11
REMARK    5  A    between atoms: C_11  and  C_12
REMARK    6  A    between atoms: C_14  and  N_15
REMARK                            x       y       z     vdW  Elec       q    Type
REMARK                         _______ _______ _______ _____ _____    ______ ____
ROOT
ATOM      1  C   UNL     1      47.704   7.680  12.781  0.00  0.00    +0.000 C 
ENDROOT
BRANCH   1   2
ATOM      2  C   UNL     1      48.580   7.294  13.955  0.00  0.00    +0.000 A 
ATOM      3  C   UNL     1      48.072   6.397  14.922  0.00  0.00    +0.000 A 
ATOM      4  C   UNL     1      48.805   6.004  16.057  0.00  0.00    +0.000 A 
ATOM      5  C   UNL     1      50.099   6.525  16.179  0.00  0.00    +0.000 A 
ATOM      6  C   UNL     1      50.638   7.392  15.224  0.00  0.00    +0.000 A 
ATOM      7  C   UNL     1      49.883   7.777  14.118  0.00  0.00    +0.000 A 
ATOM      8 CL   UNL     1      50.619   8.848  12.980  0.00  0.00    +0.000 Cl
BRANCH   4   9
ATOM      9  N   UNL     1      48.281   5.148  17.004  0.00  0.00    +0.000 N 
ATOM     10  C   UNL     1      48.069   5.548  18.404  0.00  0.00    +0.000 C 
ATOM     11  C   UNL     1      48.746   4.542  19.362  0.00  0.00    +0.000 C 
ATOM     12  N   UNL     1      48.328   3.142  19.131  0.00  0.00    +0.000 NA
ATOM     13  C   UNL     1      48.589   2.799  17.716  0.00  0.00    +0.000 C 
ATOM     14  C   UNL     1      47.921   3.757  16.696  0.00  0.00    +0.000 C 
ATOM     15  H   UNL     1      47.321   3.084  19.287  0.00  0.00    +0.000 HD
ENDBRANCH   4   9
ENDBRANCH   1   2
BRANCH   1  16
ATOM     16  C   UNL     1      46.757   6.553  12.374  0.00  0.00    +0.000 C 
BRANCH  16  17
ATOM     17  O   UNL     1      46.588   6.555  10.948  0.00  0.00    +0.000 OA
BRANCH  17  22
ATOM     18  C   UNL     1      44.347   3.772  10.941  0.00  0.00    +0.000 A 
ATOM     19  C   UNL     1      44.281   3.415   9.602  0.00  0.00    +0.000 A 
ATOM     20  C   UNL     1      45.024   4.163   8.692  0.00  0.00    +0.000 A 
ATOM     21  C   UNL     1      45.803   5.224   9.156  0.00  0.00    +0.000 A 
ATOM     22  C   UNL     1      45.807   5.500  10.515  0.00  0.00    +0.000 A 
ATOM     23  N   UNL     1      45.092   4.803  11.419  0.00  0.00    +0.000 NA
BRANCH  18  25
ATOM     24  N   UNL     1      43.649   3.500  13.242  0.00  0.00    +0.000 N 
ATOM     25  C   UNL     1      43.568   3.007  11.965  0.00  0.00    +0.000 C 
ATOM     26  O   UNL     1      42.905   2.017  11.692  0.00  0.00    +0.000 OA
ATOM     27  H   UNL     1      43.157   3.032  13.990  0.00  0.00    +0.000 HD
ATOM     28  H   UNL     1      44.211   4.322  13.426  0.00  0.00    +0.000 HD
ENDBRANCH  18  25
ENDBRANCH  17  22
ENDBRANCH  16  17
ENDBRANCH   1  16
TORSDOF 6
ENDMDL
MODEL 9
REMARK VINA RESULT:    -6.580      4.012      6.584
REMARK INTER + INTRA:          -9.540
REMARK INTER:                  -8.623
REMARK INTRA:                  -0.917
REMARK UNBOUND:                -0.652
REMARK  Name = 
REMARK  6 active torsions:
REMARK  status: ('A' for Active; 'I' for Inactive)
REMARK    1  A    between atoms: C_2  and  C_4
REMARK    2  A    between atoms: C_8  and  O_9
REMARK    3  A    between atoms: O_9  and  C_10
REMARK    4  A    between atoms: C_10  and  C_11
REMARK    5  A    between atoms: C_11  and  C_12
REMARK    6  A    between atoms: C_14  and  N_15
REMARK                            x       y       z     vdW  Elec       q    Type
REMARK                         _______ _______ _______ _____ _____    ______ ____
ROOT
ATOM      1  C   UNL     1      48.796   8.311  11.559  0.00  0.00    +0.000 C 
ENDROOT
BRANCH   1   2
ATOM      2  C   UNL     1      48.082   7.227  12.337  0.00  0.00    +0.000 A 
ATOM      3  C   UNL     1      46.945   6.609  11.766  0.00  0.00    +0.000 A 
ATOM      4  C   UNL     1      46.206   5.612  12.429  0.00  0.00    +0.000 A 
ATOM      5  C   UNL     1      46.668   5.224  13.692  0.00  0.00    +0.000 A 
ATOM      6  C   UNL     1      47.804   5.797  14.270  0.00  0.00    +0.000 A 
ATOM      7  C   UNL     1      48.508   6.794  13.598  0.00  0.00    +0.000 A 
ATOM      8 CL   UNL     1      49.904   7.451  14.374  0.00  0.00    +0.000 Cl
BRANCH   4   9
ATOM      9  N   UNL     1      45.083   5.041  11.865  0.00  0.00    +0.000 N 
ATOM     10  C   UNL     1      43.906   4.656  12.659  0.00  0.00    +0.000 C 
ATOM     11  C   UNL     1      43.532   3.181  12.392  0.00  0.00    +0.000 C 
ATOM     12  N   UNL     1      43.338   2.877  10.956  0.00  0.00    +0.000 NA
ATOM     13  C   UNL     1      44.563   3.265  10.223  0.00  0.00    +0.000 C 
ATOM     14  C   UNL     1      44.986   4.742  10.430  0.00  0.00    +0.000 C 
ATOM     15  H   UNL     1      42.571   3.455  10.614  0.00  0.00    +0.000 HD
ENDBRANCH   4   9
ENDBRANCH   1   2
BRANCH   1  16
ATOM     16  C   UNL     1      48.385   9.711  12.011  0.00  0.00    +0.000 C 
BRANCH  16  17
ATOM     17  O   UNL     1      47.081   9.662  12.611  0.00  0.00    +0.000 OA
BRANCH  17  22
ATOM     18  C   UNL     1      44.035  10.354  10.877  0.00  0.00    +0.000 A 
ATOM     19  C   UNL     1      44.274  11.585  10.285  0.00  0.00    +0.000 A 
ATOM     20  C   UNL     1      45.512  12.183  10.502  0.00  0.00    +0.000 A 
ATOM     21  C   UNL     1      46.458  11.525  11.291  0.00  0.00    +0.000 A 
ATOM     22  C   UNL     1      46.127  10.293  11.836  0.00  0.00    +0.000 A 
ATOM     23  N   UNL     1      44.934   9.694  11.653  0.00  0.00    +0.000 NA
BRANCH  18  25
ATOM     24  N   UNL     1      42.745   8.306  10.865  0.00  0.00    +0.000 N 
ATOM     25  C   UNL     1      42.720   9.665  10.681  0.00  0.00    +0.000 C 
ATOM     26  O   UNL     1      41.696  10.261  10.382  0.00  0.00    +0.000 OA
ATOM     27  H   UNL     1      41.898   7.770  10.742  0.00  0.00    +0.000 HD
ATOM     28  H   UNL     1      43.615   7.850  11.110  0.00  0.00    +0.000 HD
ENDBRANCH  18  25
ENDBRANCH  17  22
ENDBRANCH  16  17
ENDBRANCH   1  16
TORSDOF 6
ENDMDL
