MODEL 1
REMARK VINA RESULT:    -8.411      0.000      0.000
REMARK INTER + INTRA:         -11.978
REMARK INTER:                 -10.870
REMARK INTRA:                  -1.109
REMARK UNBOUND:                -1.109
REMARK  Name = 
REMARK  5 active torsions:
REMARK  status: ('A' for Active; 'I' for Inactive)
REMARK    1  A    between atoms: C_2  and  C_3
REMARK    2  A    between atoms: C_6  and  O_7
REMARK    3  A    between atoms: O_7  and  C_8
REMARK    4  A    between atoms: C_8  and  C_9
REMARK    5  A    between atoms: C_13  and  C_14
REMARK                            x       y       z     vdW  Elec       q    Type
REMARK                         _______ _______ _______ _____ _____    ______ ____
ROOT
ATOM      1  C   UNL     1      43.868   4.950  11.242  0.00  0.00    +0.000 C 
ATOM      2  C   UNL     1      42.495   5.275  11.814  0.00  0.00    +0.000 C 
ATOM      3  C   UNL     1      43.205   6.293  10.991  0.00  0.00    +0.000 C 
ENDROOT
BRANCH   1   4
ATOM      4  C   UNL     1      45.109   4.902  12.106  0.00  0.00    +0.000 A 
ATOM      5  C   UNL     1      45.428   3.764  12.849  0.00  0.00    +0.000 A 
ATOM      6  C   UNL     1      46.653   3.700  13.491  0.00  0.00    +0.000 A 
ATOM      7  N   UNL     1      47.571   4.689  13.466  0.00  0.00    +0.000 NA
ATOM      8  C   UNL     1      47.268   5.815  12.779  0.00  0.00    +0.000 A 
ATOM      9  C   UNL     1      46.057   5.940  12.097  0.00  0.00    +0.000 A 
BRANCH   8  10
ATOM     10  C   UNL     1      48.300   6.866  12.766  0.00  0.00    +0.000 A 
ATOM     11  C   UNL     1      48.544   7.655  11.633  0.00  0.00    +0.000 A 
ATOM     12  C   UNL     1      49.526   8.647  11.650  0.00  0.00    +0.000 A 
ATOM     13  C   UNL     1      50.251   8.831  12.813  0.00  0.00    +0.000 A 
ATOM     14  N   UNL     1      50.060   8.105  13.932  0.00  0.00    +0.000 NA
ATOM     15  C   UNL     1      49.102   7.144  13.875  0.00  0.00    +0.000 A 
ENDBRANCH   8  10
ENDBRANCH   1   4
BRANCH   1  16
ATOM     16  O   UNL     1      43.728   3.847  10.324  0.00  0.00    +0.000 OA
BRANCH  16  20
ATOM     17  C   UNL     1      46.579   2.584   7.597  0.00  0.00    +0.000 A 
ATOM     18  C   UNL     1      46.337   3.958   7.706  0.00  0.00    +0.000 A 
ATOM     19  C   UNL     1      45.415   4.435   8.639  0.00  0.00    +0.000 A 
ATOM     20  C   UNL     1      44.729   3.536   9.451  0.00  0.00    +0.000 A 
ATOM     21  C   UNL     1      45.022   2.171   9.389  0.00  0.00    +0.000 A 
ATOM     22  C   UNL     1      45.941   1.691   8.460  0.00  0.00    +0.000 A 
BRANCH  17  24
ATOM     23  N   UNL     1      48.199   1.698   5.786  0.00  0.00    +0.000 NA
ATOM     24  C   UNL     1      47.461   2.093   6.582  0.00  0.00    +0.000 C 
ENDBRANCH  17  24
ENDBRANCH  16  20
ENDBRANCH   1  16
TORSDOF 5
ENDMDL
MODEL 2
REMARK VINA RESULT:    -7.348      1.986      3.286
REMARK INTER + INTRA:         -10.604
REMARK INTER:                 -10.876
REMARK INTRA:                   0.272
REMARK UNBOUND:                -1.109
REMARK  Name = 
REMARK  5 active torsions:
REMARK  status: ('A' for Active; 'I' for Inactive)
REMARK    1  A    between atoms: C_2  and  C_3
REMARK    2  A    between atoms: C_6  and  O_7
REMARK    3  A    between atoms: O_7  and  C_8
REMARK    4  A    between atoms: C_8  and  C_9
REMARK    5  A    between atoms: C_13  and  C_14
REMARK                            x       y       z     vdW  Elec       q    Type
REMARK                         _______ _______ _______ _____ _____    ______ ____
ROOT
ATOM      1  C   UNL     1      44.088   4.674  11.858  0.00  0.00    +0.000 C 
ATOM      2  C   UNL     1      43.386   3.412  12.338  0.00  0.00    +0.000 C 
ATOM      3  C   UNL     1      42.906   4.741  12.809  0.00  0.00    +0.000 C 
ENDROOT
BRANCH   1   4
ATOM      4  C   UNL     1      45.455   5.078  12.367  0.00  0.00    +0.000 A 
ATOM      5  C   UNL     1      46.232   6.015  11.684  0.00  0.00    +0.000 A 
ATOM      6  C   UNL     1      47.397   6.480  12.270  0.00  0.00    +0.000 A 
ATOM      7  N   UNL     1      47.855   6.067  13.471  0.00  0.00    +0.000 NA
ATOM      8  C   UNL     1      47.133   5.135  14.135  0.00  0.00    +0.000 A 
ATOM      9  C   UNL     1      45.942   4.634  13.609  0.00  0.00    +0.000 A 
BRANCH   8  10
ATOM     10  C   UNL     1      47.659   4.719  15.447  0.00  0.00    +0.000 A 
ATOM     11  C   UNL     1      47.410   3.446  15.980  0.00  0.00    +0.000 A 
ATOM     12  C   UNL     1      47.924   3.077  17.223  0.00  0.00    +0.000 A 
ATOM     13  C   UNL     1      48.687   3.999  17.916  0.00  0.00    +0.000 A 
ATOM     14  N   UNL     1      48.961   5.236  17.455  0.00  0.00    +0.000 NA
ATOM     15  C   UNL     1      48.437   5.561  16.246  0.00  0.00    +0.000 A 
ENDBRANCH   8  10
ENDBRANCH   1   4
BRANCH   1  16
ATOM     16  O   UNL     1      43.924   4.770  10.428  0.00  0.00    +0.000 OA
BRANCH  16  20
ATOM     17  C   UNL     1      46.321   2.546   7.886  0.00  0.00    +0.000 A 
ATOM     18  C   UNL     1      45.505   1.857   8.790  0.00  0.00    +0.000 A 
ATOM     19  C   UNL     1      44.650   2.561   9.639  0.00  0.00    +0.000 A 
ATOM     20  C   UNL     1      44.623   3.952   9.590  0.00  0.00    +0.000 A 
ATOM     21  C   UNL     1      45.387   4.635   8.640  0.00  0.00    +0.000 A 
ATOM     22  C   UNL     1      46.241   3.937   7.791  0.00  0.00    +0.000 A 
BRANCH  17  24
ATOM     23  N   UNL     1      48.021   1.274   6.408  0.00  0.00    +0.000 NA
ATOM     24  C   UNL     1      47.257   1.825   7.078  0.00  0.00    +0.000 C 
ENDBRANCH  17  24
ENDBRANCH  16  20
ENDBRANCH   1  16
TORSDOF 5
ENDMDL
MODEL 3
REMARK VINA RESULT:    -6.744      2.650      7.091
REMARK INTER + INTRA:          -9.824
REMARK INTER:                  -8.955
REMARK INTRA:                  -0.869
REMARK UNBOUND:                -1.109
REMARK  Name = 
REMARK  5 active torsions:
REMARK  status: ('A' for Active; 'I' for Inactive)
REMARK    1  A    between atoms: C_2  and  C_3
REMARK    2  A    between atoms: C_6  and  O_7
REMARK    3  A    between atoms: O_7  and  C_8
REMARK    4  A    between atoms: C_8  and  C_9
REMARK    5  A    between atoms: C_13  and  C_14
REMARK                            x       y       z     vdW  Elec       q    Type
REMARK                         _______ _______ _______ _____ _____    ______ ____
ROOT
ATOM      1  C   UNL     1      46.152   7.355  12.303  0.00  0.00    +0.000 C 
ATOM      2  C   UNL     1      46.265   8.787  11.799  0.00  0.00    +0.000 C 
ATOM      3  C   UNL     1      45.469   8.503  13.026  0.00  0.00    +0.000 C 
ENDROOT
BRANCH   1   4
ATOM      4  C   UNL     1      45.295   6.321  11.607  0.00  0.00    +0.000 A 
ATOM      5  C   UNL     1      43.905   6.329  11.737  0.00  0.00    +0.000 A 
ATOM      6  C   UNL     1      43.150   5.473  10.954  0.00  0.00    +0.000 A 
ATOM      7  N   UNL     1      43.674   4.600  10.068  0.00  0.00    +0.000 NA
ATOM      8  C   UNL     1      45.022   4.554   9.950  0.00  0.00    +0.000 A 
ATOM      9  C   UNL     1      45.842   5.398  10.699  0.00  0.00    +0.000 A 
BRANCH   8  10
ATOM     10  C   UNL     1      45.555   3.596   8.965  0.00  0.00    +0.000 A 
ATOM     11  C   UNL     1      46.150   4.015   7.766  0.00  0.00    +0.000 A 
ATOM     12  C   UNL     1      46.650   3.086   6.852  0.00  0.00    +0.000 A 
ATOM     13  C   UNL     1      46.544   1.741   7.161  0.00  0.00    +0.000 A 
ATOM     14  N   UNL     1      45.984   1.280   8.297  0.00  0.00    +0.000 NA
ATOM     15  C   UNL     1      45.502   2.213   9.157  0.00  0.00    +0.000 A 
ENDBRANCH   8  10
ENDBRANCH   1   4
BRANCH   1  16
ATOM     16  O   UNL     1      47.469   6.898  12.673  0.00  0.00    +0.000 OA
BRANCH  16  20
ATOM     17  C   UNL     1      48.097   5.120  16.360  0.00  0.00    +0.000 A 
ATOM     18  C   UNL     1      47.257   4.468  15.451  0.00  0.00    +0.000 A 
ATOM     19  C   UNL     1      47.047   5.007  14.181  0.00  0.00    +0.000 A 
ATOM     20  C   UNL     1      47.667   6.202  13.829  0.00  0.00    +0.000 A 
ATOM     21  C   UNL     1      48.559   6.816  14.712  0.00  0.00    +0.000 A 
ATOM     22  C   UNL     1      48.772   6.282  15.980  0.00  0.00    +0.000 A 
BRANCH  17  24
ATOM     23  N   UNL     1      48.367   4.166  18.750  0.00  0.00    +0.000 NA
ATOM     24  C   UNL     1      48.242   4.610  17.690  0.00  0.00    +0.000 C 
ENDBRANCH  17  24
ENDBRANCH  16  20
ENDBRANCH   1  16
TORSDOF 5
ENDMDL
MODEL 4
REMARK VINA RESULT:    -6.248      2.924      6.804
REMARK INTER + INTRA:          -9.183
REMARK INTER:                  -8.348
REMARK INTRA:                  -0.835
REMARK UNBOUND:                -1.109
REMARK  Name = 
REMARK  5 active torsions:
REMARK  status: ('A' for Active; 'I' for Inactive)
REMARK    1  A    between atoms: C_2  and  C_3
REMARK    2  A    between atoms: C_6  and  O_7
REMARK    3  A    between atoms: O_7  and  C_8
REMARK    4  A    between atoms: C_8  and  C_9
REMARK    5  A    between atoms: C_13  and  C_14
REMARK                            x       y       z     vdW  Elec       q    Type
REMARK                         _______ _______ _______ _____ _____    ______ ____
ROOT
ATOM      1  C   UNL     1      45.703   5.257  12.980  0.00  0.00    +0.000 C 
ATOM      2  C   UNL     1      46.399   4.862  14.275  0.00  0.00    +0.000 C 
ATOM      3  C   UNL     1      47.212   5.352  13.126  0.00  0.00    +0.000 C 
ENDROOT
BRANCH   1   4
ATOM      4  C   UNL     1      45.128   4.230  12.029  0.00  0.00    +0.000 A 
ATOM      5  C   UNL     1      43.875   3.659  12.254  0.00  0.00    +0.000 A 
ATOM      6  C   UNL     1      43.316   2.853  11.278  0.00  0.00    +0.000 A 
ATOM      7  N   UNL     1      43.918   2.558  10.107  0.00  0.00    +0.000 NA
ATOM      8  C   UNL     1      45.149   3.075   9.882  0.00  0.00    +0.000 A 
ATOM      9  C   UNL     1      45.765   3.906  10.818  0.00  0.00    +0.000 A 
BRANCH   8  10
ATOM     10  C   UNL     1      45.769   2.738   8.588  0.00  0.00    +0.000 A 
ATOM     11  C   UNL     1      45.963   3.698   7.584  0.00  0.00    +0.000 A 
ATOM     12  C   UNL     1      46.555   3.353   6.369  0.00  0.00    +0.000 A 
ATOM     13  C   UNL     1      46.947   2.040   6.181  0.00  0.00    +0.000 A 
ATOM     14  N   UNL     1      46.788   1.075   7.109  0.00  0.00    +0.000 NA
ATOM     15  C   UNL     1      46.200   1.447   8.274  0.00  0.00    +0.000 A 
ENDBRANCH   8  10
ENDBRANCH   1   4
BRANCH   1  16
ATOM     16  O   UNL     1      44.838   6.378  13.252  0.00  0.00    +0.000 OA
BRANCH  16  20
ATOM     17  C   UNL     1      45.096  10.050  11.354  0.00  0.00    +0.000 A 
ATOM     18  C   UNL     1      45.995   9.782  12.392  0.00  0.00    +0.000 A 
ATOM     19  C   UNL     1      45.974   8.544  13.035  0.00  0.00    +0.000 A 
ATOM     20  C   UNL     1      45.046   7.582  12.647  0.00  0.00    +0.000 A 
ATOM     21  C   UNL     1      44.196   7.825  11.565  0.00  0.00    +0.000 A 
ATOM     22  C   UNL     1      44.213   9.058  10.920  0.00  0.00    +0.000 A 
BRANCH  17  24
ATOM     23  N   UNL     1      45.062  12.409  10.294  0.00  0.00    +0.000 NA
ATOM     24  C   UNL     1      45.064  11.349  10.755  0.00  0.00    +0.000 C 
ENDBRANCH  17  24
ENDBRANCH  16  20
ENDBRANCH   1  16
TORSDOF 5
ENDMDL
MODEL 5
REMARK VINA RESULT:    -5.850      3.598      8.253
REMARK INTER + INTRA:          -8.669
REMARK INTER:                  -7.605
REMARK INTRA:                  -1.064
REMARK UNBOUND:                -1.109
REMARK  Name = 
REMARK  5 active torsions:
REMARK  status: ('A' for Active; 'I' for Inactive)
REMARK    1  A    between atoms: C_2  and  C_3
REMARK    2  A    between atoms: C_6  and  O_7
REMARK    3  A    between atoms: O_7  and  C_8
REMARK    4  A    between atoms: C_8  and  C_9
REMARK    5  A    between atoms: C_13  and  C_14
REMARK                            x       y       z     vdW  Elec       q    Type
REMARK                         _______ _______ _______ _____ _____    ______ ____
ROOT
ATOM      1  C   UNL     1      49.021   7.546  13.759  0.00  0.00    +0.000 C 
ATOM      2  C   UNL     1      50.123   7.632  12.712  0.00  0.00    +0.000 C 
ATOM      3  C   UNL     1      49.800   8.831  13.536  0.00  0.00    +0.000 C 
ENDROOT
BRANCH   1   4
ATOM      4  C   UNL     1      47.556   7.509  13.384  0.00  0.00    +0.000 A 
ATOM      5  C   UNL     1      46.814   8.684  13.253  0.00  0.00    +0.000 A 
ATOM      6  C   UNL     1      45.527   8.616  12.748  0.00  0.00    +0.000 A 
ATOM      7  N   UNL     1      44.919   7.468  12.384  0.00  0.00    +0.000 NA
ATOM      8  C   UNL     1      45.608   6.313  12.533  0.00  0.00    +0.000 A 
ATOM      9  C   UNL     1      46.915   6.311  13.024  0.00  0.00    +0.000 A 
BRANCH   8  10
ATOM     10  C   UNL     1      44.914   5.082  12.114  0.00  0.00    +0.000 A 
ATOM     11  C   UNL     1      44.925   4.638  10.785  0.00  0.00    +0.000 A 
ATOM     12  C   UNL     1      44.262   3.466  10.416  0.00  0.00    +0.000 A 
ATOM     13  C   UNL     1      43.595   2.755  11.397  0.00  0.00    +0.000 A 
ATOM     14  N   UNL     1      43.551   3.132  12.690  0.00  0.00    +0.000 NA
ATOM     15  C   UNL     1      44.200   4.281  13.009  0.00  0.00    +0.000 A 
ENDBRANCH   8  10
ENDBRANCH   1   4
BRANCH   1  16
ATOM     16  O   UNL     1      49.414   6.578  14.754  0.00  0.00    +0.000 OA
BRANCH  16  20
ATOM     17  C   UNL     1      47.943   6.346  18.618  0.00  0.00    +0.000 A 
ATOM     18  C   UNL     1      48.380   7.592  18.155  0.00  0.00    +0.000 A 
ATOM     19  C   UNL     1      48.846   7.729  16.847  0.00  0.00    +0.000 A 
ATOM     20  C   UNL     1      48.885   6.617  16.011  0.00  0.00    +0.000 A 
ATOM     21  C   UNL     1      48.385   5.390  16.451  0.00  0.00    +0.000 A 
ATOM     22  C   UNL     1      47.919   5.248  17.755  0.00  0.00    +0.000 A 
BRANCH  17  24
ATOM     23  N   UNL     1      47.226   6.032  21.084  0.00  0.00    +0.000 NA
ATOM     24  C   UNL     1      47.546   6.192  19.985  0.00  0.00    +0.000 C 
ENDBRANCH  17  24
ENDBRANCH  16  20
ENDBRANCH   1  16
TORSDOF 5
ENDMDL
MODEL 6
REMARK VINA RESULT:    -5.650      3.234      5.808
REMARK INTER + INTRA:          -8.410
REMARK INTER:                  -7.549
REMARK INTRA:                  -0.861
REMARK UNBOUND:                -1.109
REMARK  Name = 
REMARK  5 active torsions:
REMARK  status: ('A' for Active; 'I' for Inactive)
REMARK    1  A    between atoms: C_2  and  C_3
REMARK    2  A    between atoms: C_6  and  O_7
REMARK    3  A    between atoms: O_7  and  C_8
REMARK    4  A    between atoms: C_8  and  C_9
REMARK    5  A    between atoms: C_13  and  C_14
REMARK                            x       y       z     vdW  Elec       q    Type
REMARK                         _______ _______ _______ _____ _____    ______ ____
ROOT
ATOM      1  C   UNL     1      48.303   8.071  12.393  0.00  0.00    +0.000 C 
ATOM      2  C   UNL     1      49.199   8.963  11.546  0.00  0.00    +0.000 C 
ATOM      3  C   UNL     1      49.332   7.483  11.443  0.00  0.00    +0.000 C 
ENDROOT
BRANCH   1   4
ATOM      4  C   UNL     1      48.509   7.904  13.883  0.00  0.00    +0.000 A 
ATOM      5  C   UNL     1      48.635   9.011  14.723  0.00  0.00    +0.000 A 
ATOM      6  C   UNL     1      48.654   8.818  16.094  0.00  0.00    +0.000 A 
ATOM      7  N   UNL     1      48.578   7.609  16.687  0.00  0.00    +0.000 NA
ATOM      8  C   UNL     1      48.488   6.519  15.889  0.00  0.00    +0.000 A 
ATOM      9  C   UNL     1      48.450   6.642  14.500  0.00  0.00    +0.000 A 
BRANCH   8  10
ATOM     10  C   UNL     1      48.395   5.218  16.575  0.00  0.00    +0.000 A 
ATOM     11  C   UNL     1      49.412   4.747  17.418  0.00  0.00    +0.000 A 
ATOM     12  C   UNL     1      49.296   3.512  18.058  0.00  0.00    +0.000 A 
ATOM     13  C   UNL     1      48.152   2.766  17.840  0.00  0.00    +0.000 A 
ATOM     14  N   UNL     1      47.142   3.167  17.043  0.00  0.00    +0.000 NA
ATOM     15  C   UNL     1      47.294   4.369  16.431  0.00  0.00    +0.000 A 
ENDBRANCH   8  10
ENDBRANCH   1   4
BRANCH   1  16
ATOM     16  O   UNL     1      46.934   8.291  11.994  0.00  0.00    +0.000 OA
BRANCH  16  20
ATOM     17  C   UNL     1      44.500   4.951  11.723  0.00  0.00    +0.000 A 
ATOM     18  C   UNL     1      44.341   5.792  12.830  0.00  0.00    +0.000 A 
ATOM     19  C   UNL     1      45.110   6.951  12.945  0.00  0.00    +0.000 A 
ATOM     20  C   UNL     1      46.044   7.258  11.960  0.00  0.00    +0.000 A 
ATOM     21  C   UNL     1      46.153   6.455  10.822  0.00  0.00    +0.000 A 
ATOM     22  C   UNL     1      45.389   5.298  10.703  0.00  0.00    +0.000 A 
BRANCH  17  24
ATOM     23  N   UNL     1      43.208   2.715  11.571  0.00  0.00    +0.000 NA
ATOM     24  C   UNL     1      43.772   3.721  11.651  0.00  0.00    +0.000 C 
ENDBRANCH  17  24
ENDBRANCH  16  20
ENDBRANCH   1  16
TORSDOF 5
ENDMDL
MODEL 7
REMARK VINA RESULT:    -5.529      4.883      8.310
REMARK INTER + INTRA:          -8.253
REMARK INTER:                  -7.901
REMARK INTRA:                  -0.353
REMARK UNBOUND:                -1.109
REMARK  Name = 
REMARK  5 active torsions:
REMARK  status: ('A' for Active; 'I' for Inactive)
REMARK    1  A    between atoms: C_2  and  C_3
REMARK    2  A    between atoms: C_6  and  O_7
REMARK    3  A    between atoms: O_7  and  C_8
REMARK    4  A    between atoms: C_8  and  C_9
REMARK    5  A    between atoms: C_13  and  C_14
REMARK                            x       y       z     vdW  Elec       q    Type
REMARK                         _______ _______ _______ _____ _____    ______ ____
ROOT
ATOM      1  C   UNL     1      48.174   4.668  17.000  0.00  0.00    +0.000 C 
ATOM      2  C   UNL     1      47.226   4.797  18.183  0.00  0.00    +0.000 C 
ATOM      3  C   UNL     1      47.301   3.507  17.442  0.00  0.00    +0.000 C 
ENDROOT
BRANCH   1   4
ATOM      4  C   UNL     1      47.892   5.324  15.666  0.00  0.00    +0.000 A 
ATOM      5  C   UNL     1      48.678   6.379  15.199  0.00  0.00    +0.000 A 
ATOM      6  C   UNL     1      48.491   6.838  13.906  0.00  0.00    +0.000 A 
ATOM      7  N   UNL     1      47.569   6.341  13.055  0.00  0.00    +0.000 NA
ATOM      8  C   UNL     1      46.774   5.339  13.499  0.00  0.00    +0.000 A 
ATOM      9  C   UNL     1      46.918   4.820  14.786  0.00  0.00    +0.000 A 
BRANCH   8  10
ATOM     10  C   UNL     1      45.789   4.816  12.536  0.00  0.00    +0.000 A 
ATOM     11  C   UNL     1      45.425   3.462  12.505  0.00  0.00    +0.000 A 
ATOM     12  C   UNL     1      44.486   2.995  11.585  0.00  0.00    +0.000 A 
ATOM     13  C   UNL     1      43.923   3.902  10.705  0.00  0.00    +0.000 A 
ATOM     14  N   UNL     1      44.232   5.213  10.689  0.00  0.00    +0.000 NA
ATOM     15  C   UNL     1      45.155   5.629  11.593  0.00  0.00    +0.000 A 
ENDBRANCH   8  10
ENDBRANCH   1   4
BRANCH   1  16
ATOM     16  O   UNL     1      49.525   4.833  17.479  0.00  0.00    +0.000 OA
BRANCH  16  20
ATOM     17  C   UNL     1      52.281   1.766  17.868  0.00  0.00    +0.000 A 
ATOM     18  C   UNL     1      51.066   1.482  17.235  0.00  0.00    +0.000 A 
ATOM     19  C   UNL     1      50.122   2.492  17.044  0.00  0.00    +0.000 A 
ATOM     20  C   UNL     1      50.391   3.779  17.498  0.00  0.00    +0.000 A 
ATOM     21  C   UNL     1      51.631   4.078  18.068  0.00  0.00    +0.000 A 
ATOM     22  C   UNL     1      52.576   3.074  18.261  0.00  0.00    +0.000 A 
BRANCH  17  24
ATOM     23  N   UNL     1      53.983  -0.117  18.367  0.00  0.00    +0.000 NA
ATOM     24  C   UNL     1      53.210   0.711  18.138  0.00  0.00    +0.000 C 
ENDBRANCH  17  24
ENDBRANCH  16  20
ENDBRANCH   1  16
TORSDOF 5
ENDMDL
MODEL 8
REMARK VINA RESULT:    -5.483      1.908      6.728
REMARK INTER + INTRA:          -8.194
REMARK INTER:                  -7.325
REMARK INTRA:                  -0.869
REMARK UNBOUND:                -1.109
REMARK  Name = 
REMARK  5 active torsions:
REMARK  status: ('A' for Active; 'I' for Inactive)
REMARK    1  A    between atoms: C_2  and  C_3
REMARK    2  A    between atoms: C_6  and  O_7
REMARK    3  A    between atoms: O_7  and  C_8
REMARK    4  A    between atoms: C_8  and  C_9
REMARK    5  A    between atoms: C_13  and  C_14
REMARK                            x       y       z     vdW  Elec       q    Type
REMARK                         _______ _______ _______ _____ _____    ______ ____
ROOT
ATOM      1  C   UNL     1      46.069   4.928  13.148  0.00  0.00    +0.000 C 
ATOM      2  C   UNL     1      45.736   4.312  14.500  0.00  0.00    +0.000 C 
ATOM      3  C   UNL     1      46.950   3.856  13.767  0.00  0.00    +0.000 C 
ENDROOT
BRANCH   1   4
ATOM      4  C   UNL     1      45.288   4.593  11.896  0.00  0.00    +0.000 A 
ATOM      5  C   UNL     1      43.993   5.077  11.702  0.00  0.00    +0.000 A 
ATOM      6  C   UNL     1      43.380   4.888  10.475  0.00  0.00    +0.000 A 
ATOM      7  N   UNL     1      43.949   4.237   9.439  0.00  0.00    +0.000 NA
ATOM      8  C   UNL     1      45.192   3.731   9.617  0.00  0.00    +0.000 A 
ATOM      9  C   UNL     1      45.873   3.898  10.824  0.00  0.00    +0.000 A 
BRANCH   8  10
ATOM     10  C   UNL     1      45.784   3.037   8.459  0.00  0.00    +0.000 A 
ATOM     11  C   UNL     1      46.114   3.714   7.276  0.00  0.00    +0.000 A 
ATOM     12  C   UNL     1      46.676   3.033   6.196  0.00  0.00    +0.000 A 
ATOM     13  C   UNL     1      46.901   1.674   6.324  0.00  0.00    +0.000 A 
ATOM     14  N   UNL     1      46.606   0.971   7.435  0.00  0.00    +0.000 NA
ATOM     15  C   UNL     1      46.052   1.666   8.462  0.00  0.00    +0.000 A 
ENDBRANCH   8  10
ENDBRANCH   1   4
BRANCH   1  16
ATOM     16  O   UNL     1      46.328   6.333  13.341  0.00  0.00    +0.000 OA
BRANCH  16  20
ATOM     17  C   UNL     1      49.931   8.142  12.394  0.00  0.00    +0.000 A 
ATOM     18  C   UNL     1      49.748   7.688  13.705  0.00  0.00    +0.000 A 
ATOM     19  C   UNL     1      48.567   7.036  14.062  0.00  0.00    +0.000 A 
ATOM     20  C   UNL     1      47.568   6.852  13.110  0.00  0.00    +0.000 A 
ATOM     21  C   UNL     1      47.780   7.243  11.786  0.00  0.00    +0.000 A 
ATOM     22  C   UNL     1      48.956   7.894  11.425  0.00  0.00    +0.000 A 
BRANCH  17  24
ATOM     23  N   UNL     1      52.072   9.469  11.805  0.00  0.00    +0.000 NA
ATOM     24  C   UNL     1      51.106   8.885  12.053  0.00  0.00    +0.000 C 
ENDBRANCH  17  24
ENDBRANCH  16  20
ENDBRANCH   1  16
TORSDOF 5
ENDMDL
