MODEL 1
REMARK VINA RESULT:    -8.369      0.000      0.000
REMARK INTER + INTRA:         -12.920
REMARK INTER:                 -11.794
REMARK INTRA:                  -1.126
REMARK UNBOUND:                -1.126
REMARK  Name = 
REMARK  8 active torsions:
REMARK  status: ('A' for Active; 'I' for Inactive)
REMARK    1  A    between atoms: C_1  and  C_2
REMARK    2  A    between atoms: C_5  and  C_6
REMARK    3  A    between atoms: C_6  and  O_7
REMARK    4  A    between atoms: O_7  and  C_8
REMARK    5  A    between atoms: C_8  and  C_9
REMARK    6  A    between atoms: C_12  and  C_13
REMARK    7  A    between atoms: C_13  and  N_14
REMARK    8  A    between atoms: C_15  and  C_17
REMARK                            x       y       z     vdW  Elec       q    Type
REMARK                         _______ _______ _______ _____ _____    ______ ____
ROOT
ATOM      1  C   UNL     1      44.657   5.469  11.913  0.00  0.00    +0.000 A 
ATOM      2  C   UNL     1      44.999   4.864  13.130  0.00  0.00    +0.000 A 
ATOM      3  C   UNL     1      46.191   5.195  13.777  0.00  0.00    +0.000 A 
ATOM      4  C   UNL     1      47.061   6.140  13.218  0.00  0.00    +0.000 A 
ATOM      5  C   UNL     1      46.739   6.710  11.979  0.00  0.00    +0.000 A 
ATOM      6  C   UNL     1      45.545   6.383  11.334  0.00  0.00    +0.000 A 
ENDROOT
BRANCH   1   7
ATOM      7  C   UNL     1      43.328   5.171  11.264  0.00  0.00    +0.000 C 
BRANCH   7   8
ATOM      8  O   UNL     1      43.491   4.581   9.972  0.00  0.00    +0.000 OA
BRANCH   8   9
ATOM      9  C   UNL     1      43.980   3.239  10.038  0.00  0.00    +0.000 C 
BRANCH   9  14
ATOM     10  C   UNL     1      48.045   2.148   6.115  0.00  0.00    +0.000 C 
ATOM     11  C   UNL     1      46.983   2.489   7.114  0.00  0.00    +0.000 A 
ATOM     12  C   UNL     1      46.545   3.799   7.277  0.00  0.00    +0.000 A 
ATOM     13  C   UNL     1      45.565   4.067   8.230  0.00  0.00    +0.000 A 
ATOM     14  C   UNL     1      45.052   3.028   9.009  0.00  0.00    +0.000 A 
ATOM     15  C   UNL     1      45.540   1.751   8.761  0.00  0.00    +0.000 A 
ATOM     16  N   UNL     1      46.487   1.460   7.840  0.00  0.00    +0.000 NA
ENDBRANCH   9  14
ENDBRANCH   8   9
ENDBRANCH   7   8
ENDBRANCH   1   7
BRANCH   4  17
ATOM     17  C   UNL     1      48.330   6.527  13.927  0.00  0.00    +0.000 C 
BRANCH  17  18
ATOM     18  N   UNL     1      48.100   6.784  15.324  0.00  0.00    +0.000 N 
ATOM     19  C   UNL     1      49.079   6.530  16.251  0.00  0.00    +0.000 C 
ATOM     20  O   UNL     1      50.199   6.142  15.925  0.00  0.00    +0.000 OA
ATOM     21  H   UNL     1      47.138   6.900  15.625  0.00  0.00    +0.000 HD
BRANCH  19  22
ATOM     22  C   UNL     1      48.741   6.798  17.653  0.00  0.00    +0.000 A 
ATOM     23  C   UNL     1      48.468   8.098  18.057  0.00  0.00    +0.000 A 
ATOM     24  S   UNL     1      48.068   8.231  19.709  0.00  0.00    +0.000 S 
ATOM     25  C   UNL     1      48.288   6.561  19.952  0.00  0.00    +0.000 A 
ATOM     26  N   UNL     1      48.122   6.006  21.183  0.00  0.00    +0.000 NA
ATOM     27  C   UNL     1      48.346   4.734  21.229  0.00  0.00    +0.000 A 
ATOM     28  N   UNL     1      48.715   3.967  20.155  0.00  0.00    +0.000 N 
ATOM     29  C   UNL     1      48.868   4.479  18.888  0.00  0.00    +0.000 A 
ATOM     30  O   UNL     1      49.155   3.755  17.939  0.00  0.00    +0.000 OA
ATOM     31  C   UNL     1      48.641   5.907  18.784  0.00  0.00    +0.000 A 
ATOM     32  H   UNL     1      48.864   2.974  20.256  0.00  0.00    +0.000 HD
ENDBRANCH  19  22
ENDBRANCH  17  18
ENDBRANCH   4  17
TORSDOF 7
ENDMDL
MODEL 2
REMARK VINA RESULT:    -8.011      1.392      2.141
REMARK INTER + INTRA:         -12.415
REMARK INTER:                 -11.342
REMARK INTRA:                  -1.074
REMARK UNBOUND:                -1.126
REMARK  Name = 
REMARK  8 active torsions:
REMARK  status: ('A' for Active; 'I' for Inactive)
REMARK    1  A    between atoms: C_1  and  C_2
REMARK    2  A    between atoms: C_5  and  C_6
REMARK    3  A    between atoms: C_6  and  O_7
REMARK    4  A    between atoms: O_7  and  C_8
REMARK    5  A    between atoms: C_8  and  C_9
REMARK    6  A    between atoms: C_12  and  C_13
REMARK    7  A    between atoms: C_13  and  N_14
REMARK    8  A    between atoms: C_15  and  C_17
REMARK                            x       y       z     vdW  Elec       q    Type
REMARK                         _______ _______ _______ _____ _____    ______ ____
ROOT
ATOM      1  C   UNL     1      44.619   5.396  11.928  0.00  0.00    +0.000 A 
ATOM      2  C   UNL     1      44.934   4.795  13.154  0.00  0.00    +0.000 A 
ATOM      3  C   UNL     1      46.101   5.145  13.836  0.00  0.00    +0.000 A 
ATOM      4  C   UNL     1      46.972   6.104  13.304  0.00  0.00    +0.000 A 
ATOM      5  C   UNL     1      46.678   6.670  12.056  0.00  0.00    +0.000 A 
ATOM      6  C   UNL     1      45.508   6.325  11.376  0.00  0.00    +0.000 A 
ENDROOT
BRANCH   1   7
ATOM      7  C   UNL     1      43.314   5.078  11.239  0.00  0.00    +0.000 C 
BRANCH   7   8
ATOM      8  O   UNL     1      43.524   4.420   9.987  0.00  0.00    +0.000 OA
BRANCH   8   9
ATOM      9  C   UNL     1      44.216   3.177  10.128  0.00  0.00    +0.000 C 
BRANCH   9  14
ATOM     10  C   UNL     1      47.670   2.579   5.564  0.00  0.00    +0.000 C 
ATOM     11  C   UNL     1      46.786   2.678   6.769  0.00  0.00    +0.000 A 
ATOM     12  C   UNL     1      46.522   1.564   7.559  0.00  0.00    +0.000 A 
ATOM     13  C   UNL     1      45.681   1.705   8.661  0.00  0.00    +0.000 A 
ATOM     14  C   UNL     1      45.111   2.947   8.945  0.00  0.00    +0.000 A 
ATOM     15  C   UNL     1      45.449   4.004   8.108  0.00  0.00    +0.000 A 
ATOM     16  N   UNL     1      46.265   3.899   7.036  0.00  0.00    +0.000 NA
ENDBRANCH   9  14
ENDBRANCH   8   9
ENDBRANCH   7   8
ENDBRANCH   1   7
BRANCH   4  17
ATOM     17  C   UNL     1      48.213   6.510  14.051  0.00  0.00    +0.000 C 
BRANCH  17  18
ATOM     18  N   UNL     1      48.041   6.383  15.474  0.00  0.00    +0.000 N 
ATOM     19  C   UNL     1      49.129   6.256  16.299  0.00  0.00    +0.000 C 
ATOM     20  O   UNL     1      50.280   6.311  15.873  0.00  0.00    +0.000 OA
ATOM     21  H   UNL     1      47.118   6.130  15.812  0.00  0.00    +0.000 HD
BRANCH  19  22
ATOM     22  C   UNL     1      48.852   6.104  17.732  0.00  0.00    +0.000 A 
ATOM     23  C   UNL     1      49.112   4.891  18.357  0.00  0.00    +0.000 A 
ATOM     24  S   UNL     1      48.760   4.892  20.024  0.00  0.00    +0.000 S 
ATOM     25  C   UNL     1      48.207   6.500  19.962  0.00  0.00    +0.000 A 
ATOM     26  N   UNL     1      47.729   7.118  21.076  0.00  0.00    +0.000 NA
ATOM     27  C   UNL     1      47.319   8.327  20.880  0.00  0.00    +0.000 A 
ATOM     28  N   UNL     1      47.348   8.976  19.673  0.00  0.00    +0.000 N 
ATOM     29  C   UNL     1      47.847   8.401  18.527  0.00  0.00    +0.000 A 
ATOM     30  O   UNL     1      47.900   9.026  17.472  0.00  0.00    +0.000 OA
ATOM     31  C   UNL     1      48.308   7.036  18.691  0.00  0.00    +0.000 A 
ATOM     32  H   UNL     1      47.022   9.927  19.589  0.00  0.00    +0.000 HD
ENDBRANCH  19  22
ENDBRANCH  17  18
ENDBRANCH   4  17
TORSDOF 7
ENDMDL
MODEL 3
REMARK VINA RESULT:    -7.240      2.629      3.324
REMARK INTER + INTRA:         -11.329
REMARK INTER:                 -10.990
REMARK INTRA:                  -0.339
REMARK UNBOUND:                -1.126
REMARK  Name = 
REMARK  8 active torsions:
REMARK  status: ('A' for Active; 'I' for Inactive)
REMARK    1  A    between atoms: C_1  and  C_2
REMARK    2  A    between atoms: C_5  and  C_6
REMARK    3  A    between atoms: C_6  and  O_7
REMARK    4  A    between atoms: O_7  and  C_8
REMARK    5  A    between atoms: C_8  and  C_9
REMARK    6  A    between atoms: C_12  and  C_13
REMARK    7  A    between atoms: C_13  and  N_14
REMARK    8  A    between atoms: C_15  and  C_17
REMARK                            x       y       z     vdW  Elec       q    Type
REMARK                         _______ _______ _______ _____ _____    ______ ____
ROOT
ATOM      1  C   UNL     1      46.231   4.444  12.957  0.00  0.00    +0.000 A 
ATOM      2  C   UNL     1      46.706   5.703  12.567  0.00  0.00    +0.000 A 
ATOM      3  C   UNL     1      47.497   6.462  13.432  0.00  0.00    +0.000 A 
ATOM      4  C   UNL     1      47.828   5.973  14.702  0.00  0.00    +0.000 A 
ATOM      5  C   UNL     1      47.314   4.734  15.108  0.00  0.00    +0.000 A 
ATOM      6  C   UNL     1      46.528   3.971  14.241  0.00  0.00    +0.000 A 
ENDROOT
BRANCH   1   7
ATOM      7  C   UNL     1      45.451   3.592  11.987  0.00  0.00    +0.000 C 
BRANCH   7   8
ATOM      8  O   UNL     1      44.101   4.044  11.853  0.00  0.00    +0.000 OA
BRANCH   8   9
ATOM      9  C   UNL     1      43.781   4.433  10.516  0.00  0.00    +0.000 C 
BRANCH   9  14
ATOM     10  C   UNL     1      47.182   1.594   6.844  0.00  0.00    +0.000 C 
ATOM     11  C   UNL     1      46.312   2.384   7.771  0.00  0.00    +0.000 A 
ATOM     12  C   UNL     1      46.340   3.775   7.771  0.00  0.00    +0.000 A 
ATOM     13  C   UNL     1      45.522   4.465   8.663  0.00  0.00    +0.000 A 
ATOM     14  C   UNL     1      44.704   3.757   9.545  0.00  0.00    +0.000 A 
ATOM     15  C   UNL     1      44.732   2.370   9.458  0.00  0.00    +0.000 A 
ATOM     16  N   UNL     1      45.512   1.674   8.600  0.00  0.00    +0.000 NA
ENDBRANCH   9  14
ENDBRANCH   8   9
ENDBRANCH   7   8
ENDBRANCH   1   7
BRANCH   4  17
ATOM     17  C   UNL     1      48.709   6.771  15.625  0.00  0.00    +0.000 C 
BRANCH  17  18
ATOM     18  N   UNL     1      49.793   5.977  16.140  0.00  0.00    +0.000 N 
ATOM     19  C   UNL     1      49.772   5.521  17.433  0.00  0.00    +0.000 C 
ATOM     20  O   UNL     1      48.810   5.712  18.175  0.00  0.00    +0.000 OA
ATOM     21  H   UNL     1      50.667   5.990  15.623  0.00  0.00    +0.000 HD
BRANCH  19  22
ATOM     22  C   UNL     1      50.935   4.744  17.875  0.00  0.00    +0.000 A 
ATOM     23  C   UNL     1      51.980   5.384  18.528  0.00  0.00    +0.000 A 
ATOM     24  S   UNL     1      53.238   4.334  18.997  0.00  0.00    +0.000 S 
ATOM     25  C   UNL     1      52.450   2.993  18.306  0.00  0.00    +0.000 A 
ATOM     26  N   UNL     1      53.016   1.757  18.338  0.00  0.00    +0.000 NA
ATOM     27  C   UNL     1      52.322   0.837  17.754  0.00  0.00    +0.000 A 
ATOM     28  N   UNL     1      51.111   1.041  17.145  0.00  0.00    +0.000 N 
ATOM     29  C   UNL     1      50.488   2.267  17.112  0.00  0.00    +0.000 A 
ATOM     30  O   UNL     1      49.382   2.405  16.598  0.00  0.00    +0.000 OA
ATOM     31  C   UNL     1      51.234   3.338  17.743  0.00  0.00    +0.000 A 
ATOM     32  H   UNL     1      50.613   0.276  16.716  0.00  0.00    +0.000 HD
ENDBRANCH  19  22
ENDBRANCH  17  18
ENDBRANCH   4  17
TORSDOF 7
ENDMDL
MODEL 4
REMARK VINA RESULT:    -7.130      4.620      6.899
REMARK INTER + INTRA:         -11.174
REMARK INTER:                 -10.025
REMARK INTRA:                  -1.148
REMARK UNBOUND:                -1.126
REMARK  Name = 
REMARK  8 active torsions:
REMARK  status: ('A' for Active; 'I' for Inactive)
REMARK    1  A    between atoms: C_1  and  C_2
REMARK    2  A    between atoms: C_5  and  C_6
REMARK    3  A    between atoms: C_6  and  O_7
REMARK    4  A    between atoms: O_7  and  C_8
REMARK    5  A    between atoms: C_8  and  C_9
REMARK    6  A    between atoms: C_12  and  C_13
REMARK    7  A    between atoms: C_13  and  N_14
REMARK    8  A    between atoms: C_15  and  C_17
REMARK                            x       y       z     vdW  Elec       q    Type
REMARK                         _______ _______ _______ _____ _____    ______ ____
ROOT
ATOM      1  C   UNL     1      45.137   5.480  12.215  0.00  0.00    +0.000 A 
ATOM      2  C   UNL     1      45.780   6.439  11.422  0.00  0.00    +0.000 A 
ATOM      3  C   UNL     1      47.044   6.919  11.773  0.00  0.00    +0.000 A 
ATOM      4  C   UNL     1      47.687   6.444  12.923  0.00  0.00    +0.000 A 
ATOM      5  C   UNL     1      47.023   5.518  13.739  0.00  0.00    +0.000 A 
ATOM      6  C   UNL     1      45.762   5.034  13.386  0.00  0.00    +0.000 A 
ENDROOT
BRANCH   1   7
ATOM      7  C   UNL     1      43.812   4.902  11.784  0.00  0.00    +0.000 C 
BRANCH   7   8
ATOM      8  O   UNL     1      43.809   4.564  10.395  0.00  0.00    +0.000 OA
BRANCH   8   9
ATOM      9  C   UNL     1      44.045   3.173  10.166  0.00  0.00    +0.000 C 
BRANCH   9  14
ATOM     10  C   UNL     1      47.955   2.199   6.057  0.00  0.00    +0.000 C 
ATOM     11  C   UNL     1      46.931   2.510   7.106  0.00  0.00    +0.000 A 
ATOM     12  C   UNL     1      46.481   3.811   7.307  0.00  0.00    +0.000 A 
ATOM     13  C   UNL     1      45.539   4.050   8.305  0.00  0.00    +0.000 A 
ATOM     14  C   UNL     1      45.076   2.993   9.090  0.00  0.00    +0.000 A 
ATOM     15  C   UNL     1      45.571   1.727   8.802  0.00  0.00    +0.000 A 
ATOM     16  N   UNL     1      46.482   1.464   7.837  0.00  0.00    +0.000 NA
ENDBRANCH   9  14
ENDBRANCH   8   9
ENDBRANCH   7   8
ENDBRANCH   1   7
BRANCH   4  17
ATOM     17  C   UNL     1      49.063   6.931  13.288  0.00  0.00    +0.000 C 
BRANCH  17  18
ATOM     18  N   UNL     1      49.846   7.234  12.119  0.00  0.00    +0.000 N 
ATOM     19  C   UNL     1      50.953   8.038  12.210  0.00  0.00    +0.000 C 
ATOM     20  O   UNL     1      51.355   8.473  13.287  0.00  0.00    +0.000 OA
ATOM     21  H   UNL     1      49.419   7.062  11.214  0.00  0.00    +0.000 HD
BRANCH  19  22
ATOM     22  C   UNL     1      51.670   8.312  10.960  0.00  0.00    +0.000 A 
ATOM     23  C   UNL     1      52.275   7.268  10.272  0.00  0.00    +0.000 A 
ATOM     24  S   UNL     1      53.041   7.753   8.829  0.00  0.00    +0.000 S 
ATOM     25  C   UNL     1      52.628   9.383   9.093  0.00  0.00    +0.000 A 
ATOM     26  N   UNL     1      53.012  10.351   8.219  0.00  0.00    +0.000 NA
ATOM     27  C   UNL     1      52.653  11.546   8.556  0.00  0.00    +0.000 A 
ATOM     28  N   UNL     1      51.941  11.859   9.685  0.00  0.00    +0.000 N 
ATOM     29  C   UNL     1      51.508  10.910  10.582  0.00  0.00    +0.000 A 
ATOM     30  O   UNL     1      50.834  11.219  11.559  0.00  0.00    +0.000 OA
ATOM     31  C   UNL     1      51.898   9.552  10.256  0.00  0.00    +0.000 A 
ATOM     32  H   UNL     1      51.682  12.813   9.885  0.00  0.00    +0.000 HD
ENDBRANCH  19  22
ENDBRANCH  17  18
ENDBRANCH   4  17
TORSDOF 7
ENDMDL
MODEL 5
REMARK VINA RESULT:    -6.989      4.447      6.801
REMARK INTER + INTRA:         -10.976
REMARK INTER:                  -9.977
REMARK INTRA:                  -0.999
REMARK UNBOUND:                -1.126
REMARK  Name = 
REMARK  8 active torsions:
REMARK  status: ('A' for Active; 'I' for Inactive)
REMARK    1  A    between atoms: C_1  and  C_2
REMARK    2  A    between atoms: C_5  and  C_6
REMARK    3  A    between atoms: C_6  and  O_7
REMARK    4  A    between atoms: O_7  and  C_8
REMARK    5  A    between atoms: C_8  and  C_9
REMARK    6  A    between atoms: C_12  and  C_13
REMARK    7  A    between atoms: C_13  and  N_14
REMARK    8  A    between atoms: C_15  and  C_17
REMARK                            x       y       z     vdW  Elec       q    Type
REMARK                         _______ _______ _______ _____ _____    ______ ____
ROOT
ATOM      1  C   UNL     1      45.415   4.685  12.529  0.00  0.00    +0.000 A 
ATOM      2  C   UNL     1      45.701   5.761  11.678  0.00  0.00    +0.000 A 
ATOM      3  C   UNL     1      46.774   6.612  11.947  0.00  0.00    +0.000 A 
ATOM      4  C   UNL     1      47.583   6.400  13.070  0.00  0.00    +0.000 A 
ATOM      5  C   UNL     1      47.268   5.351  13.945  0.00  0.00    +0.000 A 
ATOM      6  C   UNL     1      46.198   4.496  13.674  0.00  0.00    +0.000 A 
ENDROOT
BRANCH   1   7
ATOM      7  C   UNL     1      44.308   3.719  12.187  0.00  0.00    +0.000 C 
BRANCH   7   8
ATOM      8  O   UNL     1      44.706   2.797  11.170  0.00  0.00    +0.000 OA
BRANCH   8   9
ATOM      9  C   UNL     1      44.112   3.085   9.902  0.00  0.00    +0.000 C 
BRANCH   9  14
ATOM     10  C   UNL     1      47.904   2.402   5.627  0.00  0.00    +0.000 C 
ATOM     11  C   UNL     1      46.934   2.526   6.761  0.00  0.00    +0.000 A 
ATOM     12  C   UNL     1      46.677   1.451   7.606  0.00  0.00    +0.000 A 
ATOM     13  C   UNL     1      45.755   1.612   8.638  0.00  0.00    +0.000 A 
ATOM     14  C   UNL     1      45.099   2.833   8.799  0.00  0.00    +0.000 A 
ATOM     15  C   UNL     1      45.436   3.853   7.916  0.00  0.00    +0.000 A 
ATOM     16  N   UNL     1      46.329   3.727   6.909  0.00  0.00    +0.000 NA
ENDBRANCH   9  14
ENDBRANCH   8   9
ENDBRANCH   7   8
ENDBRANCH   1   7
BRANCH   4  17
ATOM     17  C   UNL     1      48.763   7.292  13.346  0.00  0.00    +0.000 C 
BRANCH  17  18
ATOM     18  N   UNL     1      48.928   8.284  12.317  0.00  0.00    +0.000 N 
ATOM     19  C   UNL     1      48.863   9.620  12.619  0.00  0.00    +0.000 C 
ATOM     20  O   UNL     1      48.729  10.021  13.773  0.00  0.00    +0.000 OA
ATOM     21  H   UNL     1      48.831   7.979  11.354  0.00  0.00    +0.000 HD
BRANCH  19  22
ATOM     22  C   UNL     1      49.016  10.555  11.499  0.00  0.00    +0.000 A 
ATOM     23  C   UNL     1      50.287  10.861  11.029  0.00  0.00    +0.000 A 
ATOM     24  S   UNL     1      50.287  11.940   9.710  0.00  0.00    +0.000 S 
ATOM     25  C   UNL     1      48.590  12.071   9.748  0.00  0.00    +0.000 A 
ATOM     26  N   UNL     1      47.932  12.879   8.874  0.00  0.00    +0.000 NA
ATOM     27  C   UNL     1      46.650  12.903   9.031  0.00  0.00    +0.000 A 
ATOM     28  N   UNL     1      45.967  12.188   9.981  0.00  0.00    +0.000 N 
ATOM     29  C   UNL     1      46.587  11.338  10.866  0.00  0.00    +0.000 A 
ATOM     30  O   UNL     1      45.940  10.679  11.674  0.00  0.00    +0.000 OA
ATOM     31  C   UNL     1      48.030  11.286  10.740  0.00  0.00    +0.000 A 
ATOM     32  H   UNL     1      44.961  12.243  10.043  0.00  0.00    +0.000 HD
ENDBRANCH  19  22
ENDBRANCH  17  18
ENDBRANCH   4  17
TORSDOF 7
ENDMDL
MODEL 6
REMARK VINA RESULT:    -6.912      4.956      7.201
REMARK INTER + INTRA:         -10.867
REMARK INTER:                  -9.549
REMARK INTRA:                  -1.319
REMARK UNBOUND:                -1.126
REMARK  Name = 
REMARK  8 active torsions:
REMARK  status: ('A' for Active; 'I' for Inactive)
REMARK    1  A    between atoms: C_1  and  C_2
REMARK    2  A    between atoms: C_5  and  C_6
REMARK    3  A    between atoms: C_6  and  O_7
REMARK    4  A    between atoms: O_7  and  C_8
REMARK    5  A    between atoms: C_8  and  C_9
REMARK    6  A    between atoms: C_12  and  C_13
REMARK    7  A    between atoms: C_13  and  N_14
REMARK    8  A    between atoms: C_15  and  C_17
REMARK                            x       y       z     vdW  Elec       q    Type
REMARK                         _______ _______ _______ _____ _____    ______ ____
ROOT
ATOM      1  C   UNL     1      46.055   5.731  12.433  0.00  0.00    +0.000 A 
ATOM      2  C   UNL     1      46.613   6.544  11.437  0.00  0.00    +0.000 A 
ATOM      3  C   UNL     1      47.874   7.116  11.613  0.00  0.00    +0.000 A 
ATOM      4  C   UNL     1      48.602   6.882  12.786  0.00  0.00    +0.000 A 
ATOM      5  C   UNL     1      48.023   6.106  13.800  0.00  0.00    +0.000 A 
ATOM      6  C   UNL     1      46.764   5.529  13.624  0.00  0.00    +0.000 A 
ENDROOT
BRANCH   1   7
ATOM      7  C   UNL     1      44.731   5.046  12.201  0.00  0.00    +0.000 C 
BRANCH   7   8
ATOM      8  O   UNL     1      44.264   5.236  10.864  0.00  0.00    +0.000 OA
BRANCH   8   9
ATOM      9  C   UNL     1      43.788   4.027  10.269  0.00  0.00    +0.000 C 
BRANCH   9  14
ATOM     10  C   UNL     1      47.635   1.649   6.711  0.00  0.00    +0.000 C 
ATOM     11  C   UNL     1      46.639   2.320   7.606  0.00  0.00    +0.000 A 
ATOM     12  C   UNL     1      46.413   3.690   7.528  0.00  0.00    +0.000 A 
ATOM     13  C   UNL     1      45.487   4.269   8.392  0.00  0.00    +0.000 A 
ATOM     14  C   UNL     1      44.815   3.476   9.324  0.00  0.00    +0.000 A 
ATOM     15  C   UNL     1      45.096   2.114   9.313  0.00  0.00    +0.000 A 
ATOM     16  N   UNL     1      45.985   1.524   8.484  0.00  0.00    +0.000 NA
ENDBRANCH   9  14
ENDBRANCH   8   9
ENDBRANCH   7   8
ENDBRANCH   1   7
BRANCH   4  17
ATOM     17  C   UNL     1      49.976   7.467  12.967  0.00  0.00    +0.000 C 
BRANCH  17  18
ATOM     18  N   UNL     1      50.566   7.834  11.706  0.00  0.00    +0.000 N 
ATOM     19  C   UNL     1      51.540   8.796  11.646  0.00  0.00    +0.000 C 
ATOM     20  O   UNL     1      51.992   9.331  12.657  0.00  0.00    +0.000 OA
ATOM     21  H   UNL     1      50.070   7.564  10.863  0.00  0.00    +0.000 HD
BRANCH  19  22
ATOM     22  C   UNL     1      52.061   9.122  10.314  0.00  0.00    +0.000 A 
ATOM     23  C   UNL     1      51.973  10.425   9.841  0.00  0.00    +0.000 A 
ATOM     24  S   UNL     1      52.647  10.637   8.291  0.00  0.00    +0.000 S 
ATOM     25  C   UNL     1      53.042   8.986   8.177  0.00  0.00    +0.000 A 
ATOM     26  N   UNL     1      53.637   8.485   7.061  0.00  0.00    +0.000 NA
ATOM     27  C   UNL     1      53.857   7.213   7.099  0.00  0.00    +0.000 A 
ATOM     28  N   UNL     1      53.540   6.397   8.154  0.00  0.00    +0.000 N 
ATOM     29  C   UNL     1      52.964   6.863   9.313  0.00  0.00    +0.000 A 
ATOM     30  O   UNL     1      52.735   6.113  10.257  0.00  0.00    +0.000 OA
ATOM     31  C   UNL     1      52.683   8.286   9.315  0.00  0.00    +0.000 A 
ATOM     32  H   UNL     1      53.749   5.410   8.126  0.00  0.00    +0.000 HD
ENDBRANCH  19  22
ENDBRANCH  17  18
ENDBRANCH   4  17
TORSDOF 7
ENDMDL
MODEL 7
REMARK VINA RESULT:    -6.865      2.937      9.045
REMARK INTER + INTRA:         -10.801
REMARK INTER:                  -9.290
REMARK INTRA:                  -1.511
REMARK UNBOUND:                -1.126
REMARK  Name = 
REMARK  8 active torsions:
REMARK  status: ('A' for Active; 'I' for Inactive)
REMARK    1  A    between atoms: C_1  and  C_2
REMARK    2  A    between atoms: C_5  and  C_6
REMARK    3  A    between atoms: C_6  and  O_7
REMARK    4  A    between atoms: O_7  and  C_8
REMARK    5  A    between atoms: C_8  and  C_9
REMARK    6  A    between atoms: C_12  and  C_13
REMARK    7  A    between atoms: C_13  and  N_14
REMARK    8  A    between atoms: C_15  and  C_17
REMARK                            x       y       z     vdW  Elec       q    Type
REMARK                         _______ _______ _______ _____ _____    ______ ____
ROOT
ATOM      1  C   UNL     1      48.884   8.170  15.873  0.00  0.00    +0.000 A 
ATOM      2  C   UNL     1      48.411   9.306  15.202  0.00  0.00    +0.000 A 
ATOM      3  C   UNL     1      47.962   9.214  13.883  0.00  0.00    +0.000 A 
ATOM      4  C   UNL     1      47.975   7.984  13.214  0.00  0.00    +0.000 A 
ATOM      5  C   UNL     1      48.491   6.859  13.872  0.00  0.00    +0.000 A 
ATOM      6  C   UNL     1      48.935   6.948  15.193  0.00  0.00    +0.000 A 
ENDROOT
BRANCH   1   7
ATOM      7  C   UNL     1      49.286   8.259  17.325  0.00  0.00    +0.000 C 
BRANCH   7   8
ATOM      8  O   UNL     1      48.211   7.898  18.194  0.00  0.00    +0.000 OA
BRANCH   8   9
ATOM      9  C   UNL     1      48.571   6.870  19.119  0.00  0.00    +0.000 C 
BRANCH   9  14
ATOM     10  C   UNL     1      49.186   1.768  16.530  0.00  0.00    +0.000 C 
ATOM     11  C   UNL     1      48.965   3.090  17.197  0.00  0.00    +0.000 A 
ATOM     12  C   UNL     1      47.709   3.688  17.209  0.00  0.00    +0.000 A 
ATOM     13  C   UNL     1      47.559   4.926  17.830  0.00  0.00    +0.000 A 
ATOM     14  C   UNL     1      48.663   5.548  18.413  0.00  0.00    +0.000 A 
ATOM     15  C   UNL     1      49.873   4.865  18.366  0.00  0.00    +0.000 A 
ATOM     16  N   UNL     1      50.048   3.662  17.775  0.00  0.00    +0.000 NA
ENDBRANCH   9  14
ENDBRANCH   8   9
ENDBRANCH   7   8
ENDBRANCH   1   7
BRANCH   4  17
ATOM     17  C   UNL     1      47.460   7.872  11.805  0.00  0.00    +0.000 C 
BRANCH  17  18
ATOM     18  N   UNL     1      46.805   6.610  11.579  0.00  0.00    +0.000 N 
ATOM     19  C   UNL     1      45.437   6.533  11.527  0.00  0.00    +0.000 C 
ATOM     20  O   UNL     1      44.725   7.532  11.604  0.00  0.00    +0.000 OA
ATOM     21  H   UNL     1      47.354   5.768  11.721  0.00  0.00    +0.000 HD
BRANCH  19  22
ATOM     22  C   UNL     1      44.862   5.200  11.320  0.00  0.00    +0.000 A 
ATOM     23  C   UNL     1      44.113   4.611  12.330  0.00  0.00    +0.000 A 
ATOM     24  S   UNL     1      43.495   3.077  11.919  0.00  0.00    +0.000 S 
ATOM     25  C   UNL     1      44.243   3.126  10.391  0.00  0.00    +0.000 A 
ATOM     26  N   UNL     1      44.130   2.084   9.524  0.00  0.00    +0.000 NA
ATOM     27  C   UNL     1      44.769   2.244   8.412  0.00  0.00    +0.000 A 
ATOM     28  N   UNL     1      45.506   3.353   8.087  0.00  0.00    +0.000 N 
ATOM     29  C   UNL     1      45.625   4.441   8.920  0.00  0.00    +0.000 A 
ATOM     30  O   UNL     1      46.256   5.437   8.580  0.00  0.00    +0.000 OA
ATOM     31  C   UNL     1      44.937   4.306  10.189  0.00  0.00    +0.000 A 
ATOM     32  H   UNL     1      45.972   3.421   7.195  0.00  0.00    +0.000 HD
ENDBRANCH  19  22
ENDBRANCH  17  18
ENDBRANCH   4  17
TORSDOF 7
ENDMDL
MODEL 8
REMARK VINA RESULT:    -6.860      5.364      9.725
REMARK INTER + INTRA:         -10.794
REMARK INTER:                  -9.969
REMARK INTRA:                  -0.825
REMARK UNBOUND:                -1.126
REMARK  Name = 
REMARK  8 active torsions:
REMARK  status: ('A' for Active; 'I' for Inactive)
REMARK    1  A    between atoms: C_1  and  C_2
REMARK    2  A    between atoms: C_5  and  C_6
REMARK    3  A    between atoms: C_6  and  O_7
REMARK    4  A    between atoms: O_7  and  C_8
REMARK    5  A    between atoms: C_8  and  C_9
REMARK    6  A    between atoms: C_12  and  C_13
REMARK    7  A    between atoms: C_13  and  N_14
REMARK    8  A    between atoms: C_15  and  C_17
REMARK                            x       y       z     vdW  Elec       q    Type
REMARK                         _______ _______ _______ _____ _____    ______ ____
ROOT
ATOM      1  C   UNL     1      51.437   3.176  17.732  0.00  0.00    +0.000 A 
ATOM      2  C   UNL     1      50.751   4.382  17.924  0.00  0.00    +0.000 A 
ATOM      3  C   UNL     1      49.384   4.471  17.653  0.00  0.00    +0.000 A 
ATOM      4  C   UNL     1      48.679   3.353  17.189  0.00  0.00    +0.000 A 
ATOM      5  C   UNL     1      49.377   2.160  16.954  0.00  0.00    +0.000 A 
ATOM      6  C   UNL     1      50.742   2.069  17.229  0.00  0.00    +0.000 A 
ENDROOT
BRANCH   1   7
ATOM      7  C   UNL     1      52.894   3.062  18.107  0.00  0.00    +0.000 C 
BRANCH   7   8
ATOM      8  O   UNL     1      53.307   1.698  18.219  0.00  0.00    +0.000 OA
BRANCH   8   9
ATOM      9  C   UNL     1      54.428   1.393  17.386  0.00  0.00    +0.000 C 
BRANCH   9  14
ATOM     10  C   UNL     1      55.067  -4.326  17.366  0.00  0.00    +0.000 C 
ATOM     11  C   UNL     1      54.907  -2.838  17.310  0.00  0.00    +0.000 A 
ATOM     12  C   UNL     1      55.145  -2.134  16.134  0.00  0.00    +0.000 A 
ATOM     13  C   UNL     1      54.997  -0.749  16.138  0.00  0.00    +0.000 A 
ATOM     14  C   UNL     1      54.629  -0.093  17.314  0.00  0.00    +0.000 A 
ATOM     15  C   UNL     1      54.396  -0.884  18.433  0.00  0.00    +0.000 A 
ATOM     16  N   UNL     1      54.527  -2.230  18.458  0.00  0.00    +0.000 NA
ENDBRANCH   9  14
ENDBRANCH   8   9
ENDBRANCH   7   8
ENDBRANCH   1   7
BRANCH   4  17
ATOM     17  C   UNL     1      47.199   3.433  16.930  0.00  0.00    +0.000 C 
BRANCH  17  18
ATOM     18  N   UNL     1      46.888   4.432  15.942  0.00  0.00    +0.000 N 
ATOM     19  C   UNL     1      47.014   4.155  14.605  0.00  0.00    +0.000 C 
ATOM     20  O   UNL     1      47.331   3.039  14.199  0.00  0.00    +0.000 OA
ATOM     21  H   UNL     1      46.831   5.396  16.255  0.00  0.00    +0.000 HD
BRANCH  19  22
ATOM     22  C   UNL     1      46.700   5.245  13.675  0.00  0.00    +0.000 A 
ATOM     23  C   UNL     1      47.651   6.225  13.420  0.00  0.00    +0.000 A 
ATOM     24  S   UNL     1      47.137   7.401  12.298  0.00  0.00    +0.000 S 
ATOM     25  C   UNL     1      45.609   6.666  12.146  0.00  0.00    +0.000 A 
ATOM     26  N   UNL     1      44.655   7.199  11.337  0.00  0.00    +0.000 NA
ATOM     27  C   UNL     1      43.535   6.554  11.336  0.00  0.00    +0.000 A 
ATOM     28  N   UNL     1      43.285   5.423  12.069  0.00  0.00    +0.000 N 
ATOM     29  C   UNL     1      44.228   4.833  12.879  0.00  0.00    +0.000 A 
ATOM     30  O   UNL     1      43.985   3.795  13.485  0.00  0.00    +0.000 OA
ATOM     31  C   UNL     1      45.500   5.527  12.925  0.00  0.00    +0.000 A 
ATOM     32  H   UNL     1      42.391   4.959  12.014  0.00  0.00    +0.000 HD
ENDBRANCH  19  22
ENDBRANCH  17  18
ENDBRANCH   4  17
TORSDOF 7
ENDMDL
MODEL 9
REMARK VINA RESULT:    -6.802      2.975      3.876
REMARK INTER + INTRA:         -10.712
REMARK INTER:                  -9.616
REMARK INTRA:                  -1.095
REMARK UNBOUND:                -1.126
REMARK  Name = 
REMARK  8 active torsions:
REMARK  status: ('A' for Active; 'I' for Inactive)
REMARK    1  A    between atoms: C_1  and  C_2
REMARK    2  A    between atoms: C_5  and  C_6
REMARK    3  A    between atoms: C_6  and  O_7
REMARK    4  A    between atoms: O_7  and  C_8
REMARK    5  A    between atoms: C_8  and  C_9
REMARK    6  A    between atoms: C_12  and  C_13
REMARK    7  A    between atoms: C_13  and  N_14
REMARK    8  A    between atoms: C_15  and  C_17
REMARK                            x       y       z     vdW  Elec       q    Type
REMARK                         _______ _______ _______ _____ _____    ______ ____
ROOT
ATOM      1  C   UNL     1      44.561   4.846  11.554  0.00  0.00    +0.000 A 
ATOM      2  C   UNL     1      44.561   5.343  12.864  0.00  0.00    +0.000 A 
ATOM      3  C   UNL     1      45.434   6.367  13.235  0.00  0.00    +0.000 A 
ATOM      4  C   UNL     1      46.320   6.916  12.299  0.00  0.00    +0.000 A 
ATOM      5  C   UNL     1      46.350   6.388  11.001  0.00  0.00    +0.000 A 
ATOM      6  C   UNL     1      45.474   5.366  10.628  0.00  0.00    +0.000 A 
ENDROOT
BRANCH   1   7
ATOM      7  C   UNL     1      43.557   3.800  11.138  0.00  0.00    +0.000 C 
BRANCH   7   8
ATOM      8  O   UNL     1      43.750   3.392   9.781  0.00  0.00    +0.000 OA
BRANCH   8   9
ATOM      9  C   UNL     1      44.534   2.203   9.670  0.00  0.00    +0.000 C 
BRANCH   9  14
ATOM     10  C   UNL     1      48.103   2.287   5.156  0.00  0.00    +0.000 C 
ATOM     11  C   UNL     1      47.151   2.318   6.312  0.00  0.00    +0.000 A 
ATOM     12  C   UNL     1      46.388   3.449   6.583  0.00  0.00    +0.000 A 
ATOM     13  C   UNL     1      45.527   3.433   7.679  0.00  0.00    +0.000 A 
ATOM     14  C   UNL     1      45.455   2.299   8.488  0.00  0.00    +0.000 A 
ATOM     15  C   UNL     1      46.243   1.212   8.127  0.00  0.00    +0.000 A 
ATOM     16  N   UNL     1      47.083   1.197   7.067  0.00  0.00    +0.000 NA
ENDBRANCH   9  14
ENDBRANCH   8   9
ENDBRANCH   7   8
ENDBRANCH   1   7
BRANCH   4  17
ATOM     17  C   UNL     1      47.238   8.045  12.683  0.00  0.00    +0.000 C 
BRANCH  17  18
ATOM     18  N   UNL     1      48.374   7.573  13.430  0.00  0.00    +0.000 N 
ATOM     19  C   UNL     1      48.622   8.043  14.694  0.00  0.00    +0.000 C 
ATOM     20  O   UNL     1      47.861   8.826  15.258  0.00  0.00    +0.000 OA
ATOM     21  H   UNL     1      49.109   7.101  12.913  0.00  0.00    +0.000 HD
BRANCH  19  22
ATOM     22  C   UNL     1      49.818   7.524  15.365  0.00  0.00    +0.000 A 
ATOM     23  C   UNL     1      49.683   6.771  16.524  0.00  0.00    +0.000 A 
ATOM     24  S   UNL     1      51.166   6.223  17.161  0.00  0.00    +0.000 S 
ATOM     25  C   UNL     1      52.045   7.009  15.934  0.00  0.00    +0.000 A 
ATOM     26  N   UNL     1      53.404   6.958  15.907  0.00  0.00    +0.000 NA
ATOM     27  C   UNL     1      53.943   7.620  14.937  0.00  0.00    +0.000 A 
ATOM     28  N   UNL     1      53.245   8.323  13.989  0.00  0.00    +0.000 N 
ATOM     29  C   UNL     1      51.871   8.379  13.961  0.00  0.00    +0.000 A 
ATOM     30  O   UNL     1      51.277   8.981  13.072  0.00  0.00    +0.000 OA
ATOM     31  C   UNL     1      51.217   7.663  15.039  0.00  0.00    +0.000 A 
ATOM     32  H   UNL     1      53.727   8.810  13.249  0.00  0.00    +0.000 HD
ENDBRANCH  19  22
ENDBRANCH  17  18
ENDBRANCH   4  17
TORSDOF 7
ENDMDL
