MODEL 1
REMARK VINA RESULT:    -8.249      0.000      0.000
REMARK INTER + INTRA:         -11.984
REMARK INTER:                 -11.142
REMARK INTRA:                  -0.842
REMARK UNBOUND:                -0.842
REMARK  Name = 
REMARK  6 active torsions:
REMARK  status: ('A' for Active; 'I' for Inactive)
REMARK    1  A    between atoms: C_2  and  C_4
REMARK    2  A    between atoms: C_7  and  O_8
REMARK    3  A    between atoms: O_8  and  C_9
REMARK    4  A    between atoms: C_9  and  C_10
REMARK    5  A    between atoms: C_10  and  C_11
REMARK    6  A    between atoms: C_15  and  C_16
REMARK                            x       y       z     vdW  Elec       q    Type
REMARK                         _______ _______ _______ _____ _____    ______ ____
ROOT
ATOM      1  C   UNL     1      44.915   4.469  12.855  0.00  0.00    +0.000 A 
ATOM      2  C   UNL     1      46.048   3.798  13.286  0.00  0.00    +0.000 A 
ATOM      3  N   UNL     1      47.249   4.387  13.460  0.00  0.00    +0.000 NA
ATOM      4  C   UNL     1      47.322   5.713  13.185  0.00  0.00    +0.000 A 
ATOM      5  C   UNL     1      46.265   6.505  12.729  0.00  0.00    +0.000 A 
ATOM      6  C   UNL     1      45.042   5.835  12.564  0.00  0.00    +0.000 A 
ENDROOT
BRANCH   5   7
ATOM      7  C   UNL     1      46.418   7.947  12.440  0.00  0.00    +0.000 A 
ATOM      8  C   UNL     1      47.674   8.537  12.250  0.00  0.00    +0.000 A 
ATOM      9  C   UNL     1      47.752   9.894  11.973  0.00  0.00    +0.000 A 
ATOM     10  N   UNL     1      46.679  10.703  11.859  0.00  0.00    +0.000 NA
ATOM     11  C   UNL     1      45.476  10.145  12.035  0.00  0.00    +0.000 A 
ATOM     12  N   UNL     1      44.369  10.969  11.844  0.00  0.00    +0.000 N 
ATOM     13  C   UNL     1      45.305   8.797  12.325  0.00  0.00    +0.000 A 
ATOM     14  H   UNL     1      44.722  11.912  11.703  0.00  0.00    +0.000 HD
ATOM     15  H   UNL     1      43.711  10.914  12.611  0.00  0.00    +0.000 HD
ENDBRANCH   5   7
BRANCH   1  16
ATOM     16  C   UNL     1      43.606   3.756  12.677  0.00  0.00    +0.000 C 
BRANCH  16  17
ATOM     17  C   UNL     1      43.602   2.830  11.463  0.00  0.00    +0.000 C 
BRANCH  17  18
ATOM     18  O   UNL     1      43.545   3.654  10.298  0.00  0.00    +0.000 OA
BRANCH  18  22
ATOM     19  C   UNL     1      46.391   2.655   7.559  0.00  0.00    +0.000 A 
ATOM     20  C   UNL     1      45.875   1.761   8.468  0.00  0.00    +0.000 A 
ATOM     21  N   UNL     1      44.940   2.085   9.387  0.00  0.00    +0.000 NA
ATOM     22  C   UNL     1      44.548   3.368   9.401  0.00  0.00    +0.000 A 
ATOM     23  N   UNL     1      45.000   4.331   8.579  0.00  0.00    +0.000 NA
ATOM     24  C   UNL     1      45.927   3.947   7.672  0.00  0.00    +0.000 A 
BRANCH  19  26
ATOM     25  N   UNL     1      47.427   3.068   5.402  0.00  0.00    +0.000 N 
ATOM     26  C   UNL     1      47.384   2.304   6.535  0.00  0.00    +0.000 C 
ATOM     27  O   UNL     1      48.171   1.384   6.710  0.00  0.00    +0.000 OA
ATOM     28  H   UNL     1      48.187   2.874   4.760  0.00  0.00    +0.000 HD
ATOM     29  H   UNL     1      46.982   3.973   5.320  0.00  0.00    +0.000 HD
ENDBRANCH  19  26
ENDBRANCH  18  22
ENDBRANCH  17  18
ENDBRANCH  16  17
ENDBRANCH   1  16
TORSDOF 6
ENDMDL
MODEL 2
REMARK VINA RESULT:    -7.939      2.967      7.498
REMARK INTER + INTRA:         -11.565
REMARK INTER:                 -10.722
REMARK INTRA:                  -0.843
REMARK UNBOUND:                -0.842
REMARK  Name = 
REMARK  6 active torsions:
REMARK  status: ('A' for Active; 'I' for Inactive)
REMARK    1  A    between atoms: C_2  and  C_4
REMARK    2  A    between atoms: C_7  and  O_8
REMARK    3  A    between atoms: O_8  and  C_9
REMARK    4  A    between atoms: C_9  and  C_10
REMARK    5  A    between atoms: C_10  and  C_11
REMARK    6  A    between atoms: C_15  and  C_16
REMARK                            x       y       z     vdW  Elec       q    Type
REMARK                         _______ _______ _______ _____ _____    ______ ____
ROOT
ATOM      1  C   UNL     1      44.643   5.404  10.713  0.00  0.00    +0.000 A 
ATOM      2  C   UNL     1      43.589   4.743  11.324  0.00  0.00    +0.000 A 
ATOM      3  N   UNL     1      43.254   3.464  11.061  0.00  0.00    +0.000 NA
ATOM      4  C   UNL     1      44.007   2.812  10.141  0.00  0.00    +0.000 A 
ATOM      5  C   UNL     1      45.084   3.362   9.441  0.00  0.00    +0.000 A 
ATOM      6  C   UNL     1      45.383   4.698   9.754  0.00  0.00    +0.000 A 
ENDROOT
BRANCH   5   7
ATOM      7  C   UNL     1      45.858   2.595   8.442  0.00  0.00    +0.000 A 
ATOM      8  C   UNL     1      45.985   1.201   8.511  0.00  0.00    +0.000 A 
ATOM      9  C   UNL     1      46.717   0.536   7.538  0.00  0.00    +0.000 A 
ATOM     10  N   UNL     1      47.322   1.149   6.499  0.00  0.00    +0.000 NA
ATOM     11  C   UNL     1      47.201   2.480   6.425  0.00  0.00    +0.000 A 
ATOM     12  N   UNL     1      47.765   3.099   5.312  0.00  0.00    +0.000 N 
ATOM     13  C   UNL     1      46.495   3.227   7.360  0.00  0.00    +0.000 A 
ATOM     14  H   UNL     1      48.276   2.383   4.801  0.00  0.00    +0.000 HD
ATOM     15  H   UNL     1      48.350   3.885   5.563  0.00  0.00    +0.000 HD
ENDBRANCH   5   7
BRANCH   1  16
ATOM     16  C   UNL     1      44.966   6.832  11.045  0.00  0.00    +0.000 C 
BRANCH  16  17
ATOM     17  C   UNL     1      45.656   6.979  12.399  0.00  0.00    +0.000 C 
BRANCH  17  18
ATOM     18  O   UNL     1      46.950   6.386  12.286  0.00  0.00    +0.000 OA
BRANCH  18  22
ATOM     19  C   UNL     1      47.683   3.991  15.499  0.00  0.00    +0.000 A 
ATOM     20  C   UNL     1      48.094   5.302  15.429  0.00  0.00    +0.000 A 
ATOM     21  N   UNL     1      47.865   6.101  14.364  0.00  0.00    +0.000 NA
ATOM     22  C   UNL     1      47.231   5.532  13.327  0.00  0.00    +0.000 A 
ATOM     23  N   UNL     1      46.807   4.258  13.275  0.00  0.00    +0.000 NA
ATOM     24  C   UNL     1      47.053   3.507  14.373  0.00  0.00    +0.000 A 
BRANCH  19  26
ATOM     25  N   UNL     1      46.872   2.999  17.561  0.00  0.00    +0.000 N 
ATOM     26  C   UNL     1      47.898   3.125  16.666  0.00  0.00    +0.000 C 
ATOM     27  O   UNL     1      48.944   2.507  16.808  0.00  0.00    +0.000 OA
ATOM     28  H   UNL     1      47.005   2.316  18.299  0.00  0.00    +0.000 HD
ATOM     29  H   UNL     1      45.920   3.278  17.365  0.00  0.00    +0.000 HD
ENDBRANCH  19  26
ENDBRANCH  18  22
ENDBRANCH  17  18
ENDBRANCH  16  17
ENDBRANCH   1  16
TORSDOF 6
ENDMDL
MODEL 3
REMARK VINA RESULT:    -7.882      2.684      4.605
REMARK INTER + INTRA:         -11.489
REMARK INTER:                 -10.945
REMARK INTRA:                  -0.544
REMARK UNBOUND:                -0.842
REMARK  Name = 
REMARK  6 active torsions:
REMARK  status: ('A' for Active; 'I' for Inactive)
REMARK    1  A    between atoms: C_2  and  C_4
REMARK    2  A    between atoms: C_7  and  O_8
REMARK    3  A    between atoms: O_8  and  C_9
REMARK    4  A    between atoms: C_9  and  C_10
REMARK    5  A    between atoms: C_10  and  C_11
REMARK    6  A    between atoms: C_15  and  C_16
REMARK                            x       y       z     vdW  Elec       q    Type
REMARK                         _______ _______ _______ _____ _____    ______ ____
ROOT
ATOM      1  C   UNL     1      45.914   5.093  12.776  0.00  0.00    +0.000 A 
ATOM      2  C   UNL     1      46.542   6.232  12.300  0.00  0.00    +0.000 A 
ATOM      3  N   UNL     1      47.538   6.867  12.950  0.00  0.00    +0.000 NA
ATOM      4  C   UNL     1      47.926   6.338  14.137  0.00  0.00    +0.000 A 
ATOM      5  C   UNL     1      47.369   5.207  14.739  0.00  0.00    +0.000 A 
ATOM      6  C   UNL     1      46.334   4.592  14.017  0.00  0.00    +0.000 A 
ENDROOT
BRANCH   5   7
ATOM      7  C   UNL     1      47.836   4.689  16.043  0.00  0.00    +0.000 A 
ATOM      8  C   UNL     1      47.277   3.546  16.630  0.00  0.00    +0.000 A 
ATOM      9  C   UNL     1      47.764   3.103  17.852  0.00  0.00    +0.000 A 
ATOM     10  N   UNL     1      48.768   3.701  18.525  0.00  0.00    +0.000 NA
ATOM     11  C   UNL     1      49.309   4.791  17.967  0.00  0.00    +0.000 A 
ATOM     12  N   UNL     1      50.393   5.362  18.630  0.00  0.00    +0.000 N 
ATOM     13  C   UNL     1      48.878   5.310  16.753  0.00  0.00    +0.000 A 
ATOM     14  H   UNL     1      50.496   4.867  19.513  0.00  0.00    +0.000 HD
ATOM     15  H   UNL     1      50.284   6.359  18.759  0.00  0.00    +0.000 HD
ENDBRANCH   5   7
BRANCH   1  16
ATOM     16  C   UNL     1      44.806   4.433  12.008  0.00  0.00    +0.000 C 
BRANCH  16  17
ATOM     17  C   UNL     1      44.219   5.340  10.928  0.00  0.00    +0.000 C 
BRANCH  17  18
ATOM     18  O   UNL     1      43.686   4.497   9.906  0.00  0.00    +0.000 OA
BRANCH  18  22
ATOM     19  C   UNL     1      46.445   2.487   7.681  0.00  0.00    +0.000 A 
ATOM     20  C   UNL     1      45.608   1.868   8.582  0.00  0.00    +0.000 A 
ATOM     21  N   UNL     1      44.699   2.527   9.331  0.00  0.00    +0.000 NA
ATOM     22  C   UNL     1      44.668   3.859   9.184  0.00  0.00    +0.000 A 
ATOM     23  N   UNL     1      45.452   4.571   8.355  0.00  0.00    +0.000 NA
ATOM     24  C   UNL     1      46.337   3.859   7.620  0.00  0.00    +0.000 A 
BRANCH  19  26
ATOM     25  N   UNL     1      48.519   2.462   6.420  0.00  0.00    +0.000 N 
ATOM     26  C   UNL     1      47.414   1.775   6.838  0.00  0.00    +0.000 C 
ATOM     27  O   UNL     1      47.256   0.595   6.555  0.00  0.00    +0.000 OA
ATOM     28  H   UNL     1      49.223   1.922   5.930  0.00  0.00    +0.000 HD
ATOM     29  H   UNL     1      48.819   3.339   6.825  0.00  0.00    +0.000 HD
ENDBRANCH  19  26
ENDBRANCH  18  22
ENDBRANCH  17  18
ENDBRANCH  16  17
ENDBRANCH   1  16
TORSDOF 6
ENDMDL
MODEL 4
REMARK VINA RESULT:    -7.845      1.060      1.728
REMARK INTER + INTRA:         -11.438
REMARK INTER:                 -10.685
REMARK INTRA:                  -0.754
REMARK UNBOUND:                -0.842
REMARK  Name = 
REMARK  6 active torsions:
REMARK  status: ('A' for Active; 'I' for Inactive)
REMARK    1  A    between atoms: C_2  and  C_4
REMARK    2  A    between atoms: C_7  and  O_8
REMARK    3  A    between atoms: O_8  and  C_9
REMARK    4  A    between atoms: C_9  and  C_10
REMARK    5  A    between atoms: C_10  and  C_11
REMARK    6  A    between atoms: C_15  and  C_16
REMARK                            x       y       z     vdW  Elec       q    Type
REMARK                         _______ _______ _______ _____ _____    ______ ____
ROOT
ATOM      1  C   UNL     1      45.236   5.039  12.836  0.00  0.00    +0.000 A 
ATOM      2  C   UNL     1      46.131   4.288  13.582  0.00  0.00    +0.000 A 
ATOM      3  N   UNL     1      47.365   4.714  13.923  0.00  0.00    +0.000 NA
ATOM      4  C   UNL     1      47.722   5.951  13.497  0.00  0.00    +0.000 A 
ATOM      5  C   UNL     1      46.927   6.803  12.727  0.00  0.00    +0.000 A 
ATOM      6  C   UNL     1      45.656   6.304  12.400  0.00  0.00    +0.000 A 
ENDROOT
BRANCH   5   7
ATOM      7  C   UNL     1      47.385   8.139  12.288  0.00  0.00    +0.000 A 
ATOM      8  C   UNL     1      46.532   9.250  12.277  0.00  0.00    +0.000 A 
ATOM      9  C   UNL     1      47.023  10.479  11.863  0.00  0.00    +0.000 A 
ATOM     10  N   UNL     1      48.296  10.690  11.471  0.00  0.00    +0.000 NA
ATOM     11  C   UNL     1      49.118   9.633  11.484  0.00  0.00    +0.000 A 
ATOM     12  N   UNL     1      50.449   9.871  11.149  0.00  0.00    +0.000 N 
ATOM     13  C   UNL     1      48.709   8.364  11.874  0.00  0.00    +0.000 A 
ATOM     14  H   UNL     1      50.510  10.839  10.842  0.00  0.00    +0.000 HD
ATOM     15  H   UNL     1      50.791   9.224  10.450  0.00  0.00    +0.000 HD
ENDBRANCH   5   7
BRANCH   1  16
ATOM     16  C   UNL     1      43.877   4.508  12.484  0.00  0.00    +0.000 C 
BRANCH  16  17
ATOM     17  C   UNL     1      43.942   3.182  11.728  0.00  0.00    +0.000 C 
BRANCH  17  18
ATOM     18  O   UNL     1      43.528   3.436  10.385  0.00  0.00    +0.000 OA
BRANCH  18  22
ATOM     19  C   UNL     1      46.374   2.615   7.588  0.00  0.00    +0.000 A 
ATOM     20  C   UNL     1      45.845   1.661   8.427  0.00  0.00    +0.000 A 
ATOM     21  N   UNL     1      44.910   1.925   9.364  0.00  0.00    +0.000 NA
ATOM     22  C   UNL     1      44.531   3.207   9.472  0.00  0.00    +0.000 A 
ATOM     23  N   UNL     1      44.995   4.224   8.726  0.00  0.00    +0.000 NA
ATOM     24  C   UNL     1      45.922   3.900   7.795  0.00  0.00    +0.000 A 
BRANCH  19  26
ATOM     25  N   UNL     1      47.369   3.130   5.434  0.00  0.00    +0.000 N 
ATOM     26  C   UNL     1      47.367   2.331   6.544  0.00  0.00    +0.000 C 
ATOM     27  O   UNL     1      48.189   1.436   6.683  0.00  0.00    +0.000 OA
ATOM     28  H   UNL     1      48.128   2.982   4.779  0.00  0.00    +0.000 HD
ATOM     29  H   UNL     1      46.890   4.019   5.384  0.00  0.00    +0.000 HD
ENDBRANCH  19  26
ENDBRANCH  18  22
ENDBRANCH  17  18
ENDBRANCH  16  17
ENDBRANCH   1  16
TORSDOF 6
ENDMDL
MODEL 5
REMARK VINA RESULT:    -7.575      2.146      2.596
REMARK INTER + INTRA:         -11.075
REMARK INTER:                 -10.523
REMARK INTRA:                  -0.552
REMARK UNBOUND:                -0.842
REMARK  Name = 
REMARK  6 active torsions:
REMARK  status: ('A' for Active; 'I' for Inactive)
REMARK    1  A    between atoms: C_2  and  C_4
REMARK    2  A    between atoms: C_7  and  O_8
REMARK    3  A    between atoms: O_8  and  C_9
REMARK    4  A    between atoms: C_9  and  C_10
REMARK    5  A    between atoms: C_10  and  C_11
REMARK    6  A    between atoms: C_15  and  C_16
REMARK                            x       y       z     vdW  Elec       q    Type
REMARK                         _______ _______ _______ _____ _____    ______ ____
ROOT
ATOM      1  C   UNL     1      45.826   5.659  12.372  0.00  0.00    +0.000 A 
ATOM      2  C   UNL     1      45.776   4.471  13.084  0.00  0.00    +0.000 A 
ATOM      3  N   UNL     1      46.526   4.219  14.177  0.00  0.00    +0.000 NA
ATOM      4  C   UNL     1      47.369   5.203  14.578  0.00  0.00    +0.000 A 
ATOM      5  C   UNL     1      47.530   6.438  13.945  0.00  0.00    +0.000 A 
ATOM      6  C   UNL     1      46.726   6.641  12.812  0.00  0.00    +0.000 A 
ENDROOT
BRANCH   5   7
ATOM      7  C   UNL     1      48.477   7.464  14.432  0.00  0.00    +0.000 A 
ATOM      8  C   UNL     1      49.850   7.210  14.551  0.00  0.00    +0.000 A 
ATOM      9  C   UNL     1      50.690   8.217  15.006  0.00  0.00    +0.000 A 
ATOM     10  N   UNL     1      50.271   9.455  15.339  0.00  0.00    +0.000 NA
ATOM     11  C   UNL     1      48.961   9.705  15.223  0.00  0.00    +0.000 A 
ATOM     12  N   UNL     1      48.546  11.006  15.498  0.00  0.00    +0.000 N 
ATOM     13  C   UNL     1      48.048   8.755  14.786  0.00  0.00    +0.000 A 
ATOM     14  H   UNL     1      49.356  11.508  15.854  0.00  0.00    +0.000 HD
ATOM     15  H   UNL     1      47.764  11.033  16.140  0.00  0.00    +0.000 HD
ENDBRANCH   5   7
BRANCH   1  16
ATOM     16  C   UNL     1      44.969   5.879  11.160  0.00  0.00    +0.000 C 
BRANCH  16  17
ATOM     17  C   UNL     1      43.856   4.841  11.032  0.00  0.00    +0.000 C 
BRANCH  17  18
ATOM     18  O   UNL     1      43.607   4.652   9.638  0.00  0.00    +0.000 OA
BRANCH  18  22
ATOM     19  C   UNL     1      46.438   2.443   7.712  0.00  0.00    +0.000 A 
ATOM     20  C   UNL     1      45.570   1.912   8.638  0.00  0.00    +0.000 A 
ATOM     21  N   UNL     1      44.636   2.637   9.290  0.00  0.00    +0.000 NA
ATOM     22  C   UNL     1      44.613   3.950   9.014  0.00  0.00    +0.000 A 
ATOM     23  N   UNL     1      45.426   4.581   8.149  0.00  0.00    +0.000 NA
ATOM     24  C   UNL     1      46.334   3.803   7.517  0.00  0.00    +0.000 A 
BRANCH  19  26
ATOM     25  N   UNL     1      48.505   2.321   6.444  0.00  0.00    +0.000 N 
ATOM     26  C   UNL     1      47.435   1.656   6.974  0.00  0.00    +0.000 C 
ATOM     27  O   UNL     1      47.329   0.441   6.874  0.00  0.00    +0.000 OA
ATOM     28  H   UNL     1      49.230   1.744   6.033  0.00  0.00    +0.000 HD
ATOM     29  H   UNL     1      48.766   3.261   6.708  0.00  0.00    +0.000 HD
ENDBRANCH  19  26
ENDBRANCH  18  22
ENDBRANCH  17  18
ENDBRANCH  16  17
ENDBRANCH   1  16
TORSDOF 6
ENDMDL
MODEL 6
REMARK VINA RESULT:    -7.568      1.572      2.499
REMARK INTER + INTRA:         -11.064
REMARK INTER:                 -10.360
REMARK INTRA:                  -0.704
REMARK UNBOUND:                -0.842
REMARK  Name = 
REMARK  6 active torsions:
REMARK  status: ('A' for Active; 'I' for Inactive)
REMARK    1  A    between atoms: C_2  and  C_4
REMARK    2  A    between atoms: C_7  and  O_8
REMARK    3  A    between atoms: O_8  and  C_9
REMARK    4  A    between atoms: C_9  and  C_10
REMARK    5  A    between atoms: C_10  and  C_11
REMARK    6  A    between atoms: C_15  and  C_16
REMARK                            x       y       z     vdW  Elec       q    Type
REMARK                         _______ _______ _______ _____ _____    ______ ____
ROOT
ATOM      1  C   UNL     1      46.205   5.774  12.550  0.00  0.00    +0.000 A 
ATOM      2  C   UNL     1      47.061   5.182  13.466  0.00  0.00    +0.000 A 
ATOM      3  N   UNL     1      48.179   5.772  13.937  0.00  0.00    +0.000 NA
ATOM      4  C   UNL     1      48.456   7.014  13.469  0.00  0.00    +0.000 A 
ATOM      5  C   UNL     1      47.691   7.717  12.536  0.00  0.00    +0.000 A 
ATOM      6  C   UNL     1      46.542   7.051  12.079  0.00  0.00    +0.000 A 
ENDROOT
BRANCH   5   7
ATOM      7  C   UNL     1      48.059   9.068  12.061  0.00  0.00    +0.000 A 
ATOM      8  C   UNL     1      47.167  10.147  12.130  0.00  0.00    +0.000 A 
ATOM      9  C   UNL     1      47.574  11.394  11.677  0.00  0.00    +0.000 A 
ATOM     10  N   UNL     1      48.798  11.651  11.173  0.00  0.00    +0.000 NA
ATOM     11  C   UNL     1      49.656  10.625  11.109  0.00  0.00    +0.000 A 
ATOM     12  N   UNL     1      50.942  10.912  10.657  0.00  0.00    +0.000 N 
ATOM     13  C   UNL     1      49.331   9.342  11.530  0.00  0.00    +0.000 A 
ATOM     14  H   UNL     1      50.940  11.881  10.349  0.00  0.00    +0.000 HD
ATOM     15  H   UNL     1      51.245  10.277   9.929  0.00  0.00    +0.000 HD
ENDBRANCH   5   7
BRANCH   1  16
ATOM     16  C   UNL     1      44.977   5.064  12.059  0.00  0.00    +0.000 C 
BRANCH  16  17
ATOM     17  C   UNL     1      44.511   5.572  10.696  0.00  0.00    +0.000 C 
BRANCH  17  18
ATOM     18  O   UNL     1      43.829   4.496  10.050  0.00  0.00    +0.000 OA
BRANCH  18  22
ATOM     19  C   UNL     1      46.437   2.461   7.672  0.00  0.00    +0.000 A 
ATOM     20  C   UNL     1      46.239   3.820   7.582  0.00  0.00    +0.000 A 
ATOM     21  N   UNL     1      45.369   4.502   8.358  0.00  0.00    +0.000 NA
ATOM     22  C   UNL     1      44.655   3.769   9.225  0.00  0.00    +0.000 A 
ATOM     23  N   UNL     1      44.746   2.437   9.383  0.00  0.00    +0.000 NA
ATOM     24  C   UNL     1      45.641   1.807   8.587  0.00  0.00    +0.000 A 
BRANCH  19  26
ATOM     25  N   UNL     1      48.494   2.395   6.384  0.00  0.00    +0.000 N 
ATOM     26  C   UNL     1      47.405   1.716   6.856  0.00  0.00    +0.000 C 
ATOM     27  O   UNL     1      47.259   0.521   6.641  0.00  0.00    +0.000 OA
ATOM     28  H   UNL     1      49.199   1.837   5.915  0.00  0.00    +0.000 HD
ATOM     29  H   UNL     1      48.786   3.297   6.735  0.00  0.00    +0.000 HD
ENDBRANCH  19  26
ENDBRANCH  18  22
ENDBRANCH  17  18
ENDBRANCH  16  17
ENDBRANCH   1  16
TORSDOF 6
ENDMDL
MODEL 7
REMARK VINA RESULT:    -7.329      2.223      3.364
REMARK INTER + INTRA:         -10.741
REMARK INTER:                 -10.366
REMARK INTRA:                  -0.376
REMARK UNBOUND:                -0.842
REMARK  Name = 
REMARK  6 active torsions:
REMARK  status: ('A' for Active; 'I' for Inactive)
REMARK    1  A    between atoms: C_2  and  C_4
REMARK    2  A    between atoms: C_7  and  O_8
REMARK    3  A    between atoms: O_8  and  C_9
REMARK    4  A    between atoms: C_9  and  C_10
REMARK    5  A    between atoms: C_10  and  C_11
REMARK    6  A    between atoms: C_15  and  C_16
REMARK                            x       y       z     vdW  Elec       q    Type
REMARK                         _______ _______ _______ _____ _____    ______ ____
ROOT
ATOM      1  C   UNL     1      45.631   6.301  11.556  0.00  0.00    +0.000 A 
ATOM      2  C   UNL     1      44.716   7.333  11.693  0.00  0.00    +0.000 A 
ATOM      3  N   UNL     1      45.057   8.604  11.988  0.00  0.00    +0.000 NA
ATOM      4  C   UNL     1      46.378   8.857  12.156  0.00  0.00    +0.000 A 
ATOM      5  C   UNL     1      47.402   7.911  12.064  0.00  0.00    +0.000 A 
ATOM      6  C   UNL     1      46.986   6.605  11.758  0.00  0.00    +0.000 A 
ENDROOT
BRANCH   5   7
ATOM      7  C   UNL     1      48.825   8.256  12.269  0.00  0.00    +0.000 A 
ATOM      8  C   UNL     1      49.241   9.113  13.296  0.00  0.00    +0.000 A 
ATOM      9  C   UNL     1      50.592   9.391  13.443  0.00  0.00    +0.000 A 
ATOM     10  N   UNL     1      51.558   8.874  12.657  0.00  0.00    +0.000 NA
ATOM     11  C   UNL     1      51.168   8.050  11.677  0.00  0.00    +0.000 A 
ATOM     12  N   UNL     1      52.176   7.462  10.916  0.00  0.00    +0.000 N 
ATOM     13  C   UNL     1      49.837   7.724  11.451  0.00  0.00    +0.000 A 
ATOM     14  H   UNL     1      53.054   7.883  11.209  0.00  0.00    +0.000 HD
ATOM     15  H   UNL     1      52.014   7.560   9.922  0.00  0.00    +0.000 HD
ENDBRANCH   5   7
BRANCH   1  16
ATOM     16  C   UNL     1      45.189   4.904  11.231  0.00  0.00    +0.000 C 
BRANCH  16  17
ATOM     17  C   UNL     1      43.810   4.861  10.578  0.00  0.00    +0.000 C 
BRANCH  17  18
ATOM     18  O   UNL     1      43.609   3.534  10.090  0.00  0.00    +0.000 OA
BRANCH  18  22
ATOM     19  C   UNL     1      46.521   2.609   7.395  0.00  0.00    +0.000 A 
ATOM     20  C   UNL     1      45.873   3.822   7.416  0.00  0.00    +0.000 A 
ATOM     21  N   UNL     1      44.899   4.135   8.298  0.00  0.00    +0.000 NA
ATOM     22  C   UNL     1      44.552   3.166   9.159  0.00  0.00    +0.000 A 
ATOM     23  N   UNL     1      45.097   1.939   9.214  0.00  0.00    +0.000 NA
ATOM     24  C   UNL     1      46.075   1.685   8.315  0.00  0.00    +0.000 A 
BRANCH  19  26
ATOM     25  N   UNL     1      47.743   3.048   5.343  0.00  0.00    +0.000 N 
ATOM     26  C   UNL     1      47.603   2.272   6.461  0.00  0.00    +0.000 C 
ATOM     27  O   UNL     1      48.377   1.355   6.698  0.00  0.00    +0.000 OA
ATOM     28  H   UNL     1      48.559   2.863   4.771  0.00  0.00    +0.000 HD
ATOM     29  H   UNL     1      47.302   3.950   5.230  0.00  0.00    +0.000 HD
ENDBRANCH  19  26
ENDBRANCH  18  22
ENDBRANCH  17  18
ENDBRANCH  16  17
ENDBRANCH   1  16
TORSDOF 6
ENDMDL
MODEL 8
REMARK VINA RESULT:    -7.255      3.443      7.713
REMARK INTER + INTRA:         -10.642
REMARK INTER:                  -9.728
REMARK INTRA:                  -0.914
REMARK UNBOUND:                -0.842
REMARK  Name = 
REMARK  6 active torsions:
REMARK  status: ('A' for Active; 'I' for Inactive)
REMARK    1  A    between atoms: C_2  and  C_4
REMARK    2  A    between atoms: C_7  and  O_8
REMARK    3  A    between atoms: O_8  and  C_9
REMARK    4  A    between atoms: C_9  and  C_10
REMARK    5  A    between atoms: C_10  and  C_11
REMARK    6  A    between atoms: C_15  and  C_16
REMARK                            x       y       z     vdW  Elec       q    Type
REMARK                         _______ _______ _______ _____ _____    ______ ____
ROOT
ATOM      1  C   UNL     1      47.462   8.149  12.125  0.00  0.00    +0.000 A 
ATOM      2  C   UNL     1      46.511   9.144  12.290  0.00  0.00    +0.000 A 
ATOM      3  N   UNL     1      45.192   8.963  12.074  0.00  0.00    +0.000 NA
ATOM      4  C   UNL     1      44.804   7.728  11.671  0.00  0.00    +0.000 A 
ATOM      5  C   UNL     1      45.656   6.643  11.451  0.00  0.00    +0.000 A 
ATOM      6  C   UNL     1      47.018   6.893  11.689  0.00  0.00    +0.000 A 
ENDROOT
BRANCH   5   7
ATOM      7  C   UNL     1      45.165   5.323  11.003  0.00  0.00    +0.000 A 
ATOM      8  C   UNL     1      45.262   4.908   9.668  0.00  0.00    +0.000 A 
ATOM      9  C   UNL     1      44.791   3.653   9.310  0.00  0.00    +0.000 A 
ATOM     10  N   UNL     1      44.243   2.778  10.177  0.00  0.00    +0.000 NA
ATOM     11  C   UNL     1      44.151   3.166  11.455  0.00  0.00    +0.000 A 
ATOM     12  N   UNL     1      43.652   2.231  12.359  0.00  0.00    +0.000 N 
ATOM     13  C   UNL     1      44.588   4.407  11.900  0.00  0.00    +0.000 A 
ATOM     14  H   UNL     1      43.342   1.429  11.816  0.00  0.00    +0.000 HD
ATOM     15  H   UNL     1      42.915   2.611  12.939  0.00  0.00    +0.000 HD
ENDBRANCH   5   7
BRANCH   1  16
ATOM     16  C   UNL     1      48.918   8.413  12.377  0.00  0.00    +0.000 C 
BRANCH  16  17
ATOM     17  C   UNL     1      49.543   7.396  13.330  0.00  0.00    +0.000 C 
BRANCH  17  18
ATOM     18  O   UNL     1      49.105   7.724  14.650  0.00  0.00    +0.000 OA
BRANCH  18  22
ATOM     19  C   UNL     1      48.002   4.555  16.962  0.00  0.00    +0.000 A 
ATOM     20  C   UNL     1      48.780   5.591  17.426  0.00  0.00    +0.000 A 
ATOM     21  N   UNL     1      49.159   6.640  16.665  0.00  0.00    +0.000 NA
ATOM     22  C   UNL     1      48.764   6.611  15.383  0.00  0.00    +0.000 A 
ATOM     23  N   UNL     1      48.026   5.641  14.816  0.00  0.00    +0.000 NA
ATOM     24  C   UNL     1      47.665   4.621  15.628  0.00  0.00    +0.000 A 
BRANCH  19  26
ATOM     25  N   UNL     1      48.277   3.143  18.918  0.00  0.00    +0.000 N 
ATOM     26  C   UNL     1      47.557   3.428  17.791  0.00  0.00    +0.000 C 
ATOM     27  O   UNL     1      46.551   2.793  17.503  0.00  0.00    +0.000 OA
ATOM     28  H   UNL     1      47.890   2.432  19.527  0.00  0.00    +0.000 HD
ATOM     29  H   UNL     1      48.949   3.779  19.327  0.00  0.00    +0.000 HD
ENDBRANCH  19  26
ENDBRANCH  18  22
ENDBRANCH  17  18
ENDBRANCH  16  17
ENDBRANCH   1  16
TORSDOF 6
ENDMDL
MODEL 9
REMARK VINA RESULT:    -7.232      2.120      3.437
REMARK INTER + INTRA:         -10.611
REMARK INTER:                 -10.022
REMARK INTRA:                  -0.588
REMARK UNBOUND:                -0.842
REMARK  Name = 
REMARK  6 active torsions:
REMARK  status: ('A' for Active; 'I' for Inactive)
REMARK    1  A    between atoms: C_2  and  C_4
REMARK    2  A    between atoms: C_7  and  O_8
REMARK    3  A    between atoms: O_8  and  C_9
REMARK    4  A    between atoms: C_9  and  C_10
REMARK    5  A    between atoms: C_10  and  C_11
REMARK    6  A    between atoms: C_15  and  C_16
REMARK                            x       y       z     vdW  Elec       q    Type
REMARK                         _______ _______ _______ _____ _____    ______ ____
ROOT
ATOM      1  C   UNL     1      45.378   5.914  12.173  0.00  0.00    +0.000 A 
ATOM      2  C   UNL     1      44.746   7.100  11.835  0.00  0.00    +0.000 A 
ATOM      3  N   UNL     1      45.262   8.322  12.082  0.00  0.00    +0.000 NA
ATOM      4  C   UNL     1      46.469   8.360  12.700  0.00  0.00    +0.000 A 
ATOM      5  C   UNL     1      47.205   7.245  13.109  0.00  0.00    +0.000 A 
ATOM      6  C   UNL     1      46.616   6.002  12.828  0.00  0.00    +0.000 A 
ENDROOT
BRANCH   5   7
ATOM      7  C   UNL     1      48.514   7.361  13.787  0.00  0.00    +0.000 A 
ATOM      8  C   UNL     1      49.568   8.106  13.244  0.00  0.00    +0.000 A 
ATOM      9  C   UNL     1      50.770   8.184  13.933  0.00  0.00    +0.000 A 
ATOM     10  N   UNL     1      50.998   7.589  15.121  0.00  0.00    +0.000 NA
ATOM     11  C   UNL     1      49.993   6.880  15.648  0.00  0.00    +0.000 A 
ATOM     12  N   UNL     1      50.209   6.329  16.909  0.00  0.00    +0.000 N 
ATOM     13  C   UNL     1      48.760   6.740  15.024  0.00  0.00    +0.000 A 
ATOM     14  H   UNL     1      51.183   6.500  17.145  0.00  0.00    +0.000 HD
ATOM     15  H   UNL     1      49.970   5.346  16.946  0.00  0.00    +0.000 HD
ENDBRANCH   5   7
BRANCH   1  16
ATOM     16  C   UNL     1      44.751   4.583  11.875  0.00  0.00    +0.000 C 
BRANCH  16  17
ATOM     17  C   UNL     1      43.729   4.656  10.743  0.00  0.00    +0.000 C 
BRANCH  17  18
ATOM     18  O   UNL     1      43.572   3.335  10.223  0.00  0.00    +0.000 OA
BRANCH  18  22
ATOM     19  C   UNL     1      46.456   2.599   7.441  0.00  0.00    +0.000 A 
ATOM     20  C   UNL     1      45.832   3.819   7.573  0.00  0.00    +0.000 A 
ATOM     21  N   UNL     1      44.867   4.069   8.485  0.00  0.00    +0.000 NA
ATOM     22  C   UNL     1      44.505   3.034   9.258  0.00  0.00    +0.000 A 
ATOM     23  N   UNL     1      45.026   1.797   9.200  0.00  0.00    +0.000 NA
ATOM     24  C   UNL     1      45.996   1.606   8.277  0.00  0.00    +0.000 A 
BRANCH  19  26
ATOM     25  N   UNL     1      47.471   2.962   5.265  0.00  0.00    +0.000 N 
ATOM     26  C   UNL     1      47.529   2.327   6.475  0.00  0.00    +0.000 C 
ATOM     27  O   UNL     1      48.462   1.590   6.762  0.00  0.00    +0.000 OA
ATOM     28  H   UNL     1      48.274   2.841   4.659  0.00  0.00    +0.000 HD
ATOM     29  H   UNL     1      46.874   3.756   5.078  0.00  0.00    +0.000 HD
ENDBRANCH  19  26
ENDBRANCH  18  22
ENDBRANCH  17  18
ENDBRANCH  16  17
ENDBRANCH   1  16
TORSDOF 6
ENDMDL
