MODEL 1
REMARK VINA RESULT:    -7.884      0.000      0.000
REMARK INTER + INTRA:         -10.409
REMARK INTER:                  -9.728
REMARK INTRA:                  -0.681
REMARK UNBOUND:                -0.681
REMARK  Name = 
REMARK  4 active torsions:
REMARK  status: ('A' for Active; 'I' for Inactive)
REMARK    1  A    between atoms: C_6  and  C_7
REMARK    2  A    between atoms: C_7  and  N_8
REMARK    3  A    between atoms: N_8  and  C_9
REMARK    4  A    between atoms: C_13  and  C_14
REMARK                            x       y       z     vdW  Elec       q    Type
REMARK                         _______ _______ _______ _____ _____    ______ ____
ROOT
ATOM      1  C   UNL     1      44.154   5.106  10.661  0.00  0.00    +0.000 A 
ATOM      2  C   UNL     1      43.395   4.169  11.363  0.00  0.00    +0.000 A 
ATOM      3  N   UNL     1      43.349   2.845  11.093  0.00  0.00    +0.000 NA
ATOM      4  C   UNL     1      44.139   2.411  10.085  0.00  0.00    +0.000 A 
ATOM      5  C   UNL     1      44.981   3.219   9.318  0.00  0.00    +0.000 A 
ATOM      6  C   UNL     1      44.971   4.588   9.650  0.00  0.00    +0.000 A 
ENDROOT
BRANCH   5   7
ATOM      7  C   UNL     1      45.835   2.674   8.236  0.00  0.00    +0.000 A 
ATOM      8  C   UNL     1      46.278   3.474   7.171  0.00  0.00    +0.000 A 
ATOM      9  C   UNL     1      47.072   2.917   6.178  0.00  0.00    +0.000 A 
ATOM     10  N   UNL     1      47.471   1.630   6.170  0.00  0.00    +0.000 NA
ATOM     11  C   UNL     1      47.049   0.867   7.195  0.00  0.00    +0.000 A 
ATOM     12  C   UNL     1      46.244   1.332   8.225  0.00  0.00    +0.000 A 
ENDBRANCH   5   7
BRANCH   1  13
ATOM     13  N   UNL     1      44.176   6.446  11.058  0.00  0.00    +0.000 N 
ATOM     14  H   UNL     1      44.542   7.063  10.335  0.00  0.00    +0.000 HD
BRANCH  13  15
ATOM     15  C   UNL     1      44.668   6.812  12.384  0.00  0.00    +0.000 C 
BRANCH  15  21
ATOM     16  F   UNL     1      49.138   8.624  11.332  0.00  0.00    +0.000 F 
ATOM     17  C   UNL     1      48.356   7.724  11.942  0.00  0.00    +0.000 A 
ATOM     18  C   UNL     1      48.909   6.707  12.696  0.00  0.00    +0.000 A 
ATOM     19  N   UNL     1      48.174   5.767  13.334  0.00  0.00    +0.000 NA
ATOM     20  C   UNL     1      46.831   5.863  13.199  0.00  0.00    +0.000 A 
ATOM     21  C   UNL     1      46.171   6.848  12.463  0.00  0.00    +0.000 A 
ATOM     22  C   UNL     1      46.975   7.801  11.820  0.00  0.00    +0.000 A 
ENDBRANCH  15  21
ENDBRANCH  13  15
ENDBRANCH   1  13
TORSDOF 4
ENDMDL
MODEL 2
REMARK VINA RESULT:    -7.762      2.509      6.506
REMARK INTER + INTRA:         -10.258
REMARK INTER:                  -9.764
REMARK INTRA:                  -0.495
REMARK UNBOUND:                -0.681
REMARK  Name = 
REMARK  4 active torsions:
REMARK  status: ('A' for Active; 'I' for Inactive)
REMARK    1  A    between atoms: C_6  and  C_7
REMARK    2  A    between atoms: C_7  and  N_8
REMARK    3  A    between atoms: N_8  and  C_9
REMARK    4  A    between atoms: C_13  and  C_14
REMARK                            x       y       z     vdW  Elec       q    Type
REMARK                         _______ _______ _______ _____ _____    ______ ____
ROOT
ATOM      1  C   UNL     1      44.869   4.163  10.998  0.00  0.00    +0.000 A 
ATOM      2  C   UNL     1      44.775   3.564  12.254  0.00  0.00    +0.000 A 
ATOM      3  N   UNL     1      45.290   4.068  13.397  0.00  0.00    +0.000 NA
ATOM      4  C   UNL     1      45.907   5.268  13.299  0.00  0.00    +0.000 A 
ATOM      5  C   UNL     1      46.046   6.006  12.121  0.00  0.00    +0.000 A 
ATOM      6  C   UNL     1      45.492   5.416  10.969  0.00  0.00    +0.000 A 
ENDROOT
BRANCH   5   7
ATOM      7  C   UNL     1      46.720   7.326  12.086  0.00  0.00    +0.000 A 
ATOM      8  C   UNL     1      46.012   8.522  12.277  0.00  0.00    +0.000 A 
ATOM      9  C   UNL     1      46.686   9.735  12.230  0.00  0.00    +0.000 A 
ATOM     10  N   UNL     1      48.012   9.848  12.021  0.00  0.00    +0.000 NA
ATOM     11  C   UNL     1      48.690   8.699  11.843  0.00  0.00    +0.000 A 
ATOM     12  C   UNL     1      48.100   7.443  11.862  0.00  0.00    +0.000 A 
ENDBRANCH   5   7
BRANCH   1  13
ATOM     13  N   UNL     1      44.248   3.586   9.885  0.00  0.00    +0.000 N 
ATOM     14  H   UNL     1      44.143   2.577   9.976  0.00  0.00    +0.000 HD
BRANCH  13  15
ATOM     15  C   UNL     1      44.652   3.972   8.536  0.00  0.00    +0.000 C 
BRANCH  15  21
ATOM     16  F   UNL     1      47.947   2.518   5.159  0.00  0.00    +0.000 F 
ATOM     17  C   UNL     1      47.221   2.284   6.260  0.00  0.00    +0.000 A 
ATOM     18  C   UNL     1      47.298   1.066   6.907  0.00  0.00    +0.000 A 
ATOM     19  N   UNL     1      46.590   0.767   8.020  0.00  0.00    +0.000 NA
ATOM     20  C   UNL     1      45.772   1.738   8.490  0.00  0.00    +0.000 A 
ATOM     21  C   UNL     1      45.620   3.000   7.913  0.00  0.00    +0.000 A 
ATOM     22  C   UNL     1      46.376   3.264   6.762  0.00  0.00    +0.000 A 
ENDBRANCH  15  21
ENDBRANCH  13  15
ENDBRANCH   1  13
TORSDOF 4
ENDMDL
MODEL 3
REMARK VINA RESULT:    -7.546      1.419      1.700
REMARK INTER + INTRA:          -9.992
REMARK INTER:                  -9.335
REMARK INTRA:                  -0.657
REMARK UNBOUND:                -0.681
REMARK  Name = 
REMARK  4 active torsions:
REMARK  status: ('A' for Active; 'I' for Inactive)
REMARK    1  A    between atoms: C_6  and  C_7
REMARK    2  A    between atoms: C_7  and  N_8
REMARK    3  A    between atoms: N_8  and  C_9
REMARK    4  A    between atoms: C_13  and  C_14
REMARK                            x       y       z     vdW  Elec       q    Type
REMARK                         _______ _______ _______ _____ _____    ______ ____
ROOT
ATOM      1  C   UNL     1      43.853   5.034  10.471  0.00  0.00    +0.000 A 
ATOM      2  C   UNL     1      43.223   4.066  11.255  0.00  0.00    +0.000 A 
ATOM      3  N   UNL     1      43.332   2.731  11.079  0.00  0.00    +0.000 NA
ATOM      4  C   UNL     1      44.153   2.322  10.084  0.00  0.00    +0.000 A 
ATOM      5  C   UNL     1      44.879   3.167   9.242  0.00  0.00    +0.000 A 
ATOM      6  C   UNL     1      44.711   4.546   9.479  0.00  0.00    +0.000 A 
ENDROOT
BRANCH   5   7
ATOM      7  C   UNL     1      45.776   2.652   8.181  0.00  0.00    +0.000 A 
ATOM      8  C   UNL     1      46.204   3.461   7.118  0.00  0.00    +0.000 A 
ATOM      9  C   UNL     1      47.039   2.931   6.143  0.00  0.00    +0.000 A 
ATOM     10  N   UNL     1      47.492   1.663   6.153  0.00  0.00    +0.000 NA
ATOM     11  C   UNL     1      47.084   0.889   7.176  0.00  0.00    +0.000 A 
ATOM     12  C   UNL     1      46.241   1.328   8.188  0.00  0.00    +0.000 A 
ENDBRANCH   5   7
BRANCH   1  13
ATOM     13  N   UNL     1      43.721   6.392  10.773  0.00  0.00    +0.000 N 
ATOM     14  H   UNL     1      44.108   6.995  10.049  0.00  0.00    +0.000 HD
BRANCH  13  15
ATOM     15  C   UNL     1      44.036   6.882  12.113  0.00  0.00    +0.000 C 
BRANCH  15  21
ATOM     16  F   UNL     1      47.470   4.460  14.704  0.00  0.00    +0.000 F 
ATOM     17  C   UNL     1      47.125   5.393  13.807  0.00  0.00    +0.000 A 
ATOM     18  C   UNL     1      48.087   6.182  13.207  0.00  0.00    +0.000 A 
ATOM     19  N   UNL     1      47.803   7.141  12.296  0.00  0.00    +0.000 NA
ATOM     20  C   UNL     1      46.495   7.307  11.988  0.00  0.00    +0.000 A 
ATOM     21  C   UNL     1      45.447   6.566  12.536  0.00  0.00    +0.000 A 
ATOM     22  C   UNL     1      45.791   5.582  13.474  0.00  0.00    +0.000 A 
ENDBRANCH  15  21
ENDBRANCH  13  15
ENDBRANCH   1  13
TORSDOF 4
ENDMDL
MODEL 4
REMARK VINA RESULT:    -7.488      2.715      6.584
REMARK INTER + INTRA:          -9.921
REMARK INTER:                  -9.319
REMARK INTRA:                  -0.602
REMARK UNBOUND:                -0.681
REMARK  Name = 
REMARK  4 active torsions:
REMARK  status: ('A' for Active; 'I' for Inactive)
REMARK    1  A    between atoms: C_6  and  C_7
REMARK    2  A    between atoms: C_7  and  N_8
REMARK    3  A    between atoms: N_8  and  C_9
REMARK    4  A    between atoms: C_13  and  C_14
REMARK                            x       y       z     vdW  Elec       q    Type
REMARK                         _______ _______ _______ _____ _____    ______ ____
ROOT
ATOM      1  C   UNL     1      45.460   3.637  12.195  0.00  0.00    +0.000 A 
ATOM      2  C   UNL     1      46.236   3.153  13.249  0.00  0.00    +0.000 A 
ATOM      3  N   UNL     1      47.059   3.901  14.018  0.00  0.00    +0.000 NA
ATOM      4  C   UNL     1      47.086   5.227  13.752  0.00  0.00    +0.000 A 
ATOM      5  C   UNL     1      46.340   5.863  12.757  0.00  0.00    +0.000 A 
ATOM      6  C   UNL     1      45.511   5.020  11.991  0.00  0.00    +0.000 A 
ENDROOT
BRANCH   5   7
ATOM      7  C   UNL     1      46.404   7.326  12.530  0.00  0.00    +0.000 A 
ATOM      8  C   UNL     1      45.246   8.115  12.464  0.00  0.00    +0.000 A 
ATOM      9  C   UNL     1      45.356   9.481  12.243  0.00  0.00    +0.000 A 
ATOM     10  N   UNL     1      46.531  10.125  12.097  0.00  0.00    +0.000 NA
ATOM     11  C   UNL     1      47.641   9.367  12.165  0.00  0.00    +0.000 A 
ATOM     12  C   UNL     1      47.628   7.994  12.371  0.00  0.00    +0.000 A 
ENDBRANCH   5   7
BRANCH   1  13
ATOM     13  N   UNL     1      44.597   2.787  11.498  0.00  0.00    +0.000 N 
ATOM     14  H   UNL     1      44.910   1.818  11.506  0.00  0.00    +0.000 HD
BRANCH  13  15
ATOM     15  C   UNL     1      44.075   3.179  10.191  0.00  0.00    +0.000 C 
BRANCH  15  21
ATOM     16  F   UNL     1      47.151   0.572   7.344  0.00  0.00    +0.000 F 
ATOM     17  C   UNL     1      46.589   1.735   7.697  0.00  0.00    +0.000 A 
ATOM     18  C   UNL     1      46.933   2.908   7.053  0.00  0.00    +0.000 A 
ATOM     19  N   UNL     1      46.404   4.113   7.364  0.00  0.00    +0.000 NA
ATOM     20  C   UNL     1      45.495   4.128   8.368  0.00  0.00    +0.000 A 
ATOM     21  C   UNL     1      45.078   3.004   9.082  0.00  0.00    +0.000 A 
ATOM     22  C   UNL     1      45.654   1.777   8.722  0.00  0.00    +0.000 A 
ENDBRANCH  15  21
ENDBRANCH  13  15
ENDBRANCH   1  13
TORSDOF 4
ENDMDL
MODEL 5
REMARK VINA RESULT:    -7.345      2.566      6.517
REMARK INTER + INTRA:          -9.743
REMARK INTER:                  -9.200
REMARK INTRA:                  -0.544
REMARK UNBOUND:                -0.681
REMARK  Name = 
REMARK  4 active torsions:
REMARK  status: ('A' for Active; 'I' for Inactive)
REMARK    1  A    between atoms: C_6  and  C_7
REMARK    2  A    between atoms: C_7  and  N_8
REMARK    3  A    between atoms: N_8  and  C_9
REMARK    4  A    between atoms: C_13  and  C_14
REMARK                            x       y       z     vdW  Elec       q    Type
REMARK                         _______ _______ _______ _____ _____    ______ ____
ROOT
ATOM      1  C   UNL     1      44.088   4.328  10.744  0.00  0.00    +0.000 A 
ATOM      2  C   UNL     1      43.049   4.366  11.674  0.00  0.00    +0.000 A 
ATOM      3  N   UNL     1      43.007   5.166  12.762  0.00  0.00    +0.000 NA
ATOM      4  C   UNL     1      44.047   6.017  12.921  0.00  0.00    +0.000 A 
ATOM      5  C   UNL     1      45.138   6.123  12.056  0.00  0.00    +0.000 A 
ATOM      6  C   UNL     1      45.118   5.253  10.948  0.00  0.00    +0.000 A 
ENDROOT
BRANCH   5   7
ATOM      7  C   UNL     1      46.238   7.091  12.280  0.00  0.00    +0.000 A 
ATOM      8  C   UNL     1      46.071   8.222  13.094  0.00  0.00    +0.000 A 
ATOM      9  C   UNL     1      47.129   9.104  13.269  0.00  0.00    +0.000 A 
ATOM     10  N   UNL     1      48.343   8.941  12.709  0.00  0.00    +0.000 NA
ATOM     11  C   UNL     1      48.501   7.852  11.932  0.00  0.00    +0.000 A 
ATOM     12  C   UNL     1      47.500   6.923  11.690  0.00  0.00    +0.000 A 
ENDBRANCH   5   7
BRANCH   1  13
ATOM     13  N   UNL     1      44.007   3.503   9.618  0.00  0.00    +0.000 N 
ATOM     14  H   UNL     1      44.218   2.530   9.829  0.00  0.00    +0.000 HD
BRANCH  13  15
ATOM     15  C   UNL     1      44.601   3.926   8.352  0.00  0.00    +0.000 C 
BRANCH  15  21
ATOM     16  F   UNL     1      46.868  -0.437   7.912  0.00  0.00    +0.000 F 
ATOM     17  C   UNL     1      46.813   0.880   7.676  0.00  0.00    +0.000 A 
ATOM     18  C   UNL     1      47.823   1.513   6.977  0.00  0.00    +0.000 A 
ATOM     19  N   UNL     1      47.826   2.838   6.708  0.00  0.00    +0.000 NA
ATOM     20  C   UNL     1      46.768   3.547   7.168  0.00  0.00    +0.000 A 
ATOM     21  C   UNL     1      45.698   3.007   7.883  0.00  0.00    +0.000 A 
ATOM     22  C   UNL     1      45.738   1.628   8.136  0.00  0.00    +0.000 A 
ENDBRANCH  15  21
ENDBRANCH  13  15
ENDBRANCH   1  13
TORSDOF 4
ENDMDL
MODEL 6
REMARK VINA RESULT:    -7.290      2.627      6.544
REMARK INTER + INTRA:          -9.676
REMARK INTER:                  -9.098
REMARK INTRA:                  -0.578
REMARK UNBOUND:                -0.681
REMARK  Name = 
REMARK  4 active torsions:
REMARK  status: ('A' for Active; 'I' for Inactive)
REMARK    1  A    between atoms: C_6  and  C_7
REMARK    2  A    between atoms: C_7  and  N_8
REMARK    3  A    between atoms: N_8  and  C_9
REMARK    4  A    between atoms: C_13  and  C_14
REMARK                            x       y       z     vdW  Elec       q    Type
REMARK                         _______ _______ _______ _____ _____    ______ ____
ROOT
ATOM      1  C   UNL     1      45.371   5.305  11.550  0.00  0.00    +0.000 A 
ATOM      2  C   UNL     1      45.102   4.456  12.625  0.00  0.00    +0.000 A 
ATOM      3  N   UNL     1      45.872   4.329  13.728  0.00  0.00    +0.000 NA
ATOM      4  C   UNL     1      46.964   5.126  13.793  0.00  0.00    +0.000 A 
ATOM      5  C   UNL     1      47.342   6.050  12.817  0.00  0.00    +0.000 A 
ATOM      6  C   UNL     1      46.497   6.123  11.693  0.00  0.00    +0.000 A 
ENDROOT
BRANCH   5   7
ATOM      7  C   UNL     1      48.544   6.907  12.959  0.00  0.00    +0.000 A 
ATOM      8  C   UNL     1      49.118   7.561  11.859  0.00  0.00    +0.000 A 
ATOM      9  C   UNL     1      50.248   8.348  12.041  0.00  0.00    +0.000 A 
ATOM     10  N   UNL     1      50.841   8.545  13.234  0.00  0.00    +0.000 NA
ATOM     11  C   UNL     1      50.286   7.919  14.289  0.00  0.00    +0.000 A 
ATOM     12  C   UNL     1      49.165   7.104  14.202  0.00  0.00    +0.000 A 
ENDBRANCH   5   7
BRANCH   1  13
ATOM     13  N   UNL     1      44.477   5.405  10.480  0.00  0.00    +0.000 N 
ATOM     14  H   UNL     1      43.733   6.078  10.653  0.00  0.00    +0.000 HD
BRANCH  13  15
ATOM     15  C   UNL     1      43.978   4.199   9.824  0.00  0.00    +0.000 C 
BRANCH  15  21
ATOM     16  F   UNL     1      46.532   0.382   8.014  0.00  0.00    +0.000 F 
ATOM     17  C   UNL     1      46.258   1.693   8.050  0.00  0.00    +0.000 A 
ATOM     18  C   UNL     1      46.950   2.579   7.248  0.00  0.00    +0.000 A 
ATOM     19  N   UNL     1      46.721   3.912   7.239  0.00  0.00    +0.000 NA
ATOM     20  C   UNL     1      45.758   4.361   8.078  0.00  0.00    +0.000 A 
ATOM     21  C   UNL     1      45.002   3.553   8.928  0.00  0.00    +0.000 A 
ATOM     22  C   UNL     1      45.273   2.178   8.900  0.00  0.00    +0.000 A 
ENDBRANCH  15  21
ENDBRANCH  13  15
ENDBRANCH   1  13
TORSDOF 4
ENDMDL
MODEL 7
REMARK VINA RESULT:    -7.097      2.276      2.913
REMARK INTER + INTRA:          -9.438
REMARK INTER:                  -9.030
REMARK INTRA:                  -0.408
REMARK UNBOUND:                -0.681
REMARK  Name = 
REMARK  4 active torsions:
REMARK  status: ('A' for Active; 'I' for Inactive)
REMARK    1  A    between atoms: C_6  and  C_7
REMARK    2  A    between atoms: C_7  and  N_8
REMARK    3  A    between atoms: N_8  and  C_9
REMARK    4  A    between atoms: C_13  and  C_14
REMARK                            x       y       z     vdW  Elec       q    Type
REMARK                         _______ _______ _______ _____ _____    ______ ____
ROOT
ATOM      1  C   UNL     1      43.915   5.085  10.668  0.00  0.00    +0.000 A 
ATOM      2  C   UNL     1      43.229   4.127  11.415  0.00  0.00    +0.000 A 
ATOM      3  N   UNL     1      43.273   2.793  11.199  0.00  0.00    +0.000 NA
ATOM      4  C   UNL     1      44.084   2.374  10.200  0.00  0.00    +0.000 A 
ATOM      5  C   UNL     1      44.861   3.208   9.393  0.00  0.00    +0.000 A 
ATOM      6  C   UNL     1      44.759   4.585   9.670  0.00  0.00    +0.000 A 
ENDROOT
BRANCH   5   7
ATOM      7  C   UNL     1      45.743   2.680   8.324  0.00  0.00    +0.000 A 
ATOM      8  C   UNL     1      46.153   1.338   8.301  0.00  0.00    +0.000 A 
ATOM      9  C   UNL     1      46.984   0.892   7.282  0.00  0.00    +0.000 A 
ATOM     10  N   UNL     1      47.428   1.674   6.279  0.00  0.00    +0.000 NA
ATOM     11  C   UNL     1      47.030   2.960   6.302  0.00  0.00    +0.000 A 
ATOM     12  C   UNL     1      46.211   3.498   7.284  0.00  0.00    +0.000 A 
ENDBRANCH   5   7
BRANCH   1  13
ATOM     13  N   UNL     1      43.847   6.438  11.011  0.00  0.00    +0.000 N 
ATOM     14  H   UNL     1      43.645   7.036  10.211  0.00  0.00    +0.000 HD
BRANCH  13  15
ATOM     15  C   UNL     1      44.856   7.027  11.888  0.00  0.00    +0.000 C 
BRANCH  15  21
ATOM     16  F   UNL     1      43.486  11.459  10.201  0.00  0.00    +0.000 F 
ATOM     17  C   UNL     1      44.350  10.675  10.859  0.00  0.00    +0.000 A 
ATOM     18  C   UNL     1      45.507  11.202  11.399  0.00  0.00    +0.000 A 
ATOM     19  N   UNL     1      46.419  10.464  12.073  0.00  0.00    +0.000 NA
ATOM     20  C   UNL     1      46.147   9.143  12.197  0.00  0.00    +0.000 A 
ATOM     21  C   UNL     1      45.011   8.512  11.691  0.00  0.00    +0.000 A 
ATOM     22  C   UNL     1      44.093   9.319  11.002  0.00  0.00    +0.000 A 
ENDBRANCH  15  21
ENDBRANCH  13  15
ENDBRANCH   1  13
TORSDOF 4
ENDMDL
MODEL 8
REMARK VINA RESULT:    -6.539      3.191      3.961
REMARK INTER + INTRA:          -8.750
REMARK INTER:                  -8.337
REMARK INTRA:                  -0.413
REMARK UNBOUND:                -0.681
REMARK  Name = 
REMARK  4 active torsions:
REMARK  status: ('A' for Active; 'I' for Inactive)
REMARK    1  A    between atoms: C_6  and  C_7
REMARK    2  A    between atoms: C_7  and  N_8
REMARK    3  A    between atoms: N_8  and  C_9
REMARK    4  A    between atoms: C_13  and  C_14
REMARK                            x       y       z     vdW  Elec       q    Type
REMARK                         _______ _______ _______ _____ _____    ______ ____
ROOT
ATOM      1  C   UNL     1      44.972   5.250  12.755  0.00  0.00    +0.000 A 
ATOM      2  C   UNL     1      43.587   5.422  12.719  0.00  0.00    +0.000 A 
ATOM      3  N   UNL     1      42.789   5.091  11.680  0.00  0.00    +0.000 NA
ATOM      4  C   UNL     1      43.396   4.513  10.618  0.00  0.00    +0.000 A 
ATOM      5  C   UNL     1      44.763   4.241  10.523  0.00  0.00    +0.000 A 
ATOM      6  C   UNL     1      45.533   4.620  11.640  0.00  0.00    +0.000 A 
ENDROOT
BRANCH   5   7
ATOM      7  C   UNL     1      45.362   3.587   9.335  0.00  0.00    +0.000 A 
ATOM      8  C   UNL     1      45.430   2.191   9.216  0.00  0.00    +0.000 A 
ATOM      9  C   UNL     1      46.006   1.625   8.086  0.00  0.00    +0.000 A 
ATOM     10  N   UNL     1      46.505   2.341   7.060  0.00  0.00    +0.000 NA
ATOM     11  C   UNL     1      46.434   3.680   7.175  0.00  0.00    +0.000 A 
ATOM     12  C   UNL     1      45.888   4.335   8.270  0.00  0.00    +0.000 A 
ENDBRANCH   5   7
BRANCH   1  13
ATOM     13  N   UNL     1      45.699   5.572  13.905  0.00  0.00    +0.000 N 
ATOM     14  H   UNL     1      45.509   6.517  14.236  0.00  0.00    +0.000 HD
BRANCH  13  15
ATOM     15  C   UNL     1      47.119   5.240  13.994  0.00  0.00    +0.000 C 
BRANCH  15  21
ATOM     16  F   UNL     1      47.120   2.361  18.004  0.00  0.00    +0.000 F 
ATOM     17  C   UNL     1      47.538   3.451  17.349  0.00  0.00    +0.000 A 
ATOM     18  C   UNL     1      48.405   4.344  17.949  0.00  0.00    +0.000 A 
ATOM     19  N   UNL     1      48.861   5.463  17.342  0.00  0.00    +0.000 NA
ATOM     20  C   UNL     1      48.418   5.685  16.082  0.00  0.00    +0.000 A 
ATOM     21  C   UNL     1      47.543   4.850  15.386  0.00  0.00    +0.000 A 
ATOM     22  C   UNL     1      47.099   3.701  16.056  0.00  0.00    +0.000 A 
ENDBRANCH  15  21
ENDBRANCH  13  15
ENDBRANCH   1  13
TORSDOF 4
ENDMDL
MODEL 9
REMARK VINA RESULT:    -6.535      1.436      2.018
REMARK INTER + INTRA:          -8.744
REMARK INTER:                  -8.115
REMARK INTRA:                  -0.629
REMARK UNBOUND:                -0.681
REMARK  Name = 
REMARK  4 active torsions:
REMARK  status: ('A' for Active; 'I' for Inactive)
REMARK    1  A    between atoms: C_6  and  C_7
REMARK    2  A    between atoms: C_7  and  N_8
REMARK    3  A    between atoms: N_8  and  C_9
REMARK    4  A    between atoms: C_13  and  C_14
REMARK                            x       y       z     vdW  Elec       q    Type
REMARK                         _______ _______ _______ _____ _____    ______ ____
ROOT
ATOM      1  C   UNL     1      44.498   5.813  12.301  0.00  0.00    +0.000 A 
ATOM      2  C   UNL     1      43.411   5.086  12.789  0.00  0.00    +0.000 A 
ATOM      3  N   UNL     1      42.909   3.965  12.227  0.00  0.00    +0.000 NA
ATOM      4  C   UNL     1      43.551   3.506  11.127  0.00  0.00    +0.000 A 
ATOM      5  C   UNL     1      44.673   4.100  10.545  0.00  0.00    +0.000 A 
ATOM      6  C   UNL     1      45.136   5.269  11.180  0.00  0.00    +0.000 A 
ENDROOT
BRANCH   5   7
ATOM      7  C   UNL     1      45.340   3.534   9.348  0.00  0.00    +0.000 A 
ATOM      8  C   UNL     1      45.489   2.151   9.172  0.00  0.00    +0.000 A 
ATOM      9  C   UNL     1      46.126   1.668   8.036  0.00  0.00    +0.000 A 
ATOM     10  N   UNL     1      46.613   2.455   7.057  0.00  0.00    +0.000 NA
ATOM     11  C   UNL     1      46.464   3.782   7.227  0.00  0.00    +0.000 A 
ATOM     12  C   UNL     1      45.853   4.356   8.333  0.00  0.00    +0.000 A 
ENDBRANCH   5   7
BRANCH   1  13
ATOM     13  N   UNL     1      44.976   6.930  12.992  0.00  0.00    +0.000 N 
ATOM     14  H   UNL     1      44.287   7.318  13.634  0.00  0.00    +0.000 HD
BRANCH  13  15
ATOM     15  C   UNL     1      45.708   7.976  12.283  0.00  0.00    +0.000 C 
BRANCH  15  21
ATOM     16  F   UNL     1      50.467   7.240  11.196  0.00  0.00    +0.000 F 
ATOM     17  C   UNL     1      49.508   7.598  12.059  0.00  0.00    +0.000 A 
ATOM     18  C   UNL     1      49.826   7.971  13.351  0.00  0.00    +0.000 A 
ATOM     19  N   UNL     1      48.904   8.340  14.269  0.00  0.00    +0.000 NA
ATOM     20  C   UNL     1      47.613   8.326  13.862  0.00  0.00    +0.000 A 
ATOM     21  C   UNL     1      47.184   7.966  12.584  0.00  0.00    +0.000 A 
ATOM     22  C   UNL     1      48.176   7.593  11.666  0.00  0.00    +0.000 A 
ENDBRANCH  15  21
ENDBRANCH  13  15
ENDBRANCH   1  13
TORSDOF 4
ENDMDL
