MODEL 1
REMARK VINA RESULT:    -8.450      0.000      0.000
REMARK INTER + INTRA:         -12.947
REMARK INTER:                 -12.155
REMARK INTRA:                  -0.791
REMARK UNBOUND:                -0.791
REMARK  Name = 
REMARK  8 active torsions:
REMARK  status: ('A' for Active; 'I' for Inactive)
REMARK    1  A    between atoms: N_1  and  C_2
REMARK    2  A    between atoms: C_2  and  C_3
REMARK    3  A    between atoms: C_2  and  C_24
REMARK    4  A    between atoms: C_3  and  C_4
REMARK    5  A    between atoms: C_7  and  C_8
REMARK    6  A    between atoms: C_8  and  N_9
REMARK    7  A    between atoms: C_10  and  C_12
REMARK    8  A    between atoms: C_24  and  C_25
REMARK                            x       y       z     vdW  Elec       q    Type
REMARK                         _______ _______ _______ _____ _____    ______ ____
ROOT
ATOM      1  C   UNL     1      45.599   4.754  12.102  0.00  0.00    +0.000 A 
ATOM      2  C   UNL     1      46.099   5.942  11.550  0.00  0.00    +0.000 A 
ATOM      3  C   UNL     1      47.107   6.660  12.197  0.00  0.00    +0.000 A 
ATOM      4  C   UNL     1      47.628   6.209  13.416  0.00  0.00    +0.000 A 
ATOM      5  C   UNL     1      47.091   5.051  13.993  0.00  0.00    +0.000 A 
ATOM      6  C   UNL     1      46.093   4.324  13.338  0.00  0.00    +0.000 A 
ENDROOT
BRANCH   1   7
ATOM      7  C   UNL     1      44.572   3.936  11.351  0.00  0.00    +0.000 C 
BRANCH   7   8
ATOM      8  C   UNL     1      44.742   3.968   9.807  0.00  0.00    +0.000 C 
BRANCH   8   9
ATOM      9  N   UNL     1      43.608   4.642   9.149  0.00  0.00    +0.000 NA
ATOM     10  H   UNL     1      42.798   4.599   9.771  0.00  0.00    +0.000 HD
ATOM     11  H   UNL     1      43.339   4.133   8.310  0.00  0.00    +0.000 HD
ENDBRANCH   8   9
BRANCH   8  12
ATOM     12  C   UNL     1      44.891   2.524   9.278  0.00  0.00    +0.000 C 
BRANCH  12  13
ATOM     13  C   UNL     1      45.830   2.360   8.109  0.00  0.00    +0.000 A 
ATOM     14  C   UNL     1      46.050   3.385   7.188  0.00  0.00    +0.000 A 
ATOM     15  C   UNL     1      46.970   3.201   6.156  0.00  0.00    +0.000 A 
ATOM     16  C   UNL     1      47.637   1.990   6.078  0.00  0.00    +0.000 A 
ATOM     17  N   UNL     1      47.438   0.967   6.933  0.00  0.00    +0.000 NA
ATOM     18  C   UNL     1      46.532   1.171   7.918  0.00  0.00    +0.000 A 
ENDBRANCH  12  13
ENDBRANCH   8  12
ENDBRANCH   7   8
ENDBRANCH   1   7
BRANCH   4  19
ATOM     19  C   UNL     1      48.705   6.988  14.123  0.00  0.00    +0.000 C 
BRANCH  19  20
ATOM     20  N   UNL     1      48.379   7.148  15.516  0.00  0.00    +0.000 N 
ATOM     21  C   UNL     1      49.188   6.651  16.503  0.00  0.00    +0.000 C 
ATOM     22  O   UNL     1      50.250   6.089  16.254  0.00  0.00    +0.000 OA
ATOM     23  H   UNL     1      47.423   7.407  15.735  0.00  0.00    +0.000 HD
BRANCH  21  24
ATOM     24  C   UNL     1      48.748   6.885  17.884  0.00  0.00    +0.000 A 
ATOM     25  C   UNL     1      48.375   8.164  18.277  0.00  0.00    +0.000 A 
ATOM     26  S   UNL     1      47.836   8.253  19.892  0.00  0.00    +0.000 S 
ATOM     27  C   UNL     1      48.134   6.597  20.141  0.00  0.00    +0.000 A 
ATOM     28  N   UNL     1      47.899   6.020  21.350  0.00  0.00    +0.000 NA
ATOM     29  C   UNL     1      48.190   4.763  21.408  0.00  0.00    +0.000 A 
ATOM     30  N   UNL     1      48.693   4.031  20.363  0.00  0.00    +0.000 N 
ATOM     31  C   UNL     1      48.926   4.565  19.119  0.00  0.00    +0.000 A 
ATOM     32  O   UNL     1      49.348   3.873  18.199  0.00  0.00    +0.000 OA
ATOM     33  C   UNL     1      48.619   5.979  19.003  0.00  0.00    +0.000 A 
ATOM     34  H   UNL     1      48.899   3.049  20.473  0.00  0.00    +0.000 HD
ENDBRANCH  21  24
ENDBRANCH  19  20
ENDBRANCH   4  19
TORSDOF 8
ENDMDL
MODEL 2
REMARK VINA RESULT:    -8.400      1.278      1.908
REMARK INTER + INTRA:         -12.874
REMARK INTER:                 -11.829
REMARK INTRA:                  -1.045
REMARK UNBOUND:                -0.791
REMARK  Name = 
REMARK  8 active torsions:
REMARK  status: ('A' for Active; 'I' for Inactive)
REMARK    1  A    between atoms: N_1  and  C_2
REMARK    2  A    between atoms: C_2  and  C_3
REMARK    3  A    between atoms: C_2  and  C_24
REMARK    4  A    between atoms: C_3  and  C_4
REMARK    5  A    between atoms: C_7  and  C_8
REMARK    6  A    between atoms: C_8  and  N_9
REMARK    7  A    between atoms: C_10  and  C_12
REMARK    8  A    between atoms: C_24  and  C_25
REMARK                            x       y       z     vdW  Elec       q    Type
REMARK                         _______ _______ _______ _____ _____    ______ ____
ROOT
ATOM      1  C   UNL     1      45.484   4.475  12.169  0.00  0.00    +0.000 A 
ATOM      2  C   UNL     1      45.832   5.777  11.782  0.00  0.00    +0.000 A 
ATOM      3  C   UNL     1      46.773   6.509  12.508  0.00  0.00    +0.000 A 
ATOM      4  C   UNL     1      47.379   5.956  13.644  0.00  0.00    +0.000 A 
ATOM      5  C   UNL     1      46.991   4.676  14.060  0.00  0.00    +0.000 A 
ATOM      6  C   UNL     1      46.061   3.937  13.325  0.00  0.00    +0.000 A 
ENDROOT
BRANCH   1   7
ATOM      7  C   UNL     1      44.530   3.657  11.326  0.00  0.00    +0.000 C 
BRANCH   7   8
ATOM      8  C   UNL     1      44.722   3.840   9.796  0.00  0.00    +0.000 C 
BRANCH   8   9
ATOM      9  N   UNL     1      43.628   4.626   9.200  0.00  0.00    +0.000 NA
ATOM     10  H   UNL     1      43.119   4.032   8.543  0.00  0.00    +0.000 HD
ATOM     11  H   UNL     1      44.008   5.390   8.644  0.00  0.00    +0.000 HD
ENDBRANCH   8   9
BRANCH   8  12
ATOM     12  C   UNL     1      44.817   2.452   9.122  0.00  0.00    +0.000 C 
BRANCH  12  13
ATOM     13  C   UNL     1      45.834   2.341   8.015  0.00  0.00    +0.000 A 
ATOM     14  C   UNL     1      45.999   3.344   7.058  0.00  0.00    +0.000 A 
ATOM     15  C   UNL     1      46.991   3.217   6.087  0.00  0.00    +0.000 A 
ATOM     16  C   UNL     1      47.786   2.083   6.103  0.00  0.00    +0.000 A 
ATOM     17  N   UNL     1      47.646   1.081   6.996  0.00  0.00    +0.000 NA
ATOM     18  C   UNL     1      46.668   1.228   7.919  0.00  0.00    +0.000 A 
ENDBRANCH  12  13
ENDBRANCH   8  12
ENDBRANCH   7   8
ENDBRANCH   1   7
BRANCH   4  19
ATOM     19  C   UNL     1      48.384   6.748  14.437  0.00  0.00    +0.000 C 
BRANCH  19  20
ATOM     20  N   UNL     1      48.197   6.532  15.848  0.00  0.00    +0.000 N 
ATOM     21  C   UNL     1      49.219   6.099  16.648  0.00  0.00    +0.000 C 
ATOM     22  O   UNL     1      50.353   5.918  16.217  0.00  0.00    +0.000 OA
ATOM     23  H   UNL     1      47.239   6.463  16.176  0.00  0.00    +0.000 HD
BRANCH  21  24
ATOM     24  C   UNL     1      48.900   5.921  18.071  0.00  0.00    +0.000 A 
ATOM     25  C   UNL     1      49.142   4.696  18.679  0.00  0.00    +0.000 A 
ATOM     26  S   UNL     1      48.771   4.674  20.343  0.00  0.00    +0.000 S 
ATOM     27  C   UNL     1      48.223   6.284  20.300  0.00  0.00    +0.000 A 
ATOM     28  N   UNL     1      47.738   6.887  21.418  0.00  0.00    +0.000 NA
ATOM     29  C   UNL     1      47.335   8.100  21.239  0.00  0.00    +0.000 A 
ATOM     30  N   UNL     1      47.375   8.766  20.040  0.00  0.00    +0.000 N 
ATOM     31  C   UNL     1      47.876   8.206  18.890  0.00  0.00    +0.000 A 
ATOM     32  O   UNL     1      47.925   8.842  17.842  0.00  0.00    +0.000 OA
ATOM     33  C   UNL     1      48.339   6.838  19.037  0.00  0.00    +0.000 A 
ATOM     34  H   UNL     1      47.045   9.717  19.967  0.00  0.00    +0.000 HD
ENDBRANCH  21  24
ENDBRANCH  19  20
ENDBRANCH   4  19
TORSDOF 8
ENDMDL
MODEL 3
REMARK VINA RESULT:    -7.810      2.809      3.584
REMARK INTER + INTRA:         -12.026
REMARK INTER:                 -11.000
REMARK INTRA:                  -1.025
REMARK UNBOUND:                -0.791
REMARK  Name = 
REMARK  8 active torsions:
REMARK  status: ('A' for Active; 'I' for Inactive)
REMARK    1  A    between atoms: N_1  and  C_2
REMARK    2  A    between atoms: C_2  and  C_3
REMARK    3  A    between atoms: C_2  and  C_24
REMARK    4  A    between atoms: C_3  and  C_4
REMARK    5  A    between atoms: C_7  and  C_8
REMARK    6  A    between atoms: C_8  and  N_9
REMARK    7  A    between atoms: C_10  and  C_12
REMARK    8  A    between atoms: C_24  and  C_25
REMARK                            x       y       z     vdW  Elec       q    Type
REMARK                         _______ _______ _______ _____ _____    ______ ____
ROOT
ATOM      1  C   UNL     1      46.464   5.030  13.085  0.00  0.00    +0.000 A 
ATOM      2  C   UNL     1      46.694   4.564  14.388  0.00  0.00    +0.000 A 
ATOM      3  C   UNL     1      47.566   5.241  15.243  0.00  0.00    +0.000 A 
ATOM      4  C   UNL     1      48.234   6.393  14.808  0.00  0.00    +0.000 A 
ATOM      5  C   UNL     1      48.044   6.826  13.489  0.00  0.00    +0.000 A 
ATOM      6  C   UNL     1      47.160   6.158  12.639  0.00  0.00    +0.000 A 
ENDROOT
BRANCH   1   7
ATOM      7  C   UNL     1      45.451   4.342  12.197  0.00  0.00    +0.000 C 
BRANCH   7   8
ATOM      8  C   UNL     1      44.427   5.307  11.539  0.00  0.00    +0.000 C 
BRANCH   8   9
ATOM      9  N   UNL     1      43.461   5.827  12.523  0.00  0.00    +0.000 NA
ATOM     10  H   UNL     1      43.317   5.118  13.245  0.00  0.00    +0.000 HD
ATOM     11  H   UNL     1      42.552   5.960  12.083  0.00  0.00    +0.000 HD
ENDBRANCH   8   9
BRANCH   8  12
ATOM     12  C   UNL     1      43.690   4.572  10.397  0.00  0.00    +0.000 C 
BRANCH  12  13
ATOM     13  C   UNL     1      44.572   3.781   9.465  0.00  0.00    +0.000 A 
ATOM     14  C   UNL     1      45.402   4.400   8.528  0.00  0.00    +0.000 A 
ATOM     15  C   UNL     1      46.239   3.624   7.727  0.00  0.00    +0.000 A 
ATOM     16  C   UNL     1      46.214   2.249   7.887  0.00  0.00    +0.000 A 
ATOM     17  N   UNL     1      45.412   1.610   8.764  0.00  0.00    +0.000 NA
ATOM     18  C   UNL     1      44.604   2.388   9.520  0.00  0.00    +0.000 A 
ENDBRANCH  12  13
ENDBRANCH   8  12
ENDBRANCH   7   8
ENDBRANCH   1   7
BRANCH   4  19
ATOM     19  C   UNL     1      49.185   7.117  15.723  0.00  0.00    +0.000 C 
BRANCH  19  20
ATOM     20  N   UNL     1      50.201   6.219  16.209  0.00  0.00    +0.000 N 
ATOM     21  C   UNL     1      50.208   5.780  17.505  0.00  0.00    +0.000 C 
ATOM     22  O   UNL     1      49.329   6.090  18.304  0.00  0.00    +0.000 OA
ATOM     23  H   UNL     1      51.038   6.129  15.643  0.00  0.00    +0.000 HD
BRANCH  21  24
ATOM     24  C   UNL     1      51.294   4.863  17.875  0.00  0.00    +0.000 A 
ATOM     25  C   UNL     1      52.452   5.370  18.451  0.00  0.00    +0.000 A 
ATOM     26  S   UNL     1      53.588   4.170  18.872  0.00  0.00    +0.000 S 
ATOM     27  C   UNL     1      52.597   2.935  18.250  0.00  0.00    +0.000 A 
ATOM     28  N   UNL     1      52.999   1.637  18.279  0.00  0.00    +0.000 NA
ATOM     29  C   UNL     1      52.162   0.806  17.754  0.00  0.00    +0.000 A 
ATOM     30  N   UNL     1      50.957   1.158  17.203  0.00  0.00    +0.000 N 
ATOM     31  C   UNL     1      50.499   2.453  17.170  0.00  0.00    +0.000 A 
ATOM     32  O   UNL     1      49.401   2.728  16.697  0.00  0.00    +0.000 OA
ATOM     33  C   UNL     1      51.407   3.428  17.745  0.00  0.00    +0.000 A 
ATOM     34  H   UNL     1      50.345   0.458  16.809  0.00  0.00    +0.000 HD
ENDBRANCH  21  24
ENDBRANCH  19  20
ENDBRANCH   4  19
TORSDOF 8
ENDMDL
MODEL 4
REMARK VINA RESULT:    -7.591      2.328      2.897
REMARK INTER + INTRA:         -11.711
REMARK INTER:                 -10.780
REMARK INTRA:                  -0.931
REMARK UNBOUND:                -0.791
REMARK  Name = 
REMARK  8 active torsions:
REMARK  status: ('A' for Active; 'I' for Inactive)
REMARK    1  A    between atoms: N_1  and  C_2
REMARK    2  A    between atoms: C_2  and  C_3
REMARK    3  A    between atoms: C_2  and  C_24
REMARK    4  A    between atoms: C_3  and  C_4
REMARK    5  A    between atoms: C_7  and  C_8
REMARK    6  A    between atoms: C_8  and  N_9
REMARK    7  A    between atoms: C_10  and  C_12
REMARK    8  A    between atoms: C_24  and  C_25
REMARK                            x       y       z     vdW  Elec       q    Type
REMARK                         _______ _______ _______ _____ _____    ______ ____
ROOT
ATOM      1  C   UNL     1      45.756   4.954  12.195  0.00  0.00    +0.000 A 
ATOM      2  C   UNL     1      46.494   4.608  13.337  0.00  0.00    +0.000 A 
ATOM      3  C   UNL     1      47.303   5.551  13.974  0.00  0.00    +0.000 A 
ATOM      4  C   UNL     1      47.398   6.856  13.477  0.00  0.00    +0.000 A 
ATOM      5  C   UNL     1      46.702   7.186  12.306  0.00  0.00    +0.000 A 
ATOM      6  C   UNL     1      45.880   6.247  11.677  0.00  0.00    +0.000 A 
ENDROOT
BRANCH   1   7
ATOM      7  C   UNL     1      44.814   3.952  11.564  0.00  0.00    +0.000 C 
BRANCH   7   8
ATOM      8  C   UNL     1      44.733   4.049  10.016  0.00  0.00    +0.000 C 
BRANCH   8   9
ATOM      9  N   UNL     1      43.508   4.742   9.577  0.00  0.00    +0.000 NA
ATOM     10  H   UNL     1      42.829   4.041   9.272  0.00  0.00    +0.000 HD
ATOM     11  H   UNL     1      43.704   5.311   8.756  0.00  0.00    +0.000 HD
ENDBRANCH   8   9
BRANCH   8  12
ATOM     12  C   UNL     1      44.794   2.628   9.410  0.00  0.00    +0.000 C 
BRANCH  12  13
ATOM     13  C   UNL     1      45.757   2.457   8.263  0.00  0.00    +0.000 A 
ATOM     14  C   UNL     1      46.439   1.259   8.041  0.00  0.00    +0.000 A 
ATOM     15  C   UNL     1      47.277   1.135   6.933  0.00  0.00    +0.000 A 
ATOM     16  C   UNL     1      47.410   2.221   6.084  0.00  0.00    +0.000 A 
ATOM     17  N   UNL     1      46.787   3.403   6.274  0.00  0.00    +0.000 NA
ATOM     18  C   UNL     1      45.988   3.496   7.363  0.00  0.00    +0.000 A 
ENDBRANCH  12  13
ENDBRANCH   8  12
ENDBRANCH   7   8
ENDBRANCH   1   7
BRANCH   4  19
ATOM     19  C   UNL     1      48.281   7.871  14.154  0.00  0.00    +0.000 C 
BRANCH  19  20
ATOM     20  N   UNL     1      49.455   7.238  14.695  0.00  0.00    +0.000 N 
ATOM     21  C   UNL     1      49.674   7.170  16.044  0.00  0.00    +0.000 C 
ATOM     22  O   UNL     1      48.864   7.601  16.859  0.00  0.00    +0.000 OA
ATOM     23  H   UNL     1      50.224   7.077  14.053  0.00  0.00    +0.000 HD
BRANCH  21  24
ATOM     24  C   UNL     1      50.906   6.494  16.469  0.00  0.00    +0.000 A 
ATOM     25  C   UNL     1      52.133   7.108  16.255  0.00  0.00    +0.000 A 
ATOM     26  S   UNL     1      53.458   6.219  16.857  0.00  0.00    +0.000 S 
ATOM     27  C   UNL     1      52.445   4.955  17.377  0.00  0.00    +0.000 A 
ATOM     28  N   UNL     1      52.960   3.848  17.974  0.00  0.00    +0.000 NA
ATOM     29  C   UNL     1      52.083   2.958  18.298  0.00  0.00    +0.000 A 
ATOM     30  N   UNL     1      50.734   3.077  18.080  0.00  0.00    +0.000 N 
ATOM     31  C   UNL     1      50.166   4.186  17.501  0.00  0.00    +0.000 A 
ATOM     32  O   UNL     1      48.951   4.272  17.349  0.00  0.00    +0.000 OA
ATOM     33  C   UNL     1      51.111   5.216  17.113  0.00  0.00    +0.000 A 
ATOM     34  H   UNL     1      50.099   2.344  18.359  0.00  0.00    +0.000 HD
ENDBRANCH  21  24
ENDBRANCH  19  20
ENDBRANCH   4  19
TORSDOF 8
ENDMDL
MODEL 5
REMARK VINA RESULT:    -7.526      1.765      2.202
REMARK INTER + INTRA:         -11.616
REMARK INTER:                 -11.850
REMARK INTRA:                   0.233
REMARK UNBOUND:                -0.791
REMARK  Name = 
REMARK  8 active torsions:
REMARK  status: ('A' for Active; 'I' for Inactive)
REMARK    1  A    between atoms: N_1  and  C_2
REMARK    2  A    between atoms: C_2  and  C_3
REMARK    3  A    between atoms: C_2  and  C_24
REMARK    4  A    between atoms: C_3  and  C_4
REMARK    5  A    between atoms: C_7  and  C_8
REMARK    6  A    between atoms: C_8  and  N_9
REMARK    7  A    between atoms: C_10  and  C_12
REMARK    8  A    between atoms: C_24  and  C_25
REMARK                            x       y       z     vdW  Elec       q    Type
REMARK                         _______ _______ _______ _____ _____    ______ ____
ROOT
ATOM      1  C   UNL     1      44.494   5.463  11.475  0.00  0.00    +0.000 A 
ATOM      2  C   UNL     1      45.379   4.918  12.417  0.00  0.00    +0.000 A 
ATOM      3  C   UNL     1      46.314   5.725  13.066  0.00  0.00    +0.000 A 
ATOM      4  C   UNL     1      46.392   7.093  12.779  0.00  0.00    +0.000 A 
ATOM      5  C   UNL     1      45.544   7.627  11.799  0.00  0.00    +0.000 A 
ATOM      6  C   UNL     1      44.596   6.822  11.160  0.00  0.00    +0.000 A 
ENDROOT
BRANCH   1   7
ATOM      7  C   UNL     1      43.425   4.600  10.842  0.00  0.00    +0.000 C 
BRANCH   7   8
ATOM      8  C   UNL     1      43.980   3.473   9.928  0.00  0.00    +0.000 C 
BRANCH   8   9
ATOM      9  N   UNL     1      44.620   2.403  10.712  0.00  0.00    +0.000 NA
ATOM     10  H   UNL     1      44.070   2.246  11.559  0.00  0.00    +0.000 HD
ATOM     11  H   UNL     1      45.539   2.705  11.031  0.00  0.00    +0.000 HD
ENDBRANCH   8   9
BRANCH   8  12
ATOM     12  C   UNL     1      44.985   4.079   8.921  0.00  0.00    +0.000 C 
BRANCH  12  13
ATOM     13  C   UNL     1      45.799   3.078   8.142  0.00  0.00    +0.000 A 
ATOM     14  C   UNL     1      46.579   3.451   7.046  0.00  0.00    +0.000 A 
ATOM     15  C   UNL     1      47.356   2.496   6.393  0.00  0.00    +0.000 A 
ATOM     16  C   UNL     1      47.323   1.191   6.857  0.00  0.00    +0.000 A 
ATOM     17  N   UNL     1      46.567   0.785   7.898  0.00  0.00    +0.000 NA
ATOM     18  C   UNL     1      45.816   1.732   8.505  0.00  0.00    +0.000 A 
ENDBRANCH  12  13
ENDBRANCH   8  12
ENDBRANCH   7   8
ENDBRANCH   1   7
BRANCH   4  19
ATOM     19  C   UNL     1      47.409   7.964  13.468  0.00  0.00    +0.000 C 
BRANCH  19  20
ATOM     20  N   UNL     1      47.764   7.409  14.748  0.00  0.00    +0.000 N 
ATOM     21  C   UNL     1      49.066   7.138  15.075  0.00  0.00    +0.000 C 
ATOM     22  O   UNL     1      49.996   7.397  14.317  0.00  0.00    +0.000 OA
ATOM     23  H   UNL     1      47.014   6.992  15.289  0.00  0.00    +0.000 HD
BRANCH  21  24
ATOM     24  C   UNL     1      49.297   6.579  16.413  0.00  0.00    +0.000 A 
ATOM     25  C   UNL     1      50.053   7.293  17.332  0.00  0.00    +0.000 A 
ATOM     26  S   UNL     1      50.179   6.532  18.853  0.00  0.00    +0.000 S 
ATOM     27  C   UNL     1      49.273   5.195  18.321  0.00  0.00    +0.000 A 
ATOM     28  N   UNL     1      49.024   4.146  19.150  0.00  0.00    +0.000 NA
ATOM     29  C   UNL     1      48.345   3.189  18.611  0.00  0.00    +0.000 A 
ATOM     30  N   UNL     1      47.891   3.187  17.317  0.00  0.00    +0.000 N 
ATOM     31  C   UNL     1      48.099   4.233  16.450  0.00  0.00    +0.000 A 
ATOM     32  O   UNL     1      47.652   4.211  15.308  0.00  0.00    +0.000 OA
ATOM     33  C   UNL     1      48.863   5.335  17.007  0.00  0.00    +0.000 A 
ATOM     34  H   UNL     1      47.363   2.407  16.956  0.00  0.00    +0.000 HD
ENDBRANCH  21  24
ENDBRANCH  19  20
ENDBRANCH   4  19
TORSDOF 8
ENDMDL
MODEL 6
REMARK VINA RESULT:    -7.406      3.415      9.165
REMARK INTER + INTRA:         -11.445
REMARK INTER:                  -9.683
REMARK INTRA:                  -1.761
REMARK UNBOUND:                -0.791
REMARK  Name = 
REMARK  8 active torsions:
REMARK  status: ('A' for Active; 'I' for Inactive)
REMARK    1  A    between atoms: N_1  and  C_2
REMARK    2  A    between atoms: C_2  and  C_3
REMARK    3  A    between atoms: C_2  and  C_24
REMARK    4  A    between atoms: C_3  and  C_4
REMARK    5  A    between atoms: C_7  and  C_8
REMARK    6  A    between atoms: C_8  and  N_9
REMARK    7  A    between atoms: C_10  and  C_12
REMARK    8  A    between atoms: C_24  and  C_25
REMARK                            x       y       z     vdW  Elec       q    Type
REMARK                         _______ _______ _______ _____ _____    ______ ____
ROOT
ATOM      1  C   UNL     1      49.082   8.042  16.190  0.00  0.00    +0.000 A 
ATOM      2  C   UNL     1      48.390   9.128  15.636  0.00  0.00    +0.000 A 
ATOM      3  C   UNL     1      47.904   9.071  14.328  0.00  0.00    +0.000 A 
ATOM      4  C   UNL     1      48.110   7.929  13.544  0.00  0.00    +0.000 A 
ATOM      5  C   UNL     1      48.849   6.866  14.081  0.00  0.00    +0.000 A 
ATOM      6  C   UNL     1      49.322   6.917  15.395  0.00  0.00    +0.000 A 
ENDROOT
BRANCH   1   7
ATOM      7  C   UNL     1      49.527   8.078  17.636  0.00  0.00    +0.000 C 
BRANCH   7   8
ATOM      8  C   UNL     1      48.477   7.519  18.635  0.00  0.00    +0.000 C 
BRANCH   8   9
ATOM      9  N   UNL     1      48.219   8.463  19.737  0.00  0.00    +0.000 NA
ATOM     10  H   UNL     1      47.235   8.741  19.704  0.00  0.00    +0.000 HD
ATOM     11  H   UNL     1      48.752   9.319  19.596  0.00  0.00    +0.000 HD
ENDBRANCH   8   9
BRANCH   8  12
ATOM     12  C   UNL     1      48.970   6.163  19.191  0.00  0.00    +0.000 C 
BRANCH  12  13
ATOM     13  C   UNL     1      48.683   4.967  18.320  0.00  0.00    +0.000 A 
ATOM     14  C   UNL     1      47.391   4.653  17.896  0.00  0.00    +0.000 A 
ATOM     15  C   UNL     1      47.187   3.567  17.045  0.00  0.00    +0.000 A 
ATOM     16  C   UNL     1      48.288   2.825  16.650  0.00  0.00    +0.000 A 
ATOM     17  N   UNL     1      49.549   3.081  17.054  0.00  0.00    +0.000 NA
ATOM     18  C   UNL     1      49.714   4.135  17.886  0.00  0.00    +0.000 A 
ENDBRANCH  12  13
ENDBRANCH   8  12
ENDBRANCH   7   8
ENDBRANCH   1   7
BRANCH   4  19
ATOM     19  C   UNL     1      47.600   7.869  12.129  0.00  0.00    +0.000 C 
BRANCH  19  20
ATOM     20  N   UNL     1      46.904   6.631  11.895  0.00  0.00    +0.000 N 
ATOM     21  C   UNL     1      45.537   6.562  11.919  0.00  0.00    +0.000 C 
ATOM     22  O   UNL     1      44.837   7.555  12.092  0.00  0.00    +0.000 OA
ATOM     23  H   UNL     1      47.451   5.779  11.968  0.00  0.00    +0.000 HD
BRANCH  21  24
ATOM     24  C   UNL     1      44.948   5.242  11.660  0.00  0.00    +0.000 A 
ATOM     25  C   UNL     1      44.258   4.590  12.674  0.00  0.00    +0.000 A 
ATOM     26  S   UNL     1      43.589   3.097  12.195  0.00  0.00    +0.000 S 
ATOM     27  C   UNL     1      44.244   3.241  10.631  0.00  0.00    +0.000 A 
ATOM     28  N   UNL     1      44.056   2.266   9.703  0.00  0.00    +0.000 NA
ATOM     29  C   UNL     1      44.626   2.493   8.567  0.00  0.00    +0.000 A 
ATOM     30  N   UNL     1      45.366   3.610   8.275  0.00  0.00    +0.000 N 
ATOM     31  C   UNL     1      45.565   4.631   9.173  0.00  0.00    +0.000 A 
ATOM     32  O   UNL     1      46.207   5.630   8.868  0.00  0.00    +0.000 OA
ATOM     33  C   UNL     1      44.947   4.422  10.470  0.00  0.00    +0.000 A 
ATOM     34  H   UNL     1      45.786   3.728   7.365  0.00  0.00    +0.000 HD
ENDBRANCH  21  24
ENDBRANCH  19  20
ENDBRANCH   4  19
TORSDOF 8
ENDMDL
MODEL 7
REMARK VINA RESULT:    -7.354      2.646      3.593
REMARK INTER + INTRA:         -11.369
REMARK INTER:                 -10.388
REMARK INTRA:                  -0.981
REMARK UNBOUND:                -0.791
REMARK  Name = 
REMARK  8 active torsions:
REMARK  status: ('A' for Active; 'I' for Inactive)
REMARK    1  A    between atoms: N_1  and  C_2
REMARK    2  A    between atoms: C_2  and  C_3
REMARK    3  A    between atoms: C_2  and  C_24
REMARK    4  A    between atoms: C_3  and  C_4
REMARK    5  A    between atoms: C_7  and  C_8
REMARK    6  A    between atoms: C_8  and  N_9
REMARK    7  A    between atoms: C_10  and  C_12
REMARK    8  A    between atoms: C_24  and  C_25
REMARK                            x       y       z     vdW  Elec       q    Type
REMARK                         _______ _______ _______ _____ _____    ______ ____
ROOT
ATOM      1  C   UNL     1      45.343   5.034  12.097  0.00  0.00    +0.000 A 
ATOM      2  C   UNL     1      45.161   6.410  11.895  0.00  0.00    +0.000 A 
ATOM      3  C   UNL     1      46.001   7.338  12.513  0.00  0.00    +0.000 A 
ATOM      4  C   UNL     1      47.035   6.908  13.354  0.00  0.00    +0.000 A 
ATOM      5  C   UNL     1      47.183   5.536  13.597  0.00  0.00    +0.000 A 
ATOM      6  C   UNL     1      46.351   4.606  12.966  0.00  0.00    +0.000 A 
ENDROOT
BRANCH   1   7
ATOM      7  C   UNL     1      44.485   4.033  11.354  0.00  0.00    +0.000 C 
BRANCH   7   8
ATOM      8  C   UNL     1      44.697   4.037   9.815  0.00  0.00    +0.000 C 
BRANCH   8   9
ATOM      9  N   UNL     1      43.585   4.706   9.115  0.00  0.00    +0.000 NA
ATOM     10  H   UNL     1      43.023   5.211   9.803  0.00  0.00    +0.000 HD
ATOM     11  H   UNL     1      42.962   4.012   8.706  0.00  0.00    +0.000 HD
ENDBRANCH   8   9
BRANCH   8  12
ATOM     12  C   UNL     1      44.850   2.583   9.315  0.00  0.00    +0.000 C 
BRANCH  12  13
ATOM     13  C   UNL     1      45.796   2.396   8.156  0.00  0.00    +0.000 A 
ATOM     14  C   UNL     1      46.014   3.399   7.209  0.00  0.00    +0.000 A 
ATOM     15  C   UNL     1      46.941   3.196   6.188  0.00  0.00    +0.000 A 
ATOM     16  C   UNL     1      47.618   1.989   6.145  0.00  0.00    +0.000 A 
ATOM     17  N   UNL     1      47.422   0.986   7.026  0.00  0.00    +0.000 NA
ATOM     18  C   UNL     1      46.510   1.208   7.999  0.00  0.00    +0.000 A 
ENDBRANCH  12  13
ENDBRANCH   8  12
ENDBRANCH   7   8
ENDBRANCH   1   7
BRANCH   4  19
ATOM     19  C   UNL     1      47.935   7.907  14.033  0.00  0.00    +0.000 C 
BRANCH  19  20
ATOM     20  N   UNL     1      49.053   7.242  14.649  0.00  0.00    +0.000 N 
ATOM     21  C   UNL     1      49.282   7.326  15.996  0.00  0.00    +0.000 C 
ATOM     22  O   UNL     1      48.526   7.930  16.750  0.00  0.00    +0.000 OA
ATOM     23  H   UNL     1      49.795   6.930  14.032  0.00  0.00    +0.000 HD
BRANCH  21  24
ATOM     24  C   UNL     1      50.452   6.598  16.503  0.00  0.00    +0.000 A 
ATOM     25  C   UNL     1      50.283   5.620  17.474  0.00  0.00    +0.000 A 
ATOM     26  S   UNL     1      51.730   4.832  17.912  0.00  0.00    +0.000 S 
ATOM     27  C   UNL     1      52.645   5.808  16.860  0.00  0.00    +0.000 A 
ATOM     28  N   UNL     1      53.993   5.660  16.766  0.00  0.00    +0.000 NA
ATOM     29  C   UNL     1      54.565   6.479  15.948  0.00  0.00    +0.000 A 
ATOM     30  N   UNL     1      53.907   7.433  15.213  0.00  0.00    +0.000 N 
ATOM     31  C   UNL     1      52.545   7.604  15.259  0.00  0.00    +0.000 A 
ATOM     32  O   UNL     1      51.987   8.448  14.564  0.00  0.00    +0.000 OA
ATOM     33  C   UNL     1      51.854   6.709  16.169  0.00  0.00    +0.000 A 
ATOM     34  H   UNL     1      54.414   8.043  14.589  0.00  0.00    +0.000 HD
ENDBRANCH  21  24
ENDBRANCH  19  20
ENDBRANCH   4  19
TORSDOF 8
ENDMDL
MODEL 8
REMARK VINA RESULT:    -7.293      4.625      6.952
REMARK INTER + INTRA:         -11.282
REMARK INTER:                  -9.902
REMARK INTRA:                  -1.380
REMARK UNBOUND:                -0.791
REMARK  Name = 
REMARK  8 active torsions:
REMARK  status: ('A' for Active; 'I' for Inactive)
REMARK    1  A    between atoms: N_1  and  C_2
REMARK    2  A    between atoms: C_2  and  C_3
REMARK    3  A    between atoms: C_2  and  C_24
REMARK    4  A    between atoms: C_3  and  C_4
REMARK    5  A    between atoms: C_7  and  C_8
REMARK    6  A    between atoms: C_8  and  N_9
REMARK    7  A    between atoms: C_10  and  C_12
REMARK    8  A    between atoms: C_24  and  C_25
REMARK                            x       y       z     vdW  Elec       q    Type
REMARK                         _______ _______ _______ _____ _____    ______ ____
ROOT
ATOM      1  C   UNL     1      45.863   4.776  12.318  0.00  0.00    +0.000 A 
ATOM      2  C   UNL     1      46.768   4.880  13.384  0.00  0.00    +0.000 A 
ATOM      3  C   UNL     1      47.402   6.092  13.665  0.00  0.00    +0.000 A 
ATOM      4  C   UNL     1      47.151   7.223  12.878  0.00  0.00    +0.000 A 
ATOM      5  C   UNL     1      46.287   7.104  11.781  0.00  0.00    +0.000 A 
ATOM      6  C   UNL     1      45.641   5.895  11.509  0.00  0.00    +0.000 A 
ENDROOT
BRANCH   1   7
ATOM      7  C   UNL     1      45.114   3.484  12.076  0.00  0.00    +0.000 C 
BRANCH   7   8
ATOM      8  C   UNL     1      44.077   3.560  10.922  0.00  0.00    +0.000 C 
BRANCH   8   9
ATOM      9  N   UNL     1      42.694   3.552  11.433  0.00  0.00    +0.000 NA
ATOM     10  H   UNL     1      42.714   3.297  12.423  0.00  0.00    +0.000 HD
ATOM     11  H   UNL     1      42.155   2.822  10.971  0.00  0.00    +0.000 HD
ENDBRANCH   8   9
BRANCH   8  12
ATOM     12  C   UNL     1      44.300   2.376   9.953  0.00  0.00    +0.000 C 
BRANCH  12  13
ATOM     13  C   UNL     1      45.312   2.618   8.863  0.00  0.00    +0.000 A 
ATOM     14  C   UNL     1      46.081   1.584   8.324  0.00  0.00    +0.000 A 
ATOM     15  C   UNL     1      46.963   1.852   7.279  0.00  0.00    +0.000 A 
ATOM     16  C   UNL     1      47.054   3.152   6.810  0.00  0.00    +0.000 A 
ATOM     17  N   UNL     1      46.347   4.183   7.317  0.00  0.00    +0.000 NA
ATOM     18  C   UNL     1      45.505   3.894   8.337  0.00  0.00    +0.000 A 
ENDBRANCH  12  13
ENDBRANCH   8  12
ENDBRANCH   7   8
ENDBRANCH   1   7
BRANCH   4  19
ATOM     19  C   UNL     1      47.843   8.527  13.170  0.00  0.00    +0.000 C 
BRANCH  19  20
ATOM     20  N   UNL     1      48.853   8.795  12.179  0.00  0.00    +0.000 N 
ATOM     21  C   UNL     1      50.176   8.537  12.416  0.00  0.00    +0.000 C 
ATOM     22  O   UNL     1      50.563   8.024  13.461  0.00  0.00    +0.000 OA
ATOM     23  H   UNL     1      48.590   9.409  11.414  0.00  0.00    +0.000 HD
BRANCH  21  24
ATOM     24  C   UNL     1      51.105   8.850  11.323  0.00  0.00    +0.000 A 
ATOM     25  C   UNL     1      51.980   7.872  10.868  0.00  0.00    +0.000 A 
ATOM     26  S   UNL     1      52.951   8.378   9.560  0.00  0.00    +0.000 S 
ATOM     27  C   UNL     1      52.275   9.939   9.591  0.00  0.00    +0.000 A 
ATOM     28  N   UNL     1      52.691  10.897   8.720  0.00  0.00    +0.000 NA
ATOM     29  C   UNL     1      52.113  12.042   8.868  0.00  0.00    +0.000 A 
ATOM     30  N   UNL     1      51.153  12.314   9.808  0.00  0.00    +0.000 N 
ATOM     31  C   UNL     1      50.685  11.374  10.694  0.00  0.00    +0.000 A 
ATOM     32  O   UNL     1      49.803  11.644  11.503  0.00  0.00    +0.000 OA
ATOM     33  C   UNL     1      51.309  10.068  10.572  0.00  0.00    +0.000 A 
ATOM     34  H   UNL     1      50.737  13.232   9.871  0.00  0.00    +0.000 HD
ENDBRANCH  21  24
ENDBRANCH  19  20
ENDBRANCH   4  19
TORSDOF 8
ENDMDL
MODEL 9
REMARK VINA RESULT:    -7.138      4.071      6.312
REMARK INTER + INTRA:         -11.059
REMARK INTER:                 -10.244
REMARK INTRA:                  -0.815
REMARK UNBOUND:                -0.791
REMARK  Name = 
REMARK  8 active torsions:
REMARK  status: ('A' for Active; 'I' for Inactive)
REMARK    1  A    between atoms: N_1  and  C_2
REMARK    2  A    between atoms: C_2  and  C_3
REMARK    3  A    between atoms: C_2  and  C_24
REMARK    4  A    between atoms: C_3  and  C_4
REMARK    5  A    between atoms: C_7  and  C_8
REMARK    6  A    between atoms: C_8  and  N_9
REMARK    7  A    between atoms: C_10  and  C_12
REMARK    8  A    between atoms: C_24  and  C_25
REMARK                            x       y       z     vdW  Elec       q    Type
REMARK                         _______ _______ _______ _____ _____    ______ ____
ROOT
ATOM      1  C   UNL     1      45.505   4.798  12.129  0.00  0.00    +0.000 A 
ATOM      2  C   UNL     1      45.708   6.104  11.660  0.00  0.00    +0.000 A 
ATOM      3  C   UNL     1      46.618   6.954  12.290  0.00  0.00    +0.000 A 
ATOM      4  C   UNL     1      47.338   6.518  13.409  0.00  0.00    +0.000 A 
ATOM      5  C   UNL     1      47.096   5.232  13.909  0.00  0.00    +0.000 A 
ATOM      6  C   UNL     1      46.196   4.375  13.269  0.00  0.00    +0.000 A 
ENDROOT
BRANCH   1   7
ATOM      7  C   UNL     1      44.584   3.854  11.387  0.00  0.00    +0.000 C 
BRANCH   7   8
ATOM      8  C   UNL     1      44.728   3.913   9.841  0.00  0.00    +0.000 C 
BRANCH   8   9
ATOM      9  N   UNL     1      43.575   4.581   9.212  0.00  0.00    +0.000 NA
ATOM     10  H   UNL     1      43.449   4.197   8.273  0.00  0.00    +0.000 HD
ATOM     11  H   UNL     1      43.773   5.571   9.081  0.00  0.00    +0.000 HD
ENDBRANCH   8   9
BRANCH   8  12
ATOM     12  C   UNL     1      44.890   2.479   9.287  0.00  0.00    +0.000 C 
BRANCH  12  13
ATOM     13  C   UNL     1      45.832   2.343   8.118  0.00  0.00    +0.000 A 
ATOM     14  C   UNL     1      46.019   3.372   7.194  0.00  0.00    +0.000 A 
ATOM     15  C   UNL     1      46.944   3.215   6.163  0.00  0.00    +0.000 A 
ATOM     16  C   UNL     1      47.650   2.026   6.086  0.00  0.00    +0.000 A 
ATOM     17  N   UNL     1      47.484   0.999   6.945  0.00  0.00    +0.000 NA
ATOM     18  C   UNL     1      46.572   1.177   7.929  0.00  0.00    +0.000 A 
ENDBRANCH  12  13
ENDBRANCH   8  12
ENDBRANCH   7   8
ENDBRANCH   1   7
BRANCH   4  19
ATOM     19  C   UNL     1      48.310   7.438  14.100  0.00  0.00    +0.000 C 
BRANCH  19  20
ATOM     20  N   UNL     1      48.791   8.442  13.187  0.00  0.00    +0.000 N 
ATOM     21  C   UNL     1      50.127   8.706  13.052  0.00  0.00    +0.000 C 
ATOM     22  O   UNL     1      50.982   8.074  13.663  0.00  0.00    +0.000 OA
ATOM     23  H   UNL     1      48.109   9.111  12.844  0.00  0.00    +0.000 HD
BRANCH  21  24
ATOM     24  C   UNL     1      50.488   9.750  12.084  0.00  0.00    +0.000 A 
ATOM     25  C   UNL     1      49.980  11.033  12.239  0.00  0.00    +0.000 A 
ATOM     26  S   UNL     1      50.541  12.137  11.066  0.00  0.00    +0.000 S 
ATOM     27  C   UNL     1      51.440  10.927  10.277  0.00  0.00    +0.000 A 
ATOM     28  N   UNL     1      52.156  11.210   9.156  0.00  0.00    +0.000 NA
ATOM     29  C   UNL     1      52.772  10.196   8.646  0.00  0.00    +0.000 A 
ATOM     30  N   UNL     1      52.737   8.924   9.158  0.00  0.00    +0.000 N 
ATOM     31  C   UNL     1      52.045   8.596  10.299  0.00  0.00    +0.000 A 
ATOM     32  O   UNL     1      52.060   7.454  10.746  0.00  0.00    +0.000 OA
ATOM     33  C   UNL     1      51.330   9.702  10.910  0.00  0.00    +0.000 A 
ATOM     34  H   UNL     1      53.243   8.174   8.712  0.00  0.00    +0.000 HD
ENDBRANCH  21  24
ENDBRANCH  19  20
ENDBRANCH   4  19
TORSDOF 8
ENDMDL
