MODEL 1
REMARK VINA RESULT:    -7.400      0.000      0.000
REMARK INTER + INTRA:         -10.483
REMARK INTER:                  -9.563
REMARK INTRA:                  -0.920
REMARK UNBOUND:                -0.920
REMARK  Name = 
REMARK  5 active torsions:
REMARK  status: ('A' for Active; 'I' for Inactive)
REMARK    1  A    between atoms: C_2  and  C_4
REMARK    2  A    between atoms: C_6  and  O_7
REMARK    3  A    between atoms: O_7  and  C_8
REMARK    4  A    between atoms: C_8  and  C_9
REMARK    5  A    between atoms: C_14  and  N_15
REMARK                            x       y       z     vdW  Elec       q    Type
REMARK                         _______ _______ _______ _____ _____    ______ ____
ROOT
ATOM      1  C   UNL     1      43.743   4.494  10.591  0.00  0.00    +0.000 C 
ENDROOT
BRANCH   1   2
ATOM      2  C   UNL     1      44.839   4.836  11.576  0.00  0.00    +0.000 A 
ATOM      3  C   UNL     1      45.231   3.917  12.557  0.00  0.00    +0.000 A 
ATOM      4  C   UNL     1      46.264   4.229  13.436  0.00  0.00    +0.000 A 
ATOM      5  C   UNL     1      46.922   5.455  13.330  0.00  0.00    +0.000 A 
ATOM      6  F   UNL     1      47.902   5.713  14.212  0.00  0.00    +0.000 F 
ATOM      7  C   UNL     1      46.569   6.407  12.360  0.00  0.00    +0.000 A 
ATOM      8  C   UNL     1      45.500   6.076  11.505  0.00  0.00    +0.000 A 
BRANCH   7   9
ATOM      9  N   UNL     1      47.244   7.603  12.166  0.00  0.00    +0.000 N 
ATOM     10  C   UNL     1      48.564   7.639  11.517  0.00  0.00    +0.000 C 
ATOM     11  C   UNL     1      49.667   8.049  12.500  0.00  0.00    +0.000 C 
ATOM     12  O   UNL     1      49.336   9.270  13.182  0.00  0.00    +0.000 OA
ATOM     13  C   UNL     1      48.125   9.096  13.934  0.00  0.00    +0.000 C 
ATOM     14  C   UNL     1      46.933   8.758  13.023  0.00  0.00    +0.000 C 
ENDBRANCH   7   9
ENDBRANCH   1   2
BRANCH   1  15
ATOM     15  O   UNL     1      44.223   4.679   9.261  0.00  0.00    +0.000 OA
BRANCH  15  18
ATOM     16  C   UNL     1      46.492   2.594   7.232  0.00  0.00    +0.000 A 
ATOM     17  C   UNL     1      45.858   3.758   7.666  0.00  0.00    +0.000 A 
ATOM     18  C   UNL     1      44.934   3.651   8.700  0.00  0.00    +0.000 A 
ATOM     19  C   UNL     1      44.686   2.400   9.254  0.00  0.00    +0.000 A 
ATOM     20  C   UNL     1      45.361   1.295   8.752  0.00  0.00    +0.000 A 
ATOM     21  N   UNL     1      46.258   1.357   7.748  0.00  0.00    +0.000 NA
BRANCH  16  23
ATOM     22  N   UNL     1      48.801   2.415   6.451  0.00  0.00    +0.000 N 
ATOM     23  C   UNL     1      47.496   2.670   6.124  0.00  0.00    +0.000 C 
ATOM     24  O   UNL     1      47.172   2.924   4.967  0.00  0.00    +0.000 OA
ATOM     25  H   UNL     1      49.472   2.357   5.700  0.00  0.00    +0.000 HD
ATOM     26  H   UNL     1      49.021   2.014   7.357  0.00  0.00    +0.000 HD
ENDBRANCH  16  23
ENDBRANCH  15  18
ENDBRANCH   1  15
TORSDOF 5
ENDMDL
MODEL 2
REMARK VINA RESULT:    -7.166      3.303      7.357
REMARK INTER + INTRA:         -10.181
REMARK INTER:                  -9.704
REMARK INTRA:                  -0.476
REMARK UNBOUND:                -0.920
REMARK  Name = 
REMARK  5 active torsions:
REMARK  status: ('A' for Active; 'I' for Inactive)
REMARK    1  A    between atoms: C_2  and  C_4
REMARK    2  A    between atoms: C_6  and  O_7
REMARK    3  A    between atoms: O_7  and  C_8
REMARK    4  A    between atoms: C_8  and  C_9
REMARK    5  A    between atoms: C_14  and  N_15
REMARK                            x       y       z     vdW  Elec       q    Type
REMARK                         _______ _______ _______ _____ _____    ______ ____
ROOT
ATOM      1  C   UNL     1      45.793   6.745  12.585  0.00  0.00    +0.000 C 
ENDROOT
BRANCH   1   2
ATOM      2  C   UNL     1      45.015   5.485  12.274  0.00  0.00    +0.000 A 
ATOM      3  C   UNL     1      44.151   4.926  13.223  0.00  0.00    +0.000 A 
ATOM      4  C   UNL     1      43.415   3.785  12.914  0.00  0.00    +0.000 A 
ATOM      5  C   UNL     1      43.525   3.208  11.649  0.00  0.00    +0.000 A 
ATOM      6  F   UNL     1      42.804   2.101  11.406  0.00  0.00    +0.000 F 
ATOM      7  C   UNL     1      44.373   3.735  10.661  0.00  0.00    +0.000 A 
ATOM      8  C   UNL     1      45.129   4.869  11.014  0.00  0.00    +0.000 A 
BRANCH   7   9
ATOM      9  N   UNL     1      44.456   3.243   9.367  0.00  0.00    +0.000 N 
ATOM     10  C   UNL     1      44.689   1.814   9.105  0.00  0.00    +0.000 C 
ATOM     11  C   UNL     1      46.067   1.571   8.478  0.00  0.00    +0.000 C 
ATOM     12  O   UNL     1      46.273   2.401   7.323  0.00  0.00    +0.000 OA
ATOM     13  C   UNL     1      46.203   3.785   7.698  0.00  0.00    +0.000 C 
ATOM     14  C   UNL     1      44.823   4.152   8.269  0.00  0.00    +0.000 C 
ENDBRANCH   7   9
ENDBRANCH   1   2
BRANCH   1  15
ATOM     15  O   UNL     1      47.179   6.432  12.699  0.00  0.00    +0.000 OA
BRANCH  15  18
ATOM     16  C   UNL     1      47.903   4.702  15.877  0.00  0.00    +0.000 A 
ATOM     17  C   UNL     1      47.322   4.904  14.625  0.00  0.00    +0.000 A 
ATOM     18  C   UNL     1      47.642   6.068  13.936  0.00  0.00    +0.000 A 
ATOM     19  C   UNL     1      48.524   6.973  14.519  0.00  0.00    +0.000 A 
ATOM     20  C   UNL     1      49.049   6.691  15.772  0.00  0.00    +0.000 A 
ATOM     21  N   UNL     1      48.758   5.578  16.474  0.00  0.00    +0.000 NA
BRANCH  16  23
ATOM     22  N   UNL     1      48.566   2.505  16.715  0.00  0.00    +0.000 N 
ATOM     23  C   UNL     1      47.587   3.459  16.647  0.00  0.00    +0.000 C 
ATOM     24  O   UNL     1      46.509   3.301  17.216  0.00  0.00    +0.000 OA
ATOM     25  H   UNL     1      48.408   1.710  17.316  0.00  0.00    +0.000 HD
ATOM     26  H   UNL     1      49.508   2.732  16.415  0.00  0.00    +0.000 HD
ENDBRANCH  16  23
ENDBRANCH  15  18
ENDBRANCH   1  15
TORSDOF 5
ENDMDL
MODEL 3
REMARK VINA RESULT:    -7.086      1.726      2.423
REMARK INTER + INTRA:         -10.078
REMARK INTER:                  -9.279
REMARK INTRA:                  -0.799
REMARK UNBOUND:                -0.920
REMARK  Name = 
REMARK  5 active torsions:
REMARK  status: ('A' for Active; 'I' for Inactive)
REMARK    1  A    between atoms: C_2  and  C_4
REMARK    2  A    between atoms: C_6  and  O_7
REMARK    3  A    between atoms: O_7  and  C_8
REMARK    4  A    between atoms: C_8  and  C_9
REMARK    5  A    between atoms: C_14  and  N_15
REMARK                            x       y       z     vdW  Elec       q    Type
REMARK                         _______ _______ _______ _____ _____    ______ ____
ROOT
ATOM      1  C   UNL     1      44.087   2.869  11.892  0.00  0.00    +0.000 C 
ENDROOT
BRANCH   1   2
ATOM      2  C   UNL     1      44.574   4.257  12.243  0.00  0.00    +0.000 A 
ATOM      3  C   UNL     1      43.689   5.342  12.263  0.00  0.00    +0.000 A 
ATOM      4  C   UNL     1      44.143   6.609  12.620  0.00  0.00    +0.000 A 
ATOM      5  C   UNL     1      45.478   6.796  12.976  0.00  0.00    +0.000 A 
ATOM      6  F   UNL     1      45.868   8.040  13.299  0.00  0.00    +0.000 F 
ATOM      7  C   UNL     1      46.403   5.738  12.976  0.00  0.00    +0.000 A 
ATOM      8  C   UNL     1      45.923   4.476  12.580  0.00  0.00    +0.000 A 
BRANCH   7   9
ATOM      9  N   UNL     1      47.719   5.860  13.397  0.00  0.00    +0.000 N 
ATOM     10  C   UNL     1      48.074   5.802  14.824  0.00  0.00    +0.000 C 
ATOM     11  C   UNL     1      48.579   7.156  15.335  0.00  0.00    +0.000 C 
ATOM     12  O   UNL     1      49.635   7.672  14.508  0.00  0.00    +0.000 OA
ATOM     13  C   UNL     1      49.155   7.864  13.168  0.00  0.00    +0.000 C 
ATOM     14  C   UNL     1      48.696   6.541  12.532  0.00  0.00    +0.000 C 
ENDBRANCH   7   9
ENDBRANCH   1   2
BRANCH   1  15
ATOM     15  O   UNL     1      43.621   2.854  10.545  0.00  0.00    +0.000 OA
BRANCH  15  18
ATOM     16  C   UNL     1      46.236   2.166   8.036  0.00  0.00    +0.000 A 
ATOM     17  C   UNL     1      45.333   1.889   9.062  0.00  0.00    +0.000 A 
ATOM     18  C   UNL     1      44.561   2.936   9.552  0.00  0.00    +0.000 A 
ATOM     19  C   UNL     1      44.718   4.203   9.001  0.00  0.00    +0.000 A 
ATOM     20  C   UNL     1      45.648   4.386   7.987  0.00  0.00    +0.000 A 
ATOM     21  N   UNL     1      46.419   3.399   7.489  0.00  0.00    +0.000 NA
BRANCH  16  23
ATOM     22  N   UNL     1      46.643  -0.217   7.680  0.00  0.00    +0.000 N 
ATOM     23  C   UNL     1      47.081   1.064   7.478  0.00  0.00    +0.000 C 
ATOM     24  O   UNL     1      48.111   1.288   6.848  0.00  0.00    +0.000 OA
ATOM     25  H   UNL     1      47.143  -0.964   7.221  0.00  0.00    +0.000 HD
ATOM     26  H   UNL     1      45.701  -0.376   8.021  0.00  0.00    +0.000 HD
ENDBRANCH  16  23
ENDBRANCH  15  18
ENDBRANCH   1  15
TORSDOF 5
ENDMDL
MODEL 4
REMARK VINA RESULT:    -7.082      1.428      2.052
REMARK INTER + INTRA:         -10.072
REMARK INTER:                  -9.156
REMARK INTRA:                  -0.916
REMARK UNBOUND:                -0.920
REMARK  Name = 
REMARK  5 active torsions:
REMARK  status: ('A' for Active; 'I' for Inactive)
REMARK    1  A    between atoms: C_2  and  C_4
REMARK    2  A    between atoms: C_6  and  O_7
REMARK    3  A    between atoms: O_7  and  C_8
REMARK    4  A    between atoms: C_8  and  C_9
REMARK    5  A    between atoms: C_14  and  N_15
REMARK                            x       y       z     vdW  Elec       q    Type
REMARK                         _______ _______ _______ _____ _____    ______ ____
ROOT
ATOM      1  C   UNL     1      43.817   4.601  10.538  0.00  0.00    +0.000 C 
ENDROOT
BRANCH   1   2
ATOM      2  C   UNL     1      44.579   5.693  11.256  0.00  0.00    +0.000 A 
ATOM      3  C   UNL     1      44.020   6.967  11.418  0.00  0.00    +0.000 A 
ATOM      4  C   UNL     1      44.717   7.954  12.110  0.00  0.00    +0.000 A 
ATOM      5  C   UNL     1      45.968   7.669  12.658  0.00  0.00    +0.000 A 
ATOM      6  F   UNL     1      46.604   8.660  13.304  0.00  0.00    +0.000 F 
ATOM      7  C   UNL     1      46.567   6.406  12.527  0.00  0.00    +0.000 A 
ATOM      8  C   UNL     1      45.853   5.438  11.795  0.00  0.00    +0.000 A 
BRANCH   7   9
ATOM      9  N   UNL     1      47.770   6.053  13.120  0.00  0.00    +0.000 N 
ATOM     10  C   UNL     1      47.826   5.578  14.512  0.00  0.00    +0.000 C 
ATOM     11  C   UNL     1      48.538   6.583  15.424  0.00  0.00    +0.000 C 
ATOM     12  O   UNL     1      49.824   6.953  14.899  0.00  0.00    +0.000 OA
ATOM     13  C   UNL     1      49.665   7.569  13.611  0.00  0.00    +0.000 C 
ATOM     14  C   UNL     1      49.027   6.608  12.594  0.00  0.00    +0.000 C 
ENDBRANCH   7   9
ENDBRANCH   1   2
BRANCH   1  15
ATOM     15  O   UNL     1      44.116   4.648   9.145  0.00  0.00    +0.000 OA
BRANCH  15  18
ATOM     16  C   UNL     1      46.506   2.608   7.212  0.00  0.00    +0.000 A 
ATOM     17  C   UNL     1      45.801   3.751   7.590  0.00  0.00    +0.000 A 
ATOM     18  C   UNL     1      44.889   3.640   8.633  0.00  0.00    +0.000 A 
ATOM     19  C   UNL     1      44.721   2.405   9.251  0.00  0.00    +0.000 A 
ATOM     20  C   UNL     1      45.462   1.321   8.802  0.00  0.00    +0.000 A 
ATOM     21  N   UNL     1      46.351   1.387   7.791  0.00  0.00    +0.000 NA
BRANCH  16  23
ATOM     22  N   UNL     1      48.817   2.506   6.424  0.00  0.00    +0.000 N 
ATOM     23  C   UNL     1      47.501   2.690   6.096  0.00  0.00    +0.000 C 
ATOM     24  O   UNL     1      47.160   2.888   4.933  0.00  0.00    +0.000 OA
ATOM     25  H   UNL     1      49.487   2.452   5.672  0.00  0.00    +0.000 HD
ATOM     26  H   UNL     1      49.059   2.148   7.342  0.00  0.00    +0.000 HD
ENDBRANCH  16  23
ENDBRANCH  15  18
ENDBRANCH   1  15
TORSDOF 5
ENDMDL
MODEL 5
REMARK VINA RESULT:    -6.708      3.780      8.064
REMARK INTER + INTRA:          -9.589
REMARK INTER:                  -8.703
REMARK INTRA:                  -0.885
REMARK UNBOUND:                -0.920
REMARK  Name = 
REMARK  5 active torsions:
REMARK  status: ('A' for Active; 'I' for Inactive)
REMARK    1  A    between atoms: C_2  and  C_4
REMARK    2  A    between atoms: C_6  and  O_7
REMARK    3  A    between atoms: O_7  and  C_8
REMARK    4  A    between atoms: C_8  and  C_9
REMARK    5  A    between atoms: C_14  and  N_15
REMARK                            x       y       z     vdW  Elec       q    Type
REMARK                         _______ _______ _______ _____ _____    ______ ____
ROOT
ATOM      1  C   UNL     1      48.316   6.169  13.281  0.00  0.00    +0.000 C 
ENDROOT
BRANCH   1   2
ATOM      2  C   UNL     1      47.005   6.655  12.705  0.00  0.00    +0.000 A 
ATOM      3  C   UNL     1      46.678   8.016  12.722  0.00  0.00    +0.000 A 
ATOM      4  C   UNL     1      45.482   8.455  12.158  0.00  0.00    +0.000 A 
ATOM      5  C   UNL     1      44.617   7.539  11.560  0.00  0.00    +0.000 A 
ATOM      6  F   UNL     1      43.471   8.013  11.043  0.00  0.00    +0.000 F 
ATOM      7  C   UNL     1      44.903   6.165  11.514  0.00  0.00    +0.000 A 
ATOM      8  C   UNL     1      46.103   5.747  12.120  0.00  0.00    +0.000 A 
BRANCH   7   9
ATOM      9  N   UNL     1      44.113   5.230  10.863  0.00  0.00    +0.000 N 
ATOM     10  C   UNL     1      43.009   4.546  11.555  0.00  0.00    +0.000 C 
ATOM     11  C   UNL     1      43.299   3.053  11.744  0.00  0.00    +0.000 C 
ATOM     12  O   UNL     1      43.666   2.426  10.504  0.00  0.00    +0.000 OA
ATOM     13  C   UNL     1      44.855   3.038   9.982  0.00  0.00    +0.000 C 
ATOM     14  C   UNL     1      44.643   4.531   9.681  0.00  0.00    +0.000 C 
ENDBRANCH   7   9
ENDBRANCH   1   2
BRANCH   1  15
ATOM     15  O   UNL     1      48.727   7.040  14.332  0.00  0.00    +0.000 OA
BRANCH  15  18
ATOM     16  C   UNL     1      48.113   5.027  17.363  0.00  0.00    +0.000 A 
ATOM     17  C   UNL     1      48.129   5.331  16.001  0.00  0.00    +0.000 A 
ATOM     18  C   UNL     1      48.625   6.572  15.616  0.00  0.00    +0.000 A 
ATOM     19  C   UNL     1      49.081   7.448  16.595  0.00  0.00    +0.000 A 
ATOM     20  C   UNL     1      49.020   7.061  17.926  0.00  0.00    +0.000 A 
ATOM     21  N   UNL     1      48.541   5.871  18.341  0.00  0.00    +0.000 NA
BRANCH  16  23
ATOM     22  N   UNL     1      48.206   3.129  18.898  0.00  0.00    +0.000 N 
ATOM     23  C   UNL     1      47.591   3.700  17.817  0.00  0.00    +0.000 C 
ATOM     24  O   UNL     1      46.641   3.151  17.266  0.00  0.00    +0.000 OA
ATOM     25  H   UNL     1      47.800   2.288  19.281  0.00  0.00    +0.000 HD
ATOM     26  H   UNL     1      48.847   3.680  19.458  0.00  0.00    +0.000 HD
ENDBRANCH  16  23
ENDBRANCH  15  18
ENDBRANCH   1  15
TORSDOF 5
ENDMDL
MODEL 6
REMARK VINA RESULT:    -6.637      4.288      7.935
REMARK INTER + INTRA:          -9.497
REMARK INTER:                  -8.617
REMARK INTRA:                  -0.880
REMARK UNBOUND:                -0.920
REMARK  Name = 
REMARK  5 active torsions:
REMARK  status: ('A' for Active; 'I' for Inactive)
REMARK    1  A    between atoms: C_2  and  C_4
REMARK    2  A    between atoms: C_6  and  O_7
REMARK    3  A    between atoms: O_7  and  C_8
REMARK    4  A    between atoms: C_8  and  C_9
REMARK    5  A    between atoms: C_14  and  N_15
REMARK                            x       y       z     vdW  Elec       q    Type
REMARK                         _______ _______ _______ _____ _____    ______ ____
ROOT
ATOM      1  C   UNL     1      49.076   6.848  14.835  0.00  0.00    +0.000 C 
ENDROOT
BRANCH   1   2
ATOM      2  C   UNL     1      48.119   6.708  13.672  0.00  0.00    +0.000 A 
ATOM      3  C   UNL     1      48.335   7.409  12.480  0.00  0.00    +0.000 A 
ATOM      4  C   UNL     1      47.465   7.246  11.405  0.00  0.00    +0.000 A 
ATOM      5  C   UNL     1      46.386   6.368  11.509  0.00  0.00    +0.000 A 
ATOM      6  F   UNL     1      45.570   6.258  10.448  0.00  0.00    +0.000 F 
ATOM      7  C   UNL     1      46.131   5.638  12.682  0.00  0.00    +0.000 A 
ATOM      8  C   UNL     1      47.008   5.848  13.763  0.00  0.00    +0.000 A 
BRANCH   7   9
ATOM      9  N   UNL     1      45.120   4.698  12.805  0.00  0.00    +0.000 N 
ATOM     10  C   UNL     1      45.262   3.344  12.245  0.00  0.00    +0.000 C 
ATOM     11  C   UNL     1      44.302   3.113  11.073  0.00  0.00    +0.000 C 
ATOM     12  O   UNL     1      42.948   3.441  11.427  0.00  0.00    +0.000 OA
ATOM     13  C   UNL     1      42.863   4.827  11.794  0.00  0.00    +0.000 C 
ATOM     14  C   UNL     1      43.735   5.147  13.020  0.00  0.00    +0.000 C 
ENDBRANCH   7   9
ENDBRANCH   1   2
BRANCH   1  15
ATOM     15  O   UNL     1      48.349   6.787  16.060  0.00  0.00    +0.000 OA
BRANCH  15  18
ATOM     16  C   UNL     1      49.384   3.548  17.493  0.00  0.00    +0.000 A 
ATOM     17  C   UNL     1      49.253   4.544  16.525  0.00  0.00    +0.000 A 
ATOM     18  C   UNL     1      48.569   5.704  16.870  0.00  0.00    +0.000 A 
ATOM     19  C   UNL     1      48.049   5.822  18.155  0.00  0.00    +0.000 A 
ATOM     20  C   UNL     1      48.222   4.775  19.050  0.00  0.00    +0.000 A 
ATOM     21  N   UNL     1      48.874   3.633  18.752  0.00  0.00    +0.000 NA
BRANCH  16  23
ATOM     22  N   UNL     1      51.120   1.910  18.013  0.00  0.00    +0.000 N 
ATOM     23  C   UNL     1      50.118   2.288  17.161  0.00  0.00    +0.000 C 
ATOM     24  O   UNL     1      49.828   1.603  16.183  0.00  0.00    +0.000 OA
ATOM     25  H   UNL     1      51.552   1.011  17.864  0.00  0.00    +0.000 HD
ATOM     26  H   UNL     1      51.212   2.371  18.913  0.00  0.00    +0.000 HD
ENDBRANCH  16  23
ENDBRANCH  15  18
ENDBRANCH   1  15
TORSDOF 5
ENDMDL
MODEL 7
REMARK VINA RESULT:    -6.382      2.426      3.977
REMARK INTER + INTRA:          -9.167
REMARK INTER:                  -8.251
REMARK INTRA:                  -0.916
REMARK UNBOUND:                -0.920
REMARK  Name = 
REMARK  5 active torsions:
REMARK  status: ('A' for Active; 'I' for Inactive)
REMARK    1  A    between atoms: C_2  and  C_4
REMARK    2  A    between atoms: C_6  and  O_7
REMARK    3  A    between atoms: O_7  and  C_8
REMARK    4  A    between atoms: C_8  and  C_9
REMARK    5  A    between atoms: C_14  and  N_15
REMARK                            x       y       z     vdW  Elec       q    Type
REMARK                         _______ _______ _______ _____ _____    ______ ____
ROOT
ATOM      1  C   UNL     1      46.661   3.843  13.878  0.00  0.00    +0.000 C 
ENDROOT
BRANCH   1   2
ATOM      2  C   UNL     1      47.430   4.879  14.668  0.00  0.00    +0.000 A 
ATOM      3  C   UNL     1      47.763   4.653  16.009  0.00  0.00    +0.000 A 
ATOM      4  C   UNL     1      48.501   5.599  16.717  0.00  0.00    +0.000 A 
ATOM      5  C   UNL     1      48.924   6.768  16.083  0.00  0.00    +0.000 A 
ATOM      6  F   UNL     1      49.620   7.654  16.813  0.00  0.00    +0.000 F 
ATOM      7  C   UNL     1      48.619   7.037  14.738  0.00  0.00    +0.000 A 
ATOM      8  C   UNL     1      47.846   6.077  14.059  0.00  0.00    +0.000 A 
BRANCH   7   9
ATOM      9  N   UNL     1      49.084   8.145  14.045  0.00  0.00    +0.000 N 
ATOM     10  C   UNL     1      48.166   9.022  13.302  0.00  0.00    +0.000 C 
ATOM     11  C   UNL     1      48.391   8.924  11.789  0.00  0.00    +0.000 C 
ATOM     12  O   UNL     1      49.772   9.128  11.447  0.00  0.00    +0.000 OA
ATOM     13  C   UNL     1      50.583   8.122  12.075  0.00  0.00    +0.000 C 
ATOM     14  C   UNL     1      50.488   8.189  13.608  0.00  0.00    +0.000 C 
ENDBRANCH   7   9
ENDBRANCH   1   2
BRANCH   1  15
ATOM     15  O   UNL     1      45.271   4.157  13.909  0.00  0.00    +0.000 OA
BRANCH  15  18
ATOM     16  C   UNL     1      44.423   4.572  10.342  0.00  0.00    +0.000 A 
ATOM     17  C   UNL     1      45.202   4.234  11.448  0.00  0.00    +0.000 A 
ATOM     18  C   UNL     1      44.662   4.436  12.713  0.00  0.00    +0.000 A 
ATOM     19  C   UNL     1      43.378   4.961  12.821  0.00  0.00    +0.000 A 
ATOM     20  C   UNL     1      42.680   5.275  11.664  0.00  0.00    +0.000 A 
ATOM     21  N   UNL     1      43.170   5.100  10.420  0.00  0.00    +0.000 NA
BRANCH  16  23
ATOM     22  N   UNL     1      44.352   3.417   8.190  0.00  0.00    +0.000 N 
ATOM     23  C   UNL     1      44.967   4.364   8.964  0.00  0.00    +0.000 C 
ATOM     24  O   UNL     1      45.908   5.023   8.528  0.00  0.00    +0.000 OA
ATOM     25  H   UNL     1      44.636   3.339   7.225  0.00  0.00    +0.000 HD
ATOM     26  H   UNL     1      43.462   3.029   8.486  0.00  0.00    +0.000 HD
ENDBRANCH  16  23
ENDBRANCH  15  18
ENDBRANCH   1  15
TORSDOF 5
ENDMDL
MODEL 8
REMARK VINA RESULT:    -6.264      3.460      4.927
REMARK INTER + INTRA:          -9.014
REMARK INTER:                  -8.250
REMARK INTRA:                  -0.764
REMARK UNBOUND:                -0.920
REMARK  Name = 
REMARK  5 active torsions:
REMARK  status: ('A' for Active; 'I' for Inactive)
REMARK    1  A    between atoms: C_2  and  C_4
REMARK    2  A    between atoms: C_6  and  O_7
REMARK    3  A    between atoms: O_7  and  C_8
REMARK    4  A    between atoms: C_8  and  C_9
REMARK    5  A    between atoms: C_14  and  N_15
REMARK                            x       y       z     vdW  Elec       q    Type
REMARK                         _______ _______ _______ _____ _____    ______ ____
ROOT
ATOM      1  C   UNL     1      46.562   6.552  12.224  0.00  0.00    +0.000 C 
ENDROOT
BRANCH   1   2
ATOM      2  C   UNL     1      47.471   6.446  13.429  0.00  0.00    +0.000 A 
ATOM      3  C   UNL     1      48.546   7.328  13.593  0.00  0.00    +0.000 A 
ATOM      4  C   UNL     1      49.355   7.242  14.724  0.00  0.00    +0.000 A 
ATOM      5  C   UNL     1      49.085   6.285  15.702  0.00  0.00    +0.000 A 
ATOM      6  F   UNL     1      49.904   6.235  16.766  0.00  0.00    +0.000 F 
ATOM      7  C   UNL     1      48.015   5.382  15.585  0.00  0.00    +0.000 A 
ATOM      8  C   UNL     1      47.234   5.473  14.417  0.00  0.00    +0.000 A 
BRANCH   7   9
ATOM      9  N   UNL     1      47.661   4.469  16.566  0.00  0.00    +0.000 N 
ATOM     10  C   UNL     1      47.294   4.907  17.922  0.00  0.00    +0.000 C 
ATOM     11  C   UNL     1      48.337   4.472  18.958  0.00  0.00    +0.000 C 
ATOM     12  O   UNL     1      48.611   3.064  18.871  0.00  0.00    +0.000 OA
ATOM     13  C   UNL     1      49.131   2.748  17.571  0.00  0.00    +0.000 C 
ATOM     14  C   UNL     1      48.120   3.075  16.458  0.00  0.00    +0.000 C 
ENDBRANCH   7   9
ENDBRANCH   1   2
BRANCH   1  15
ATOM     15  O   UNL     1      45.243   6.151  12.586  0.00  0.00    +0.000 OA
BRANCH  15  18
ATOM     16  C   UNL     1      44.470   3.388  10.267  0.00  0.00    +0.000 A 
ATOM     17  C   UNL     1      45.097   4.547  10.723  0.00  0.00    +0.000 A 
ATOM     18  C   UNL     1      44.733   5.037  11.972  0.00  0.00    +0.000 A 
ATOM     19  C   UNL     1      43.769   4.355  12.708  0.00  0.00    +0.000 A 
ATOM     20  C   UNL     1      43.194   3.213  12.169  0.00  0.00    +0.000 A 
ATOM     21  N   UNL     1      43.515   2.710  10.960  0.00  0.00    +0.000 NA
BRANCH  16  23
ATOM     22  N   UNL     1      45.333   1.550   8.907  0.00  0.00    +0.000 N 
ATOM     23  C   UNL     1      44.839   2.826   8.929  0.00  0.00    +0.000 C 
ATOM     24  O   UNL     1      44.688   3.465   7.891  0.00  0.00    +0.000 OA
ATOM     25  H   UNL     1      45.486   1.119   8.007  0.00  0.00    +0.000 HD
ATOM     26  H   UNL     1      45.263   0.971   9.738  0.00  0.00    +0.000 HD
ENDBRANCH  16  23
ENDBRANCH  15  18
ENDBRANCH   1  15
TORSDOF 5
ENDMDL
MODEL 9
REMARK VINA RESULT:    -6.208      4.127      8.350
REMARK INTER + INTRA:          -8.943
REMARK INTER:                  -8.188
REMARK INTRA:                  -0.755
REMARK UNBOUND:                -0.920
REMARK  Name = 
REMARK  5 active torsions:
REMARK  status: ('A' for Active; 'I' for Inactive)
REMARK    1  A    between atoms: C_2  and  C_4
REMARK    2  A    between atoms: C_6  and  O_7
REMARK    3  A    between atoms: O_7  and  C_8
REMARK    4  A    between atoms: C_8  and  C_9
REMARK    5  A    between atoms: C_14  and  N_15
REMARK                            x       y       z     vdW  Elec       q    Type
REMARK                         _______ _______ _______ _____ _____    ______ ____
ROOT
ATOM      1  C   UNL     1      47.896   5.898  14.184  0.00  0.00    +0.000 C 
ENDROOT
BRANCH   1   2
ATOM      2  C   UNL     1      46.785   6.486  13.343  0.00  0.00    +0.000 A 
ATOM      3  C   UNL     1      46.635   7.872  13.225  0.00  0.00    +0.000 A 
ATOM      4  C   UNL     1      45.629   8.402  12.420  0.00  0.00    +0.000 A 
ATOM      5  C   UNL     1      44.779   7.548  11.716  0.00  0.00    +0.000 A 
ATOM      6  F   UNL     1      43.817   8.110  10.966  0.00  0.00    +0.000 F 
ATOM      7  C   UNL     1      44.894   6.151  11.798  0.00  0.00    +0.000 A 
ATOM      8  C   UNL     1      45.899   5.645  12.644  0.00  0.00    +0.000 A 
BRANCH   7   9
ATOM      9  N   UNL     1      44.125   5.266  11.057  0.00  0.00    +0.000 N 
ATOM     10  C   UNL     1      43.010   4.524  11.668  0.00  0.00    +0.000 C 
ATOM     11  C   UNL     1      43.306   3.022  11.745  0.00  0.00    +0.000 C 
ATOM     12  O   UNL     1      43.705   2.497  10.468  0.00  0.00    +0.000 OA
ATOM     13  C   UNL     1      44.902   3.154  10.024  0.00  0.00    +0.000 C 
ATOM     14  C   UNL     1      44.686   4.665   9.836  0.00  0.00    +0.000 C 
ENDBRANCH   7   9
ENDBRANCH   1   2
BRANCH   1  15
ATOM     15  O   UNL     1      47.468   4.655  14.738  0.00  0.00    +0.000 OA
BRANCH  15  18
ATOM     16  C   UNL     1      48.031   4.943  18.373  0.00  0.00    +0.000 A 
ATOM     17  C   UNL     1      47.729   5.370  17.080  0.00  0.00    +0.000 A 
ATOM     18  C   UNL     1      47.745   4.426  16.060  0.00  0.00    +0.000 A 
ATOM     19  C   UNL     1      48.057   3.106  16.370  0.00  0.00    +0.000 A 
ATOM     20  C   UNL     1      48.352   2.775  17.685  0.00  0.00    +0.000 A 
ATOM     21  N   UNL     1      48.353   3.662  18.700  0.00  0.00    +0.000 NA
BRANCH  16  23
ATOM     22  N   UNL     1      47.222   5.635  20.572  0.00  0.00    +0.000 N 
ATOM     23  C   UNL     1      48.018   5.929  19.498  0.00  0.00    +0.000 C 
ATOM     24  O   UNL     1      48.705   6.948  19.480  0.00  0.00    +0.000 OA
ATOM     25  H   UNL     1      47.284   6.234  21.382  0.00  0.00    +0.000 HD
ATOM     26  H   UNL     1      46.823   4.707  20.660  0.00  0.00    +0.000 HD
ENDBRANCH  16  23
ENDBRANCH  15  18
ENDBRANCH   1  15
TORSDOF 5
ENDMDL
