MODEL 1
REMARK VINA RESULT:    -7.332      0.000      0.000
REMARK INTER + INTRA:          -9.571
REMARK INTER:                  -9.046
REMARK INTRA:                  -0.525
REMARK UNBOUND:                -0.525
REMARK  Name = 
REMARK  6 active torsions:
REMARK  status: ('A' for Active; 'I' for Inactive)
REMARK    1  A    between atoms: C_1  and  C_2
REMARK    2  A    between atoms: C_4  and  C_5
REMARK    3  A    between atoms: C_7  and  O_8
REMARK    4  A    between atoms: O_8  and  C_9
REMARK    5  A    between atoms: C_9  and  C_10
REMARK    6  A    between atoms: C_14  and  C_15
REMARK                            x       y       z     vdW  Elec       q    Type
REMARK                         _______ _______ _______ _____ _____    ______ ____
ROOT
ATOM      1  C   UNL     1      44.160   5.472  11.389  0.00  0.00    +0.000 C 
ATOM      2  C   UNL     1      42.796   6.158  11.276  0.00  0.00    +0.000 C 
ATOM      3  C   UNL     1      43.196   5.515  12.560  0.00  0.00    +0.000 C 
ENDROOT
BRANCH   1   4
ATOM      4  C   UNL     1      44.371   4.115  10.726  0.00  0.00    +0.000 A 
ATOM      5  C   UNL     1      43.581   3.008  11.074  0.00  0.00    +0.000 A 
ATOM      6  C   UNL     1      43.687   1.792  10.402  0.00  0.00    +0.000 A 
ATOM      7  C   UNL     1      44.574   1.666   9.336  0.00  0.00    +0.000 A 
ATOM      8  C   UNL     1      45.383   2.742   8.935  0.00  0.00    +0.000 A 
ATOM      9  C   UNL     1      45.289   3.938   9.675  0.00  0.00    +0.000 A 
BRANCH   8  10
ATOM     10  C   UNL     1      46.243   2.659   7.740  0.00  0.00    +0.000 A 
ATOM     11  C   UNL     1      46.257   3.650   6.751  0.00  0.00    +0.000 A 
ATOM     12  C   UNL     1      47.039   3.504   5.607  0.00  0.00    +0.000 A 
ATOM     13  C   UNL     1      47.812   2.364   5.481  0.00  0.00    +0.000 A 
ATOM     14  N   UNL     1      47.846   1.381   6.403  0.00  0.00    +0.000 NA
ATOM     15  C   UNL     1      47.061   1.550   7.495  0.00  0.00    +0.000 A 
ENDBRANCH   8  10
ENDBRANCH   1   4
BRANCH   1  16
ATOM     16  O   UNL     1      45.208   6.464  11.275  0.00  0.00    +0.000 OA
BRANCH  16  23
ATOM     17  C   UNL     1      49.721   7.925  12.276  0.00  0.00    +0.000 C 
ATOM     18  C   UNL     1      48.507   7.121  12.625  0.00  0.00    +0.000 A 
ATOM     19  C   UNL     1      48.466   6.316  13.770  0.00  0.00    +0.000 A 
ATOM     20  C   UNL     1      47.313   5.583  14.041  0.00  0.00    +0.000 A 
ATOM     21  C   UNL     1      47.240   4.679  15.235  0.00  0.00    +0.000 C 
ATOM     22  N   UNL     1      46.212   5.625  13.254  0.00  0.00    +0.000 NA
ATOM     23  C   UNL     1      46.276   6.390  12.146  0.00  0.00    +0.000 A 
ATOM     24  C   UNL     1      47.384   7.157  11.804  0.00  0.00    +0.000 A 
ENDBRANCH  16  23
ENDBRANCH   1  16
TORSDOF 4
ENDMDL
MODEL 2
REMARK VINA RESULT:    -7.327      2.985      4.439
REMARK INTER + INTRA:          -9.565
REMARK INTER:                  -8.692
REMARK INTRA:                  -0.873
REMARK UNBOUND:                -0.525
REMARK  Name = 
REMARK  6 active torsions:
REMARK  status: ('A' for Active; 'I' for Inactive)
REMARK    1  A    between atoms: C_1  and  C_2
REMARK    2  A    between atoms: C_4  and  C_5
REMARK    3  A    between atoms: C_7  and  O_8
REMARK    4  A    between atoms: O_8  and  C_9
REMARK    5  A    between atoms: C_9  and  C_10
REMARK    6  A    between atoms: C_14  and  C_15
REMARK                            x       y       z     vdW  Elec       q    Type
REMARK                         _______ _______ _______ _____ _____    ______ ____
ROOT
ATOM      1  C   UNL     1      45.962   7.426  12.276  0.00  0.00    +0.000 C 
ATOM      2  C   UNL     1      47.042   7.080  13.303  0.00  0.00    +0.000 C 
ATOM      3  C   UNL     1      47.437   7.500  11.928  0.00  0.00    +0.000 C 
ENDROOT
BRANCH   1   4
ATOM      4  C   UNL     1      45.161   6.304  11.626  0.00  0.00    +0.000 A 
ATOM      5  C   UNL     1      43.779   6.182  11.838  0.00  0.00    +0.000 A 
ATOM      6  C   UNL     1      43.015   5.230  11.166  0.00  0.00    +0.000 A 
ATOM      7  C   UNL     1      43.619   4.390  10.235  0.00  0.00    +0.000 A 
ATOM      8  C   UNL     1      44.996   4.472   9.972  0.00  0.00    +0.000 A 
ATOM      9  C   UNL     1      45.746   5.408  10.713  0.00  0.00    +0.000 A 
BRANCH   8  10
ATOM     10  C   UNL     1      45.630   3.668   8.910  0.00  0.00    +0.000 A 
ATOM     11  C   UNL     1      46.202   4.244   7.769  0.00  0.00    +0.000 A 
ATOM     12  C   UNL     1      46.736   3.444   6.759  0.00  0.00    +0.000 A 
ATOM     13  C   UNL     1      46.700   2.072   6.921  0.00  0.00    +0.000 A 
ATOM     14  N   UNL     1      46.170   1.461   7.999  0.00  0.00    +0.000 NA
ATOM     15  C   UNL     1      45.646   2.269   8.954  0.00  0.00    +0.000 A 
ENDBRANCH   8  10
ENDBRANCH   1   4
BRANCH   1  16
ATOM     16  O   UNL     1      45.256   8.616  12.703  0.00  0.00    +0.000 OA
BRANCH  16  23
ATOM     17  C   UNL     1      42.909  10.749   9.035  0.00  0.00    +0.000 C 
ATOM     18  C   UNL     1      44.033  10.731  10.025  0.00  0.00    +0.000 A 
ATOM     19  C   UNL     1      44.995  11.746  10.057  0.00  0.00    +0.000 A 
ATOM     20  C   UNL     1      46.024  11.673  10.994  0.00  0.00    +0.000 A 
ATOM     21  C   UNL     1      47.098  12.719  11.039  0.00  0.00    +0.000 C 
ATOM     22  N   UNL     1      46.129  10.670  11.897  0.00  0.00    +0.000 NA
ATOM     23  C   UNL     1      45.203   9.691  11.839  0.00  0.00    +0.000 A 
ATOM     24  C   UNL     1      44.142   9.688  10.941  0.00  0.00    +0.000 A 
ENDBRANCH  16  23
ENDBRANCH   1  16
TORSDOF 4
ENDMDL
MODEL 3
REMARK VINA RESULT:    -7.115      2.940      4.395
REMARK INTER + INTRA:          -9.303
REMARK INTER:                  -8.459
REMARK INTRA:                  -0.844
REMARK UNBOUND:                -0.525
REMARK  Name = 
REMARK  6 active torsions:
REMARK  status: ('A' for Active; 'I' for Inactive)
REMARK    1  A    between atoms: C_1  and  C_2
REMARK    2  A    between atoms: C_4  and  C_5
REMARK    3  A    between atoms: C_7  and  O_8
REMARK    4  A    between atoms: O_8  and  C_9
REMARK    5  A    between atoms: C_9  and  C_10
REMARK    6  A    between atoms: C_14  and  C_15
REMARK                            x       y       z     vdW  Elec       q    Type
REMARK                         _______ _______ _______ _____ _____    ______ ____
ROOT
ATOM      1  C   UNL     1      46.089   7.462  12.561  0.00  0.00    +0.000 C 
ATOM      2  C   UNL     1      47.146   7.114  13.611  0.00  0.00    +0.000 C 
ATOM      3  C   UNL     1      47.568   7.452  12.222  0.00  0.00    +0.000 C 
ENDROOT
BRANCH   1   4
ATOM      4  C   UNL     1      45.241   6.349  11.956  0.00  0.00    +0.000 A 
ATOM      5  C   UNL     1      43.890   6.196  12.304  0.00  0.00    +0.000 A 
ATOM      6  C   UNL     1      43.074   5.255  11.679  0.00  0.00    +0.000 A 
ATOM      7  C   UNL     1      43.591   4.458  10.661  0.00  0.00    +0.000 A 
ATOM      8  C   UNL     1      44.932   4.573  10.262  0.00  0.00    +0.000 A 
ATOM      9  C   UNL     1      45.742   5.496  10.955  0.00  0.00    +0.000 A 
BRANCH   8  10
ATOM     10  C   UNL     1      45.463   3.818   9.111  0.00  0.00    +0.000 A 
ATOM     11  C   UNL     1      45.528   2.419   9.092  0.00  0.00    +0.000 A 
ATOM     12  C   UNL     1      46.094   1.747   8.010  0.00  0.00    +0.000 A 
ATOM     13  C   UNL     1      46.575   2.495   6.951  0.00  0.00    +0.000 A 
ATOM     14  N   UNL     1      46.533   3.842   6.910  0.00  0.00    +0.000 NA
ATOM     15  C   UNL     1      45.989   4.463   7.986  0.00  0.00    +0.000 A 
ENDBRANCH   8  10
ENDBRANCH   1   4
BRANCH   1  16
ATOM     16  O   UNL     1      45.436   8.701  12.927  0.00  0.00    +0.000 OA
BRANCH  16  23
ATOM     17  C   UNL     1      47.227  12.617  10.698  0.00  0.00    +0.000 C 
ATOM     18  C   UNL     1      46.146  11.592  10.859  0.00  0.00    +0.000 A 
ATOM     19  C   UNL     1      44.992  11.616  10.069  0.00  0.00    +0.000 A 
ATOM     20  C   UNL     1      44.015  10.642  10.269  0.00  0.00    +0.000 A 
ATOM     21  C   UNL     1      42.746  10.653   9.471  0.00  0.00    +0.000 C 
ATOM     22  N   UNL     1      44.138   9.653  11.184  0.00  0.00    +0.000 NA
ATOM     23  C   UNL     1      45.249   9.656  11.950  0.00  0.00    +0.000 A 
ATOM     24  C   UNL     1      46.273  10.586  11.813  0.00  0.00    +0.000 A 
ENDBRANCH  16  23
ENDBRANCH   1  16
TORSDOF 4
ENDMDL
MODEL 4
REMARK VINA RESULT:    -7.040      1.694      2.960
REMARK INTER + INTRA:          -9.211
REMARK INTER:                  -8.401
REMARK INTRA:                  -0.810
REMARK UNBOUND:                -0.525
REMARK  Name = 
REMARK  6 active torsions:
REMARK  status: ('A' for Active; 'I' for Inactive)
REMARK    1  A    between atoms: C_1  and  C_2
REMARK    2  A    between atoms: C_4  and  C_5
REMARK    3  A    between atoms: C_7  and  O_8
REMARK    4  A    between atoms: O_8  and  C_9
REMARK    5  A    between atoms: C_9  and  C_10
REMARK    6  A    between atoms: C_14  and  C_15
REMARK                            x       y       z     vdW  Elec       q    Type
REMARK                         _______ _______ _______ _____ _____    ______ ____
ROOT
ATOM      1  C   UNL     1      46.391   7.352  12.316  0.00  0.00    +0.000 C 
ATOM      2  C   UNL     1      46.408   8.804  11.833  0.00  0.00    +0.000 C 
ATOM      3  C   UNL     1      45.765   8.466  13.134  0.00  0.00    +0.000 C 
ENDROOT
BRANCH   1   4
ATOM      4  C   UNL     1      45.434   6.360  11.667  0.00  0.00    +0.000 A 
ATOM      5  C   UNL     1      44.047   6.459  11.858  0.00  0.00    +0.000 A 
ATOM      6  C   UNL     1      43.153   5.629  11.185  0.00  0.00    +0.000 A 
ATOM      7  C   UNL     1      43.631   4.692  10.273  0.00  0.00    +0.000 A 
ATOM      8  C   UNL     1      45.007   4.553  10.032  0.00  0.00    +0.000 A 
ATOM      9  C   UNL     1      45.884   5.370  10.774  0.00  0.00    +0.000 A 
BRANCH   8  10
ATOM     10  C   UNL     1      45.521   3.645   8.989  0.00  0.00    +0.000 A 
ATOM     11  C   UNL     1      45.483   2.251   9.117  0.00  0.00    +0.000 A 
ATOM     12  C   UNL     1      46.036   1.430   8.135  0.00  0.00    +0.000 A 
ATOM     13  C   UNL     1      46.607   2.027   7.026  0.00  0.00    +0.000 A 
ATOM     14  N   UNL     1      46.666   3.361   6.845  0.00  0.00    +0.000 NA
ATOM     15  C   UNL     1      46.133   4.129   7.827  0.00  0.00    +0.000 A 
ENDBRANCH   8  10
ENDBRANCH   1   4
BRANCH   1  16
ATOM     16  O   UNL     1      47.746   6.922  12.593  0.00  0.00    +0.000 OA
BRANCH  16  23
ATOM     17  C   UNL     1      50.254   7.975  16.606  0.00  0.00    +0.000 C 
ATOM     18  C   UNL     1      49.311   7.084  15.858  0.00  0.00    +0.000 A 
ATOM     19  C   UNL     1      48.794   5.918  16.434  0.00  0.00    +0.000 A 
ATOM     20  C   UNL     1      47.927   5.121  15.688  0.00  0.00    +0.000 A 
ATOM     21  C   UNL     1      47.380   3.845  16.253  0.00  0.00    +0.000 C 
ATOM     22  N   UNL     1      47.541   5.433  14.429  0.00  0.00    +0.000 NA
ATOM     23  C   UNL     1      48.064   6.550  13.883  0.00  0.00    +0.000 A 
ATOM     24  C   UNL     1      48.930   7.402  14.558  0.00  0.00    +0.000 A 
ENDBRANCH  16  23
ENDBRANCH   1  16
TORSDOF 4
ENDMDL
MODEL 5
REMARK VINA RESULT:    -6.987      2.774      5.528
REMARK INTER + INTRA:          -9.146
REMARK INTER:                  -8.205
REMARK INTRA:                  -0.941
REMARK UNBOUND:                -0.525
REMARK  Name = 
REMARK  6 active torsions:
REMARK  status: ('A' for Active; 'I' for Inactive)
REMARK    1  A    between atoms: C_1  and  C_2
REMARK    2  A    between atoms: C_4  and  C_5
REMARK    3  A    between atoms: C_7  and  O_8
REMARK    4  A    between atoms: O_8  and  C_9
REMARK    5  A    between atoms: C_9  and  C_10
REMARK    6  A    between atoms: C_14  and  C_15
REMARK                            x       y       z     vdW  Elec       q    Type
REMARK                         _______ _______ _______ _____ _____    ______ ____
ROOT
ATOM      1  C   UNL     1      49.080   7.661  14.017  0.00  0.00    +0.000 C 
ATOM      2  C   UNL     1      50.211   8.222  13.152  0.00  0.00    +0.000 C 
ATOM      3  C   UNL     1      49.661   9.040  14.271  0.00  0.00    +0.000 C 
ENDROOT
BRANCH   1   4
ATOM      4  C   UNL     1      47.665   7.608  13.454  0.00  0.00    +0.000 A 
ATOM      5  C   UNL     1      46.809   8.718  13.539  0.00  0.00    +0.000 A 
ATOM      6  C   UNL     1      45.554   8.724  12.933  0.00  0.00    +0.000 A 
ATOM      7  C   UNL     1      45.136   7.619  12.196  0.00  0.00    +0.000 A 
ATOM      8  C   UNL     1      45.953   6.484  12.067  0.00  0.00    +0.000 A 
ATOM      9  C   UNL     1      47.191   6.492  12.741  0.00  0.00    +0.000 A 
BRANCH   8  10
ATOM     10  C   UNL     1      45.573   5.354  11.198  0.00  0.00    +0.000 A 
ATOM     11  C   UNL     1      45.646   5.419   9.801  0.00  0.00    +0.000 A 
ATOM     12  C   UNL     1      45.220   4.349   9.015  0.00  0.00    +0.000 A 
ATOM     13  C   UNL     1      44.739   3.219   9.650  0.00  0.00    +0.000 A 
ATOM     14  N   UNL     1      44.653   3.096  10.990  0.00  0.00    +0.000 NA
ATOM     15  C   UNL     1      45.062   4.161  11.722  0.00  0.00    +0.000 A 
ENDBRANCH   8  10
ENDBRANCH   1   4
BRANCH   1  16
ATOM     16  O   UNL     1      49.566   6.520  14.764  0.00  0.00    +0.000 OA
BRANCH  16  23
ATOM     17  C   UNL     1      48.219   7.904  19.211  0.00  0.00    +0.000 C 
ATOM     18  C   UNL     1      48.257   6.873  18.126  0.00  0.00    +0.000 A 
ATOM     19  C   UNL     1      47.676   5.611  18.294  0.00  0.00    +0.000 A 
ATOM     20  C   UNL     1      47.749   4.687  17.253  0.00  0.00    +0.000 A 
ATOM     21  C   UNL     1      47.173   3.312  17.405  0.00  0.00    +0.000 C 
ATOM     22  N   UNL     1      48.342   4.960  16.068  0.00  0.00    +0.000 NA
ATOM     23  C   UNL     1      48.914   6.174  15.929  0.00  0.00    +0.000 A 
ATOM     24  C   UNL     1      48.882   7.155  16.914  0.00  0.00    +0.000 A 
ENDBRANCH  16  23
ENDBRANCH   1  16
TORSDOF 4
ENDMDL
MODEL 6
REMARK VINA RESULT:    -6.752      2.786      5.725
REMARK INTER + INTRA:          -8.855
REMARK INTER:                  -7.912
REMARK INTRA:                  -0.943
REMARK UNBOUND:                -0.525
REMARK  Name = 
REMARK  6 active torsions:
REMARK  status: ('A' for Active; 'I' for Inactive)
REMARK    1  A    between atoms: C_1  and  C_2
REMARK    2  A    between atoms: C_4  and  C_5
REMARK    3  A    between atoms: C_7  and  O_8
REMARK    4  A    between atoms: O_8  and  C_9
REMARK    5  A    between atoms: C_9  and  C_10
REMARK    6  A    between atoms: C_14  and  C_15
REMARK                            x       y       z     vdW  Elec       q    Type
REMARK                         _______ _______ _______ _____ _____    ______ ____
ROOT
ATOM      1  C   UNL     1      49.028   7.557  14.195  0.00  0.00    +0.000 C 
ATOM      2  C   UNL     1      50.210   8.116  13.400  0.00  0.00    +0.000 C 
ATOM      3  C   UNL     1      49.624   8.916  14.513  0.00  0.00    +0.000 C 
ENDROOT
BRANCH   1   4
ATOM      4  C   UNL     1      47.640   7.550  13.565  0.00  0.00    +0.000 A 
ATOM      5  C   UNL     1      46.831   8.697  13.581  0.00  0.00    +0.000 A 
ATOM      6  C   UNL     1      45.608   8.741  12.914  0.00  0.00    +0.000 A 
ATOM      7  C   UNL     1      45.178   7.636  12.185  0.00  0.00    +0.000 A 
ATOM      8  C   UNL     1      45.949   6.465  12.123  0.00  0.00    +0.000 A 
ATOM      9  C   UNL     1      47.153   6.437  12.856  0.00  0.00    +0.000 A 
BRANCH   8  10
ATOM     10  C   UNL     1      45.562   5.329  11.264  0.00  0.00    +0.000 A 
ATOM     11  C   UNL     1      45.622   5.386   9.866  0.00  0.00    +0.000 A 
ATOM     12  C   UNL     1      45.189   4.312   9.090  0.00  0.00    +0.000 A 
ATOM     13  C   UNL     1      44.715   3.185   9.736  0.00  0.00    +0.000 A 
ATOM     14  N   UNL     1      44.642   3.069  11.077  0.00  0.00    +0.000 NA
ATOM     15  C   UNL     1      45.057   4.138  11.799  0.00  0.00    +0.000 A 
ENDBRANCH   8  10
ENDBRANCH   1   4
BRANCH   1  16
ATOM     16  O   UNL     1      49.454   6.387  14.933  0.00  0.00    +0.000 OA
BRANCH  16  23
ATOM     17  C   UNL     1      47.089   3.103  17.603  0.00  0.00    +0.000 C 
ATOM     18  C   UNL     1      47.665   4.475  17.440  0.00  0.00    +0.000 A 
ATOM     19  C   UNL     1      47.562   5.437  18.451  0.00  0.00    +0.000 A 
ATOM     20  C   UNL     1      48.110   6.701  18.242  0.00  0.00    +0.000 A 
ATOM     21  C   UNL     1      47.988   7.773  19.283  0.00  0.00    +0.000 C 
ATOM     22  N   UNL     1      48.761   7.042  17.105  0.00  0.00    +0.000 NA
ATOM     23  C   UNL     1      48.835   6.109  16.134  0.00  0.00    +0.000 A 
ATOM     24  C   UNL     1      48.321   4.824  16.263  0.00  0.00    +0.000 A 
ENDBRANCH  16  23
ENDBRANCH   1  16
TORSDOF 4
ENDMDL
MODEL 7
REMARK VINA RESULT:    -6.283      3.817      6.655
REMARK INTER + INTRA:          -8.276
REMARK INTER:                  -7.564
REMARK INTRA:                  -0.713
REMARK UNBOUND:                -0.525
REMARK  Name = 
REMARK  6 active torsions:
REMARK  status: ('A' for Active; 'I' for Inactive)
REMARK    1  A    between atoms: C_1  and  C_2
REMARK    2  A    between atoms: C_4  and  C_5
REMARK    3  A    between atoms: C_7  and  O_8
REMARK    4  A    between atoms: O_8  and  C_9
REMARK    5  A    between atoms: C_9  and  C_10
REMARK    6  A    between atoms: C_14  and  C_15
REMARK                            x       y       z     vdW  Elec       q    Type
REMARK                         _______ _______ _______ _____ _____    ______ ____
ROOT
ATOM      1  C   UNL     1      49.465   7.547  15.379  0.00  0.00    +0.000 C 
ATOM      2  C   UNL     1      50.067   8.883  15.822  0.00  0.00    +0.000 C 
ATOM      3  C   UNL     1      48.753   8.445  16.374  0.00  0.00    +0.000 C 
ENDROOT
BRANCH   1   4
ATOM      4  C   UNL     1      48.840   7.433  13.993  0.00  0.00    +0.000 A 
ATOM      5  C   UNL     1      49.513   7.903  12.854  0.00  0.00    +0.000 A 
ATOM      6  C   UNL     1      49.007   7.707  11.570  0.00  0.00    +0.000 A 
ATOM      7  C   UNL     1      47.819   7.003  11.396  0.00  0.00    +0.000 A 
ATOM      8  C   UNL     1      47.106   6.500  12.496  0.00  0.00    +0.000 A 
ATOM      9  C   UNL     1      47.620   6.767  13.782  0.00  0.00    +0.000 A 
BRANCH   8  10
ATOM     10  C   UNL     1      45.908   5.657  12.322  0.00  0.00    +0.000 A 
ATOM     11  C   UNL     1      45.114   5.705  11.169  0.00  0.00    +0.000 A 
ATOM     12  C   UNL     1      43.956   4.935  11.071  0.00  0.00    +0.000 A 
ATOM     13  C   UNL     1      43.620   4.114  12.131  0.00  0.00    +0.000 A 
ATOM     14  N   UNL     1      44.350   4.021  13.261  0.00  0.00    +0.000 NA
ATOM     15  C   UNL     1      45.461   4.794  13.329  0.00  0.00    +0.000 A 
ENDBRANCH   8  10
ENDBRANCH   1   4
BRANCH   1  16
ATOM     16  O   UNL     1      50.301   6.463  15.848  0.00  0.00    +0.000 OA
BRANCH  16  23
ATOM     17  C   UNL     1      50.690   5.090  20.482  0.00  0.00    +0.000 C 
ATOM     18  C   UNL     1      50.023   4.982  19.145  0.00  0.00    +0.000 A 
ATOM     19  C   UNL     1      48.972   4.085  18.921  0.00  0.00    +0.000 A 
ATOM     20  C   UNL     1      48.395   4.022  17.655  0.00  0.00    +0.000 A 
ATOM     21  C   UNL     1      47.292   3.049  17.362  0.00  0.00    +0.000 C 
ATOM     22  N   UNL     1      48.790   4.806  16.625  0.00  0.00    +0.000 NA
ATOM     23  C   UNL     1      49.816   5.651  16.853  0.00  0.00    +0.000 A 
ATOM     24  C   UNL     1      50.445   5.782  18.086  0.00  0.00    +0.000 A 
ENDBRANCH  16  23
ENDBRANCH   1  16
TORSDOF 4
ENDMDL
MODEL 8
REMARK VINA RESULT:    -6.234      3.269      5.696
REMARK INTER + INTRA:          -8.217
REMARK INTER:                  -7.404
REMARK INTRA:                  -0.812
REMARK UNBOUND:                -0.525
REMARK  Name = 
REMARK  6 active torsions:
REMARK  status: ('A' for Active; 'I' for Inactive)
REMARK    1  A    between atoms: C_1  and  C_2
REMARK    2  A    between atoms: C_4  and  C_5
REMARK    3  A    between atoms: C_7  and  O_8
REMARK    4  A    between atoms: O_8  and  C_9
REMARK    5  A    between atoms: C_9  and  C_10
REMARK    6  A    between atoms: C_14  and  C_15
REMARK                            x       y       z     vdW  Elec       q    Type
REMARK                         _______ _______ _______ _____ _____    ______ ____
ROOT
ATOM      1  C   UNL     1      48.537   8.173  12.563  0.00  0.00    +0.000 C 
ATOM      2  C   UNL     1      49.354   7.324  13.540  0.00  0.00    +0.000 C 
ATOM      3  C   UNL     1      49.623   7.231  12.077  0.00  0.00    +0.000 C 
ENDROOT
BRANCH   1   4
ATOM      4  C   UNL     1      47.098   7.776  12.252  0.00  0.00    +0.000 A 
ATOM      5  C   UNL     1      46.029   8.634  12.553  0.00  0.00    +0.000 A 
ATOM      6  C   UNL     1      44.721   8.336  12.175  0.00  0.00    +0.000 A 
ATOM      7  C   UNL     1      44.457   7.174  11.454  0.00  0.00    +0.000 A 
ATOM      8  C   UNL     1      45.488   6.283  11.114  0.00  0.00    +0.000 A 
ATOM      9  C   UNL     1      46.789   6.590  11.563  0.00  0.00    +0.000 A 
BRANCH   8  10
ATOM     10  C   UNL     1      45.242   5.109  10.255  0.00  0.00    +0.000 A 
ATOM     11  C   UNL     1      45.792   4.985   8.973  0.00  0.00    +0.000 A 
ATOM     12  C   UNL     1      45.486   3.887   8.171  0.00  0.00    +0.000 A 
ATOM     13  C   UNL     1      44.639   2.919   8.678  0.00  0.00    +0.000 A 
ATOM     14  N   UNL     1      44.086   2.980   9.906  0.00  0.00    +0.000 NA
ATOM     15  C   UNL     1      44.394   4.069  10.653  0.00  0.00    +0.000 A 
ENDBRANCH   8  10
ENDBRANCH   1   4
BRANCH   1  16
ATOM     16  O   UNL     1      48.833   9.573  12.778  0.00  0.00    +0.000 OA
BRANCH  16  23
ATOM     17  C   UNL     1      47.586  12.499   9.119  0.00  0.00    +0.000 C 
ATOM     18  C   UNL     1      48.633  11.766   9.899  0.00  0.00    +0.000 A 
ATOM     19  C   UNL     1      49.985  11.823   9.542  0.00  0.00    +0.000 A 
ATOM     20  C   UNL     1      50.916  11.114  10.299  0.00  0.00    +0.000 A 
ATOM     21  C   UNL     1      52.368  11.116   9.929  0.00  0.00    +0.000 C 
ATOM     22  N   UNL     1      50.576  10.382  11.385  0.00  0.00    +0.000 NA
ATOM     23  C   UNL     1      49.266  10.323  11.704  0.00  0.00    +0.000 A 
ATOM     24  C   UNL     1      48.275  11.003  11.007  0.00  0.00    +0.000 A 
ENDBRANCH  16  23
ENDBRANCH   1  16
TORSDOF 4
ENDMDL
MODEL 9
REMARK VINA RESULT:    -6.088      4.032      6.837
REMARK INTER + INTRA:          -8.036
REMARK INTER:                  -7.307
REMARK INTRA:                  -0.729
REMARK UNBOUND:                -0.525
REMARK  Name = 
REMARK  6 active torsions:
REMARK  status: ('A' for Active; 'I' for Inactive)
REMARK    1  A    between atoms: C_1  and  C_2
REMARK    2  A    between atoms: C_4  and  C_5
REMARK    3  A    between atoms: C_7  and  O_8
REMARK    4  A    between atoms: O_8  and  C_9
REMARK    5  A    between atoms: C_9  and  C_10
REMARK    6  A    between atoms: C_14  and  C_15
REMARK                            x       y       z     vdW  Elec       q    Type
REMARK                         _______ _______ _______ _____ _____    ______ ____
ROOT
ATOM      1  C   UNL     1      48.001   4.236  16.975  0.00  0.00    +0.000 C 
ATOM      2  C   UNL     1      48.215   2.726  16.843  0.00  0.00    +0.000 C 
ATOM      3  C   UNL     1      49.371   3.611  17.163  0.00  0.00    +0.000 C 
ENDROOT
BRANCH   1   4
ATOM      4  C   UNL     1      47.798   5.074  15.719  0.00  0.00    +0.000 A 
ATOM      5  C   UNL     1      48.605   6.192  15.455  0.00  0.00    +0.000 A 
ATOM      6  C   UNL     1      48.505   6.903  14.260  0.00  0.00    +0.000 A 
ATOM      7  C   UNL     1      47.607   6.487  13.281  0.00  0.00    +0.000 A 
ATOM      8  C   UNL     1      46.781   5.369  13.483  0.00  0.00    +0.000 A 
ATOM      9  C   UNL     1      46.869   4.710  14.726  0.00  0.00    +0.000 A 
BRANCH   8  10
ATOM     10  C   UNL     1      45.908   4.850  12.414  0.00  0.00    +0.000 A 
ATOM     11  C   UNL     1      45.587   5.596  11.273  0.00  0.00    +0.000 A 
ATOM     12  C   UNL     1      44.709   5.091  10.315  0.00  0.00    +0.000 A 
ATOM     13  C   UNL     1      44.176   3.831  10.513  0.00  0.00    +0.000 A 
ATOM     14  N   UNL     1      44.453   3.064  11.586  0.00  0.00    +0.000 NA
ATOM     15  C   UNL     1      45.299   3.593  12.504  0.00  0.00    +0.000 A 
ENDBRANCH   8  10
ENDBRANCH   1   4
BRANCH   1  16
ATOM     16  O   UNL     1      47.163   4.504  18.124  0.00  0.00    +0.000 OA
BRANCH  16  23
ATOM     17  C   UNL     1      47.341   9.082  19.713  0.00  0.00    +0.000 C 
ATOM     18  C   UNL     1      47.713   7.638  19.860  0.00  0.00    +0.000 A 
ATOM     19  C   UNL     1      48.518   7.194  20.916  0.00  0.00    +0.000 A 
ATOM     20  C   UNL     1      48.839   5.840  20.998  0.00  0.00    +0.000 A 
ATOM     21  C   UNL     1      49.729   5.328  22.091  0.00  0.00    +0.000 C 
ATOM     22  N   UNL     1      48.391   4.922  20.111  0.00  0.00    +0.000 NA
ATOM     23  C   UNL     1      47.633   5.371  19.089  0.00  0.00    +0.000 A 
ATOM     24  C   UNL     1      47.261   6.702  18.935  0.00  0.00    +0.000 A 
ENDBRANCH  16  23
ENDBRANCH   1  16
TORSDOF 4
ENDMDL
