MODEL 1
REMARK VINA RESULT:    -6.898      0.000      0.000
REMARK INTER + INTRA:          -9.966
REMARK INTER:                  -9.116
REMARK INTRA:                  -0.850
REMARK UNBOUND:                -0.850
REMARK  Name = 
REMARK  6 active torsions:
REMARK  status: ('A' for Active; 'I' for Inactive)
REMARK    1  A    between atoms: N_1  and  C_2
REMARK    2  A    between atoms: C_4  and  C_5
REMARK    3  A    between atoms: C_10  and  C_11
REMARK    4  A    between atoms: C_11  and  O_12
REMARK    5  A    between atoms: O_12  and  C_13
REMARK    6  A    between atoms: C_18  and  C_19
REMARK                            x       y       z     vdW  Elec       q    Type
REMARK                         _______ _______ _______ _____ _____    ______ ____
ROOT
ATOM      1  C   UNL     1      45.829   6.559  11.964  0.00  0.00    +0.000 C 
ATOM      2  C   UNL     1      44.916   7.494  12.732  0.00  0.00    +0.000 C 
ATOM      3  C   UNL     1      45.308   7.858  11.341  0.00  0.00    +0.000 C 
ENDROOT
BRANCH   1   8
ATOM      4  C   UNL     1      44.168   3.165  11.557  0.00  0.00    +0.000 A 
ATOM      5  C   UNL     1      44.548   2.854  10.259  0.00  0.00    +0.000 A 
ATOM      6  C   UNL     1      45.245   3.798   9.501  0.00  0.00    +0.000 A 
ATOM      7  N   UNL     1      45.613   5.009  10.015  0.00  0.00    +0.000 NA
ATOM      8  C   UNL     1      45.312   5.286  11.309  0.00  0.00    +0.000 A 
ATOM      9  C   UNL     1      44.587   4.378  12.084  0.00  0.00    +0.000 A 
BRANCH   6  10
ATOM     10  C   UNL     1      45.629   3.458   8.066  0.00  0.00    +0.000 C 
ATOM     11  F   UNL     1      46.551   4.315   7.535  0.00  0.00    +0.000 F 
ATOM     12  F   UNL     1      46.179   2.216   7.942  0.00  0.00    +0.000 F 
ATOM     13  F   UNL     1      44.571   3.490   7.206  0.00  0.00    +0.000 F 
ENDBRANCH   6  10
BRANCH   4  14
ATOM     14  N   UNL     1      43.617   2.190  12.393  0.00  0.00    +0.000 N 
ATOM     15  H   UNL     1      42.626   2.017  12.258  0.00  0.00    +0.000 HD
ATOM     16  H   UNL     1      43.857   2.294  13.376  0.00  0.00    +0.000 HD
ENDBRANCH   4  14
ENDBRANCH   1   8
BRANCH   1  17
ATOM     17  O   UNL     1      47.257   6.620  12.188  0.00  0.00    +0.000 OA
BRANCH  17  18
ATOM     18  C   UNL     1      47.743   6.681  13.464  0.00  0.00    +0.000 A 
ATOM     19  C   UNL     1      48.393   7.757  14.051  0.00  0.00    +0.000 A 
ATOM     20  C   UNL     1      48.899   7.631  15.349  0.00  0.00    +0.000 A 
ATOM     21  C   UNL     1      48.740   6.440  16.076  0.00  0.00    +0.000 A 
ATOM     22 CL   UNL     1      49.442   6.392  17.649  0.00  0.00    +0.000 Cl
ATOM     23  C   UNL     1      48.045   5.365  15.516  0.00  0.00    +0.000 A 
ATOM     24  C   UNL     1      47.547   5.512  14.205  0.00  0.00    +0.000 A 
BRANCH  23  25
ATOM     25  C   UNL     1      47.769   4.055  16.203  0.00  0.00    +0.000 C 
ATOM     26  F   UNL     1      48.790   3.508  16.909  0.00  0.00    +0.000 F 
ATOM     27  F   UNL     1      46.727   4.156  17.078  0.00  0.00    +0.000 F 
ATOM     28  F   UNL     1      47.392   3.090  15.311  0.00  0.00    +0.000 F 
ENDBRANCH  23  25
ENDBRANCH  17  18
ENDBRANCH   1  17
TORSDOF 6
ENDMDL
MODEL 2
REMARK VINA RESULT:    -6.725      1.652      2.206
REMARK INTER + INTRA:          -9.737
REMARK INTER:                  -8.885
REMARK INTRA:                  -0.852
REMARK UNBOUND:                -0.850
REMARK  Name = 
REMARK  6 active torsions:
REMARK  status: ('A' for Active; 'I' for Inactive)
REMARK    1  A    between atoms: N_1  and  C_2
REMARK    2  A    between atoms: C_4  and  C_5
REMARK    3  A    between atoms: C_10  and  C_11
REMARK    4  A    between atoms: C_11  and  O_12
REMARK    5  A    between atoms: O_12  and  C_13
REMARK    6  A    between atoms: C_18  and  C_19
REMARK                            x       y       z     vdW  Elec       q    Type
REMARK                         _______ _______ _______ _____ _____    ______ ____
ROOT
ATOM      1  C   UNL     1      45.715   6.231  12.033  0.00  0.00    +0.000 C 
ATOM      2  C   UNL     1      44.755   7.171  12.733  0.00  0.00    +0.000 C 
ATOM      3  C   UNL     1      45.377   7.607  11.451  0.00  0.00    +0.000 C 
ENDROOT
BRANCH   1   8
ATOM      4  C   UNL     1      43.942   3.000  11.102  0.00  0.00    +0.000 A 
ATOM      5  C   UNL     1      44.486   2.768   9.847  0.00  0.00    +0.000 A 
ATOM      6  C   UNL     1      45.336   3.720   9.278  0.00  0.00    +0.000 A 
ATOM      7  N   UNL     1      45.694   4.859   9.943  0.00  0.00    +0.000 NA
ATOM      8  C   UNL     1      45.226   5.052  11.202  0.00  0.00    +0.000 A 
ATOM      9  C   UNL     1      44.348   4.136  11.787  0.00  0.00    +0.000 A 
BRANCH   6  10
ATOM     10  C   UNL     1      45.902   3.470   7.886  0.00  0.00    +0.000 C 
ATOM     11  F   UNL     1      46.773   4.438   7.473  0.00  0.00    +0.000 F 
ATOM     12  F   UNL     1      46.598   2.299   7.796  0.00  0.00    +0.000 F 
ATOM     13  F   UNL     1      44.942   3.413   6.919  0.00  0.00    +0.000 F 
ENDBRANCH   6  10
BRANCH   4  14
ATOM     14  N   UNL     1      43.223   2.001  11.765  0.00  0.00    +0.000 N 
ATOM     15  H   UNL     1      42.351   2.306  12.186  0.00  0.00    +0.000 HD
ATOM     16  H   UNL     1      43.778   1.435  12.401  0.00  0.00    +0.000 HD
ENDBRANCH   4  14
ENDBRANCH   1   8
BRANCH   1  17
ATOM     17  O   UNL     1      47.092   6.169  12.470  0.00  0.00    +0.000 OA
BRANCH  17  18
ATOM     18  C   UNL     1      47.390   5.680  13.711  0.00  0.00    +0.000 A 
ATOM     19  C   UNL     1      46.944   4.485  14.258  0.00  0.00    +0.000 A 
ATOM     20  C   UNL     1      47.281   4.164  15.577  0.00  0.00    +0.000 A 
ATOM     21  C   UNL     1      48.083   5.020  16.349  0.00  0.00    +0.000 A 
ATOM     22 CL   UNL     1      48.397   4.535  17.973  0.00  0.00    +0.000 Cl
ATOM     23  C   UNL     1      48.580   6.203  15.795  0.00  0.00    +0.000 A 
ATOM     24  C   UNL     1      48.224   6.510  14.465  0.00  0.00    +0.000 A 
BRANCH  23  25
ATOM     25  C   UNL     1      49.481   7.182  16.498  0.00  0.00    +0.000 C 
ATOM     26  F   UNL     1      48.986   7.774  17.614  0.00  0.00    +0.000 F 
ATOM     27  F   UNL     1      50.655   6.601  16.878  0.00  0.00    +0.000 F 
ATOM     28  F   UNL     1      49.843   8.212  15.676  0.00  0.00    +0.000 F 
ENDBRANCH  23  25
ENDBRANCH  17  18
ENDBRANCH   1  17
TORSDOF 6
ENDMDL
MODEL 3
REMARK VINA RESULT:    -6.567      3.905      5.696
REMARK INTER + INTRA:          -9.529
REMARK INTER:                  -8.994
REMARK INTRA:                  -0.535
REMARK UNBOUND:                -0.850
REMARK  Name = 
REMARK  6 active torsions:
REMARK  status: ('A' for Active; 'I' for Inactive)
REMARK    1  A    between atoms: N_1  and  C_2
REMARK    2  A    between atoms: C_4  and  C_5
REMARK    3  A    between atoms: C_10  and  C_11
REMARK    4  A    between atoms: C_11  and  O_12
REMARK    5  A    between atoms: O_12  and  C_13
REMARK    6  A    between atoms: C_18  and  C_19
REMARK                            x       y       z     vdW  Elec       q    Type
REMARK                         _______ _______ _______ _____ _____    ______ ____
ROOT
ATOM      1  C   UNL     1      46.319   6.498  12.320  0.00  0.00    +0.000 C 
ATOM      2  C   UNL     1      47.805   6.740  12.142  0.00  0.00    +0.000 C 
ATOM      3  C   UNL     1      47.332   6.070  13.386  0.00  0.00    +0.000 C 
ENDROOT
BRANCH   1   8
ATOM      4  C   UNL     1      44.197   3.384  11.823  0.00  0.00    +0.000 A 
ATOM      5  C   UNL     1      44.463   3.109  10.489  0.00  0.00    +0.000 A 
ATOM      6  C   UNL     1      45.240   4.001   9.744  0.00  0.00    +0.000 A 
ATOM      7  N   UNL     1      45.795   5.118  10.303  0.00  0.00    +0.000 NA
ATOM      8  C   UNL     1      45.601   5.349  11.626  0.00  0.00    +0.000 A 
ATOM      9  C   UNL     1      44.803   4.496  12.391  0.00  0.00    +0.000 A 
BRANCH   6  10
ATOM     10  C   UNL     1      45.498   3.706   8.272  0.00  0.00    +0.000 C 
ATOM     11  F   UNL     1      44.376   3.790   7.498  0.00  0.00    +0.000 F 
ATOM     12  F   UNL     1      46.391   4.568   7.704  0.00  0.00    +0.000 F 
ATOM     13  F   UNL     1      45.993   2.454   8.054  0.00  0.00    +0.000 F 
ENDBRANCH   6  10
BRANCH   4  14
ATOM     14  N   UNL     1      43.565   2.438  12.635  0.00  0.00    +0.000 N 
ATOM     15  H   UNL     1      44.180   1.745  13.048  0.00  0.00    +0.000 HD
ATOM     16  H   UNL     1      42.737   2.016  12.222  0.00  0.00    +0.000 HD
ENDBRANCH   4  14
ENDBRANCH   1   8
BRANCH   1  17
ATOM     17  O   UNL     1      45.478   7.574  12.796  0.00  0.00    +0.000 OA
BRANCH  17  18
ATOM     18  C   UNL     1      45.493   8.782  12.157  0.00  0.00    +0.000 A 
ATOM     19  C   UNL     1      46.508   9.727  12.199  0.00  0.00    +0.000 A 
ATOM     20  C   UNL     1      46.335  10.952  11.547  0.00  0.00    +0.000 A 
ATOM     21  C   UNL     1      45.160  11.233  10.832  0.00  0.00    +0.000 A 
ATOM     22 CL   UNL     1      45.047  12.792  10.105  0.00  0.00    +0.000 Cl
ATOM     23  C   UNL     1      44.149  10.273  10.740  0.00  0.00    +0.000 A 
ATOM     24  C   UNL     1      44.342   9.045  11.409  0.00  0.00    +0.000 A 
BRANCH  23  25
ATOM     25  C   UNL     1      42.865  10.431   9.972  0.00  0.00    +0.000 C 
ATOM     26  F   UNL     1      42.962  10.451   8.619  0.00  0.00    +0.000 F 
ATOM     27  F   UNL     1      41.979   9.435  10.264  0.00  0.00    +0.000 F 
ATOM     28  F   UNL     1      42.221  11.590  10.303  0.00  0.00    +0.000 F 
ENDBRANCH  23  25
ENDBRANCH  17  18
ENDBRANCH   1  17
TORSDOF 6
ENDMDL
MODEL 4
REMARK VINA RESULT:    -6.423      2.132      3.138
REMARK INTER + INTRA:          -9.339
REMARK INTER:                  -8.468
REMARK INTRA:                  -0.871
REMARK UNBOUND:                -0.850
REMARK  Name = 
REMARK  6 active torsions:
REMARK  status: ('A' for Active; 'I' for Inactive)
REMARK    1  A    between atoms: N_1  and  C_2
REMARK    2  A    between atoms: C_4  and  C_5
REMARK    3  A    between atoms: C_10  and  C_11
REMARK    4  A    between atoms: C_11  and  O_12
REMARK    5  A    between atoms: O_12  and  C_13
REMARK    6  A    between atoms: C_18  and  C_19
REMARK                            x       y       z     vdW  Elec       q    Type
REMARK                         _______ _______ _______ _____ _____    ______ ____
ROOT
ATOM      1  C   UNL     1      48.061   7.409  12.680  0.00  0.00    +0.000 C 
ATOM      2  C   UNL     1      48.269   8.910  12.671  0.00  0.00    +0.000 C 
ATOM      3  C   UNL     1      48.866   8.098  11.574  0.00  0.00    +0.000 C 
ENDROOT
BRANCH   1   8
ATOM      4  C   UNL     1      44.475   7.080  11.462  0.00  0.00    +0.000 A 
ATOM      5  C   UNL     1      44.290   5.711  11.593  0.00  0.00    +0.000 A 
ATOM      6  C   UNL     1      45.367   4.904  11.970  0.00  0.00    +0.000 A 
ATOM      7  N   UNL     1      46.594   5.428  12.267  0.00  0.00    +0.000 NA
ATOM      8  C   UNL     1      46.757   6.774  12.217  0.00  0.00    +0.000 A 
ATOM      9  C   UNL     1      45.711   7.606  11.811  0.00  0.00    +0.000 A 
BRANCH   6  10
ATOM     10  C   UNL     1      45.161   3.398  12.078  0.00  0.00    +0.000 C 
ATOM     11  F   UNL     1      46.101   2.778  12.852  0.00  0.00    +0.000 F 
ATOM     12  F   UNL     1      43.960   3.064  12.633  0.00  0.00    +0.000 F 
ATOM     13  F   UNL     1      45.210   2.762  10.873  0.00  0.00    +0.000 F 
ENDBRANCH   6  10
BRANCH   4  14
ATOM     14  N   UNL     1      43.387   7.931  11.247  0.00  0.00    +0.000 N 
ATOM     15  H   UNL     1      42.798   8.090  12.058  0.00  0.00    +0.000 HD
ATOM     16  H   UNL     1      42.843   7.715  10.415  0.00  0.00    +0.000 HD
ENDBRANCH   4  14
ENDBRANCH   1   8
BRANCH   1  17
ATOM     17  O   UNL     1      48.909   6.580  13.509  0.00  0.00    +0.000 OA
BRANCH  17  18
ATOM     18  C   UNL     1      48.701   6.531  14.859  0.00  0.00    +0.000 A 
ATOM     19  C   UNL     1      48.818   7.586  15.752  0.00  0.00    +0.000 A 
ATOM     20  C   UNL     1      48.645   7.351  17.120  0.00  0.00    +0.000 A 
ATOM     21  C   UNL     1      48.332   6.070  17.602  0.00  0.00    +0.000 A 
ATOM     22 CL   UNL     1      48.182   5.899  19.310  0.00  0.00    +0.000 Cl
ATOM     23  C   UNL     1      48.163   5.008  16.710  0.00  0.00    +0.000 A 
ATOM     24  C   UNL     1      48.347   5.265  15.335  0.00  0.00    +0.000 A 
BRANCH  23  25
ATOM     25  C   UNL     1      47.786   3.602  17.091  0.00  0.00    +0.000 C 
ATOM     26  F   UNL     1      46.547   3.423  17.613  0.00  0.00    +0.000 F 
ATOM     27  F   UNL     1      47.864   2.754  16.025  0.00  0.00    +0.000 F 
ATOM     28  F   UNL     1      48.645   3.086  18.020  0.00  0.00    +0.000 F 
ENDBRANCH  23  25
ENDBRANCH  17  18
ENDBRANCH   1  17
TORSDOF 6
ENDMDL
MODEL 5
REMARK VINA RESULT:    -6.343      2.909      6.850
REMARK INTER + INTRA:          -9.233
REMARK INTER:                  -9.032
REMARK INTRA:                  -0.201
REMARK UNBOUND:                -0.850
REMARK  Name = 
REMARK  6 active torsions:
REMARK  status: ('A' for Active; 'I' for Inactive)
REMARK    1  A    between atoms: N_1  and  C_2
REMARK    2  A    between atoms: C_4  and  C_5
REMARK    3  A    between atoms: C_10  and  C_11
REMARK    4  A    between atoms: C_11  and  O_12
REMARK    5  A    between atoms: O_12  and  C_13
REMARK    6  A    between atoms: C_18  and  C_19
REMARK                            x       y       z     vdW  Elec       q    Type
REMARK                         _______ _______ _______ _____ _____    ______ ____
ROOT
ATOM      1  C   UNL     1      47.836   7.456  12.578  0.00  0.00    +0.000 C 
ATOM      2  C   UNL     1      48.910   7.311  11.518  0.00  0.00    +0.000 C 
ATOM      3  C   UNL     1      48.695   8.648  12.143  0.00  0.00    +0.000 C 
ENDROOT
BRANCH   1   8
ATOM      4  C   UNL     1      48.955   7.497  16.211  0.00  0.00    +0.000 A 
ATOM      5  C   UNL     1      48.706   6.178  16.565  0.00  0.00    +0.000 A 
ATOM      6  C   UNL     1      48.078   5.327  15.651  0.00  0.00    +0.000 A 
ATOM      7  N   UNL     1      47.744   5.738  14.392  0.00  0.00    +0.000 NA
ATOM      8  C   UNL     1      48.057   7.004  14.015  0.00  0.00    +0.000 A 
ATOM      9  C   UNL     1      48.654   7.890  14.914  0.00  0.00    +0.000 A 
BRANCH   6  10
ATOM     10  C   UNL     1      47.780   3.891  16.063  0.00  0.00    +0.000 C 
ATOM     11  F   UNL     1      47.534   3.064  15.003  0.00  0.00    +0.000 F 
ATOM     12  F   UNL     1      48.809   3.307  16.742  0.00  0.00    +0.000 F 
ATOM     13  F   UNL     1      46.685   3.779  16.868  0.00  0.00    +0.000 F 
ENDBRANCH   6  10
BRANCH   4  14
ATOM     14  N   UNL     1      49.724   8.325  17.034  0.00  0.00    +0.000 N 
ATOM     15  H   UNL     1      50.428   7.848  17.588  0.00  0.00    +0.000 HD
ATOM     16  H   UNL     1      49.183   8.984  17.588  0.00  0.00    +0.000 HD
ENDBRANCH   4  14
ENDBRANCH   1   8
BRANCH   1  17
ATOM     17  O   UNL     1      46.458   7.626  12.173  0.00  0.00    +0.000 OA
BRANCH  17  18
ATOM     18  C   UNL     1      45.656   6.531  12.015  0.00  0.00    +0.000 A 
ATOM     19  C   UNL     1      44.784   6.002  12.956  0.00  0.00    +0.000 A 
ATOM     20  C   UNL     1      44.086   4.826  12.662  0.00  0.00    +0.000 A 
ATOM     21  C   UNL     1      44.236   4.184  11.423  0.00  0.00    +0.000 A 
ATOM     22 CL   UNL     1      43.355   2.721  11.195  0.00  0.00    +0.000 Cl
ATOM     23  C   UNL     1      45.073   4.732  10.447  0.00  0.00    +0.000 A 
ATOM     24  C   UNL     1      45.771   5.916  10.765  0.00  0.00    +0.000 A 
BRANCH  23  25
ATOM     25  C   UNL     1      45.288   4.169   9.068  0.00  0.00    +0.000 C 
ATOM     26  F   UNL     1      45.663   2.868   8.992  0.00  0.00    +0.000 F 
ATOM     27  F   UNL     1      44.165   4.275   8.302  0.00  0.00    +0.000 F 
ATOM     28  F   UNL     1      46.251   4.861   8.387  0.00  0.00    +0.000 F 
ENDBRANCH  23  25
ENDBRANCH  17  18
ENDBRANCH   1  17
TORSDOF 6
ENDMDL
MODEL 6
REMARK VINA RESULT:    -5.947      4.092      7.424
REMARK INTER + INTRA:          -8.709
REMARK INTER:                  -7.813
REMARK INTRA:                  -0.896
REMARK UNBOUND:                -0.850
REMARK  Name = 
REMARK  6 active torsions:
REMARK  status: ('A' for Active; 'I' for Inactive)
REMARK    1  A    between atoms: N_1  and  C_2
REMARK    2  A    between atoms: C_4  and  C_5
REMARK    3  A    between atoms: C_10  and  C_11
REMARK    4  A    between atoms: C_11  and  O_12
REMARK    5  A    between atoms: O_12  and  C_13
REMARK    6  A    between atoms: C_18  and  C_19
REMARK                            x       y       z     vdW  Elec       q    Type
REMARK                         _______ _______ _______ _____ _____    ______ ____
ROOT
ATOM      1  C   UNL     1      47.834   4.227  16.294  0.00  0.00    +0.000 C 
ATOM      2  C   UNL     1      46.808   3.533  17.166  0.00  0.00    +0.000 C 
ATOM      3  C   UNL     1      48.161   2.923  17.028  0.00  0.00    +0.000 C 
ENDROOT
BRANCH   1   8
ATOM      4  C   UNL     1      48.680   7.416  18.181  0.00  0.00    +0.000 A 
ATOM      5  C   UNL     1      49.850   7.787  17.535  0.00  0.00    +0.000 A 
ATOM      6  C   UNL     1      50.403   6.938  16.572  0.00  0.00    +0.000 A 
ATOM      7  N   UNL     1      49.798   5.770  16.205  0.00  0.00    +0.000 NA
ATOM      8  C   UNL     1      48.613   5.442  16.778  0.00  0.00    +0.000 A 
ATOM      9  C   UNL     1      48.049   6.251  17.768  0.00  0.00    +0.000 A 
BRANCH   6  10
ATOM     10  C   UNL     1      51.707   7.341  15.893  0.00  0.00    +0.000 C 
ATOM     11  F   UNL     1      52.298   8.434  16.460  0.00  0.00    +0.000 F 
ATOM     12  F   UNL     1      52.654   6.359  15.934  0.00  0.00    +0.000 F 
ATOM     13  F   UNL     1      51.550   7.659  14.577  0.00  0.00    +0.000 F 
ENDBRANCH   6  10
BRANCH   4  14
ATOM     14  N   UNL     1      48.016   8.310  19.026  0.00  0.00    +0.000 N 
ATOM     15  H   UNL     1      48.359   8.336  19.981  0.00  0.00    +0.000 HD
ATOM     16  H   UNL     1      47.001   8.252  18.986  0.00  0.00    +0.000 HD
ENDBRANCH   4  14
ENDBRANCH   1   8
BRANCH   1  17
ATOM     17  O   UNL     1      47.797   4.029  14.861  0.00  0.00    +0.000 OA
BRANCH  17  18
ATOM     18  C   UNL     1      47.089   4.892  14.073  0.00  0.00    +0.000 A 
ATOM     19  C   UNL     1      47.497   6.149  13.649  0.00  0.00    +0.000 A 
ATOM     20  C   UNL     1      46.619   6.943  12.905  0.00  0.00    +0.000 A 
ATOM     21  C   UNL     1      45.339   6.480  12.561  0.00  0.00    +0.000 A 
ATOM     22 CL   UNL     1      44.334   7.566  11.676  0.00  0.00    +0.000 Cl
ATOM     23  C   UNL     1      44.932   5.199  12.939  0.00  0.00    +0.000 A 
ATOM     24  C   UNL     1      45.831   4.416  13.692  0.00  0.00    +0.000 A 
BRANCH  23  25
ATOM     25  C   UNL     1      43.608   4.569  12.597  0.00  0.00    +0.000 C 
ATOM     26  F   UNL     1      43.231   4.610  11.295  0.00  0.00    +0.000 F 
ATOM     27  F   UNL     1      43.572   3.252  12.951  0.00  0.00    +0.000 F 
ATOM     28  F   UNL     1      42.582   5.151  13.287  0.00  0.00    +0.000 F 
ENDBRANCH  23  25
ENDBRANCH  17  18
ENDBRANCH   1  17
TORSDOF 6
ENDMDL
MODEL 7
REMARK VINA RESULT:    -5.853      4.439      7.920
REMARK INTER + INTRA:          -8.585
REMARK INTER:                  -7.935
REMARK INTRA:                  -0.649
REMARK UNBOUND:                -0.850
REMARK  Name = 
REMARK  6 active torsions:
REMARK  status: ('A' for Active; 'I' for Inactive)
REMARK    1  A    between atoms: N_1  and  C_2
REMARK    2  A    between atoms: C_4  and  C_5
REMARK    3  A    between atoms: C_10  and  C_11
REMARK    4  A    between atoms: C_11  and  O_12
REMARK    5  A    between atoms: O_12  and  C_13
REMARK    6  A    between atoms: C_18  and  C_19
REMARK                            x       y       z     vdW  Elec       q    Type
REMARK                         _______ _______ _______ _____ _____    ______ ____
ROOT
ATOM      1  C   UNL     1      47.946   3.635  16.464  0.00  0.00    +0.000 C 
ATOM      2  C   UNL     1      47.031   4.520  17.286  0.00  0.00    +0.000 C 
ATOM      3  C   UNL     1      46.933   3.042  17.450  0.00  0.00    +0.000 C 
ENDROOT
BRANCH   1   8
ATOM      4  C   UNL     1      51.146   1.862  17.496  0.00  0.00    +0.000 A 
ATOM      5  C   UNL     1      51.964   2.953  17.756  0.00  0.00    +0.000 A 
ATOM      6  C   UNL     1      51.498   4.242  17.487  0.00  0.00    +0.000 A 
ATOM      7  N   UNL     1      50.234   4.472  17.021  0.00  0.00    +0.000 NA
ATOM      8  C   UNL     1      49.404   3.414  16.840  0.00  0.00    +0.000 A 
ATOM      9  C   UNL     1      49.849   2.109  17.068  0.00  0.00    +0.000 A 
BRANCH   6  10
ATOM     10  C   UNL     1      52.417   5.430  17.745  0.00  0.00    +0.000 C 
ATOM     11  F   UNL     1      52.876   6.018  16.600  0.00  0.00    +0.000 F 
ATOM     12  F   UNL     1      51.808   6.432  18.443  0.00  0.00    +0.000 F 
ATOM     13  F   UNL     1      53.534   5.100  18.453  0.00  0.00    +0.000 F 
ENDBRANCH   6  10
BRANCH   4  14
ATOM     14  N   UNL     1      51.517   0.578  17.904  0.00  0.00    +0.000 N 
ATOM     15  H   UNL     1      51.508  -0.125  17.172  0.00  0.00    +0.000 HD
ATOM     16  H   UNL     1      51.054   0.255  18.750  0.00  0.00    +0.000 HD
ENDBRANCH   4  14
ENDBRANCH   1   8
BRANCH   1  17
ATOM     17  O   UNL     1      47.591   3.324  15.097  0.00  0.00    +0.000 OA
BRANCH  17  18
ATOM     18  C   UNL     1      46.975   4.267  14.323  0.00  0.00    +0.000 A 
ATOM     19  C   UNL     1      45.638   4.289  13.954  0.00  0.00    +0.000 A 
ATOM     20  C   UNL     1      45.179   5.290  13.091  0.00  0.00    +0.000 A 
ATOM     21  C   UNL     1      46.045   6.284  12.609  0.00  0.00    +0.000 A 
ATOM     22 CL   UNL     1      45.371   7.439  11.521  0.00  0.00    +0.000 Cl
ATOM     23  C   UNL     1      47.383   6.303  13.011  0.00  0.00    +0.000 A 
ATOM     24  C   UNL     1      47.826   5.283  13.878  0.00  0.00    +0.000 A 
BRANCH  23  25
ATOM     25  C   UNL     1      48.400   7.335  12.604  0.00  0.00    +0.000 C 
ATOM     26  F   UNL     1      48.164   8.612  12.996  0.00  0.00    +0.000 F 
ATOM     27  F   UNL     1      49.643   7.028  13.074  0.00  0.00    +0.000 F 
ATOM     28  F   UNL     1      48.538   7.396  11.245  0.00  0.00    +0.000 F 
ENDBRANCH  23  25
ENDBRANCH  17  18
ENDBRANCH   1  17
TORSDOF 6
ENDMDL
MODEL 8
REMARK VINA RESULT:    -5.650      3.194      4.874
REMARK INTER + INTRA:          -8.318
REMARK INTER:                  -7.489
REMARK INTRA:                  -0.829
REMARK UNBOUND:                -0.850
REMARK  Name = 
REMARK  6 active torsions:
REMARK  status: ('A' for Active; 'I' for Inactive)
REMARK    1  A    between atoms: N_1  and  C_2
REMARK    2  A    between atoms: C_4  and  C_5
REMARK    3  A    between atoms: C_10  and  C_11
REMARK    4  A    between atoms: C_11  and  O_12
REMARK    5  A    between atoms: O_12  and  C_13
REMARK    6  A    between atoms: C_18  and  C_19
REMARK                            x       y       z     vdW  Elec       q    Type
REMARK                         _______ _______ _______ _____ _____    ______ ____
ROOT
ATOM      1  C   UNL     1      49.117   7.547  14.203  0.00  0.00    +0.000 C 
ATOM      2  C   UNL     1      49.741   8.926  14.286  0.00  0.00    +0.000 C 
ATOM      3  C   UNL     1      50.193   7.999  13.211  0.00  0.00    +0.000 C 
ENDROOT
BRANCH   1   8
ATOM      4  C   UNL     1      45.631   8.269  12.869  0.00  0.00    +0.000 A 
ATOM      5  C   UNL     1      45.152   6.977  12.708  0.00  0.00    +0.000 A 
ATOM      6  C   UNL     1      46.006   5.893  12.930  0.00  0.00    +0.000 A 
ATOM      7  N   UNL     1      47.293   6.063  13.356  0.00  0.00    +0.000 NA
ATOM      8  C   UNL     1      47.742   7.322  13.590  0.00  0.00    +0.000 A 
ATOM      9  C   UNL     1      46.925   8.428  13.346  0.00  0.00    +0.000 A 
BRANCH   6  10
ATOM     10  C   UNL     1      45.478   4.480  12.718  0.00  0.00    +0.000 C 
ATOM     11  F   UNL     1      45.307   4.158  11.401  0.00  0.00    +0.000 F 
ATOM     12  F   UNL     1      46.310   3.520  13.216  0.00  0.00    +0.000 F 
ATOM     13  F   UNL     1      44.264   4.267  13.301  0.00  0.00    +0.000 F 
ENDBRANCH   6  10
BRANCH   4  14
ATOM     14  N   UNL     1      44.765   9.365  12.814  0.00  0.00    +0.000 N 
ATOM     15  H   UNL     1      44.001   9.276  12.152  0.00  0.00    +0.000 HD
ATOM     16  H   UNL     1      45.231  10.266  12.742  0.00  0.00    +0.000 HD
ENDBRANCH   4  14
ENDBRANCH   1   8
BRANCH   1  17
ATOM     17  O   UNL     1      49.606   6.494  15.065  0.00  0.00    +0.000 OA
BRANCH  17  18
ATOM     18  C   UNL     1      49.036   6.300  16.292  0.00  0.00    +0.000 A 
ATOM     19  C   UNL     1      48.557   5.101  16.801  0.00  0.00    +0.000 A 
ATOM     20  C   UNL     1      47.930   5.086  18.052  0.00  0.00    +0.000 A 
ATOM     21  C   UNL     1      47.797   6.261  18.809  0.00  0.00    +0.000 A 
ATOM     22 CL   UNL     1      46.970   6.123  20.316  0.00  0.00    +0.000 Cl
ATOM     23  C   UNL     1      48.317   7.466  18.331  0.00  0.00    +0.000 A 
ATOM     24  C   UNL     1      48.942   7.460  17.066  0.00  0.00    +0.000 A 
BRANCH  23  25
ATOM     25  C   UNL     1      48.279   8.782  19.061  0.00  0.00    +0.000 C 
ATOM     26  F   UNL     1      48.877   8.821  20.278  0.00  0.00    +0.000 F 
ATOM     27  F   UNL     1      48.859   9.778  18.332  0.00  0.00    +0.000 F 
ATOM     28  F   UNL     1      46.996   9.200  19.277  0.00  0.00    +0.000 F 
ENDBRANCH  23  25
ENDBRANCH  17  18
ENDBRANCH   1  17
TORSDOF 6
ENDMDL
MODEL 9
REMARK VINA RESULT:    -5.645      3.165      7.279
REMARK INTER + INTRA:          -8.311
REMARK INTER:                  -8.216
REMARK INTRA:                  -0.095
REMARK UNBOUND:                -0.850
REMARK  Name = 
REMARK  6 active torsions:
REMARK  status: ('A' for Active; 'I' for Inactive)
REMARK    1  A    between atoms: N_1  and  C_2
REMARK    2  A    between atoms: C_4  and  C_5
REMARK    3  A    between atoms: C_10  and  C_11
REMARK    4  A    between atoms: C_11  and  O_12
REMARK    5  A    between atoms: O_12  and  C_13
REMARK    6  A    between atoms: C_18  and  C_19
REMARK                            x       y       z     vdW  Elec       q    Type
REMARK                         _______ _______ _______ _____ _____    ______ ____
ROOT
ATOM      1  C   UNL     1      47.629   7.329  12.835  0.00  0.00    +0.000 C 
ATOM      2  C   UNL     1      48.620   7.374  11.689  0.00  0.00    +0.000 C 
ATOM      3  C   UNL     1      48.411   8.605  12.504  0.00  0.00    +0.000 C 
ENDROOT
BRANCH   1   8
ATOM      4  C   UNL     1      47.798   4.793  15.661  0.00  0.00    +0.000 A 
ATOM      5  C   UNL     1      48.359   5.572  16.663  0.00  0.00    +0.000 A 
ATOM      6  C   UNL     1      48.773   6.875  16.372  0.00  0.00    +0.000 A 
ATOM      7  N   UNL     1      48.596   7.431  15.137  0.00  0.00    +0.000 NA
ATOM      8  C   UNL     1      47.977   6.700  14.176  0.00  0.00    +0.000 A 
ATOM      9  C   UNL     1      47.581   5.383  14.423  0.00  0.00    +0.000 A 
BRANCH   6  10
ATOM     10  C   UNL     1      49.417   7.709  17.473  0.00  0.00    +0.000 C 
ATOM     11  F   UNL     1      50.584   8.306  17.086  0.00  0.00    +0.000 F 
ATOM     12  F   UNL     1      48.619   8.727  17.906  0.00  0.00    +0.000 F 
ATOM     13  F   UNL     1      49.736   6.982  18.581  0.00  0.00    +0.000 F 
ENDBRANCH   6  10
BRANCH   4  14
ATOM     14  N   UNL     1      47.228   3.551  15.955  0.00  0.00    +0.000 N 
ATOM     15  H   UNL     1      47.863   2.871  16.360  0.00  0.00    +0.000 HD
ATOM     16  H   UNL     1      46.672   3.155  15.202  0.00  0.00    +0.000 HD
ENDBRANCH   4  14
ENDBRANCH   1   8
BRANCH   1  17
ATOM     17  O   UNL     1      46.218   7.492  12.559  0.00  0.00    +0.000 OA
BRANCH  17  18
ATOM     18  C   UNL     1      45.445   6.394  12.301  0.00  0.00    +0.000 A 
ATOM     19  C   UNL     1      44.554   5.787  13.174  0.00  0.00    +0.000 A 
ATOM     20  C   UNL     1      43.892   4.620  12.779  0.00  0.00    +0.000 A 
ATOM     21  C   UNL     1      44.097   4.066  11.506  0.00  0.00    +0.000 A 
ATOM     22 CL   UNL     1      43.256   2.604  11.151  0.00  0.00    +0.000 Cl
ATOM     23  C   UNL     1      44.954   4.693  10.598  0.00  0.00    +0.000 A 
ATOM     24  C   UNL     1      45.615   5.867  11.018  0.00  0.00    +0.000 A 
BRANCH  23  25
ATOM     25  C   UNL     1      45.227   4.228   9.193  0.00  0.00    +0.000 C 
ATOM     26  F   UNL     1      46.190   4.892   8.507  0.00  0.00    +0.000 F 
ATOM     27  F   UNL     1      45.589   2.913   9.160  0.00  0.00    +0.000 F 
ATOM     28  F   UNL     1      44.109   4.309   8.411  0.00  0.00    +0.000 F 
ENDBRANCH  23  25
ENDBRANCH  17  18
ENDBRANCH   1  17
TORSDOF 6
ENDMDL
