MODEL 1
REMARK VINA RESULT:    -8.148      0.000      0.000
REMARK INTER + INTRA:         -14.913
REMARK INTER:                 -13.150
REMARK INTRA:                  -1.763
REMARK UNBOUND:                -1.763
REMARK  Name = 
REMARK  11 active torsions:
REMARK  status: ('A' for Active; 'I' for Inactive)
REMARK    1  A    between atoms: C_2  and  O_3
REMARK    2  A    between atoms: C_2  and  C_23
REMARK    3  A    between atoms: O_3  and  C_4
REMARK    4  A    between atoms: C_4  and  C_5
REMARK    5  A    between atoms: C_8  and  C_9
REMARK    6  A    between atoms: C_9  and  C_10
REMARK    7  A    between atoms: C_10  and  N_11
REMARK    8  A    between atoms: N_11  and  CA_12
REMARK    9  A    between atoms: CA_12  and  C_13
REMARK   10  A    between atoms: CA_12  and  C_15
REMARK   11  A    between atoms: C_13  and  O_14
REMARK                            x       y       z     vdW  Elec       q    Type
REMARK                         _______ _______ _______ _____ _____    ______ ____
ROOT
ATOM      1  C   UNL     1      47.150   6.123  14.033  0.00  0.00    +0.000 A 
ATOM      2  C   UNL     1      46.998   7.347  13.379  0.00  0.00    +0.000 A 
ATOM      3  C   UNL     1      45.926   7.546  12.517  0.00  0.00    +0.000 A 
ATOM      4  C   UNL     1      45.010   6.515  12.342  0.00  0.00    +0.000 A 
ATOM      5  N   UNL     1      45.138   5.311  12.957  0.00  0.00    +0.000 NA
ATOM      6  C   UNL     1      46.194   5.147  13.788  0.00  0.00    +0.000 A 
ENDROOT
BRANCH   1   7
ATOM      7  C   UNL     1      48.310   5.869  14.951  0.00  0.00    +0.000 C 
BRANCH   7   8
ATOM      8  O   UNL     1      48.211   4.567  15.541  0.00  0.00    +0.000 OA
BRANCH   8  10
ATOM      9  O   UNL     1      47.115   4.702  17.539  0.00  0.00    +0.000 OA
ATOM     10  C   UNL     1      48.146   4.543  16.897  0.00  0.00    +0.000 C 
BRANCH  10  11
ATOM     11  C   UNL     1      49.453   4.392  17.532  0.00  0.00    +0.000 A 
ATOM     12  C   UNL     1      49.953   5.389  18.355  0.00  0.00    +0.000 A 
ATOM     13  S   UNL     1      51.506   5.041  18.970  0.00  0.00    +0.000 S 
ATOM     14  C   UNL     1      51.526   3.516  18.213  0.00  0.00    +0.000 A 
ATOM     15  N   UNL     1      52.575   2.669  18.385  0.00  0.00    +0.000 NA
ATOM     16  C   UNL     1      52.441   1.527  17.797  0.00  0.00    +0.000 A 
ATOM     17  N   UNL     1      51.355   1.163  17.042  0.00  0.00    +0.000 N 
ATOM     18  C   UNL     1      50.276   1.989  16.826  0.00  0.00    +0.000 A 
ATOM     19  O   UNL     1      49.329   1.602  16.153  0.00  0.00    +0.000 OA
ATOM     20  C   UNL     1      50.376   3.285  17.475  0.00  0.00    +0.000 A 
ATOM     21  H   UNL     1      51.302   0.247  16.619  0.00  0.00    +0.000 HD
ENDBRANCH  10  11
ENDBRANCH   8  10
ENDBRANCH   7   8
ENDBRANCH   1   7
BRANCH   4  22
ATOM     22  C   UNL     1      43.829   6.704  11.429  0.00  0.00    +0.000 C 
BRANCH  22  23
ATOM     23  C   UNL     1      43.500   5.450  10.606  0.00  0.00    +0.000 C 
BRANCH  23  24
ATOM     24  N   UNL     1      44.566   4.889   9.763  0.00  0.00    +0.000 NA
ATOM     25  H   UNL     1      45.446   4.907  10.288  0.00  0.00    +0.000 HD
BRANCH  24  26
ATOM     26  CA  UNL     1      44.335   3.472   9.371  0.00  0.00    +0.000 C 
BRANCH  26  27
ATOM     27  C   UNL     1      45.456   2.863   8.554  0.00  0.00    +0.000 A 
ATOM     28  C   UNL     1      46.120   3.570   7.557  0.00  0.00    +0.000 A 
ATOM     29  C   UNL     1      47.019   2.894   6.742  0.00  0.00    +0.000 A 
ATOM     30  C   UNL     1      47.230   1.552   6.983  0.00  0.00    +0.000 A 
ATOM     31  N   UNL     1      46.614   0.890   7.980  0.00  0.00    +0.000 NA
ATOM     32  N   UNL     1      45.718   1.551   8.769  0.00  0.00    +0.000 NA
ENDBRANCH  26  27
BRANCH  26  33
ATOM     33  C   UNL     1      44.022   2.636  10.633  0.00  0.00    +0.000 C 
BRANCH  33  34
ATOM     34  O   UNL     1      45.120   2.671  11.558  0.00  0.00    +0.000 OA
ATOM     35  H   UNL     1      45.936   2.486  11.057  0.00  0.00    +0.000 HD
ENDBRANCH  33  34
ENDBRANCH  26  33
ENDBRANCH  24  26
ENDBRANCH  23  24
ENDBRANCH  22  23
ENDBRANCH   4  22
TORSDOF 11
ENDMDL
MODEL 2
REMARK VINA RESULT:    -7.712      2.183      2.697
REMARK INTER + INTRA:         -14.210
REMARK INTER:                 -12.626
REMARK INTRA:                  -1.584
REMARK UNBOUND:                -1.763
REMARK  Name = 
REMARK  11 active torsions:
REMARK  status: ('A' for Active; 'I' for Inactive)
REMARK    1  A    between atoms: C_2  and  O_3
REMARK    2  A    between atoms: C_2  and  C_23
REMARK    3  A    between atoms: O_3  and  C_4
REMARK    4  A    between atoms: C_4  and  C_5
REMARK    5  A    between atoms: C_8  and  C_9
REMARK    6  A    between atoms: C_9  and  C_10
REMARK    7  A    between atoms: C_10  and  N_11
REMARK    8  A    between atoms: N_11  and  CA_12
REMARK    9  A    between atoms: CA_12  and  C_13
REMARK   10  A    between atoms: CA_12  and  C_15
REMARK   11  A    between atoms: C_13  and  O_14
REMARK                            x       y       z     vdW  Elec       q    Type
REMARK                         _______ _______ _______ _____ _____    ______ ____
ROOT
ATOM      1  C   UNL     1      47.717   7.600  12.556  0.00  0.00    +0.000 A 
ATOM      2  C   UNL     1      46.759   8.533  12.956  0.00  0.00    +0.000 A 
ATOM      3  C   UNL     1      45.433   8.376  12.569  0.00  0.00    +0.000 A 
ATOM      4  C   UNL     1      45.088   7.270  11.801  0.00  0.00    +0.000 A 
ATOM      5  N   UNL     1      46.000   6.352  11.390  0.00  0.00    +0.000 NA
ATOM      6  C   UNL     1      47.283   6.534  11.780  0.00  0.00    +0.000 A 
ENDROOT
BRANCH   1   7
ATOM      7  C   UNL     1      49.161   7.754  12.937  0.00  0.00    +0.000 C 
BRANCH   7   8
ATOM      8  O   UNL     1      49.491   6.878  14.023  0.00  0.00    +0.000 OA
BRANCH   8  10
ATOM      9  O   UNL     1      48.999   8.544  15.503  0.00  0.00    +0.000 OA
ATOM     10  C   UNL     1      49.243   7.367  15.265  0.00  0.00    +0.000 C 
BRANCH  10  11
ATOM     11  C   UNL     1      49.376   6.363  16.316  0.00  0.00    +0.000 A 
ATOM     12  C   UNL     1      50.338   6.505  17.304  0.00  0.00    +0.000 A 
ATOM     13  S   UNL     1      50.359   5.211  18.416  0.00  0.00    +0.000 S 
ATOM     14  C   UNL     1      49.037   4.458  17.652  0.00  0.00    +0.000 A 
ATOM     15  N   UNL     1      48.509   3.309  18.150  0.00  0.00    +0.000 NA
ATOM     16  C   UNL     1      47.479   2.870  17.505  0.00  0.00    +0.000 A 
ATOM     17  N   UNL     1      46.939   3.474  16.398  0.00  0.00    +0.000 N 
ATOM     18  C   UNL     1      47.445   4.630  15.848  0.00  0.00    +0.000 A 
ATOM     19  O   UNL     1      46.910   5.130  14.866  0.00  0.00    +0.000 OA
ATOM     20  C   UNL     1      48.601   5.168  16.545  0.00  0.00    +0.000 A 
ATOM     21  H   UNL     1      46.122   3.091  15.946  0.00  0.00    +0.000 HD
ENDBRANCH  10  11
ENDBRANCH   8  10
ENDBRANCH   7   8
ENDBRANCH   1   7
BRANCH   4  22
ATOM     22  C   UNL     1      43.657   7.063  11.380  0.00  0.00    +0.000 C 
BRANCH  22  23
ATOM     23  C   UNL     1      43.315   5.589  11.122  0.00  0.00    +0.000 C 
BRANCH  23  24
ATOM     24  N   UNL     1      43.625   5.038   9.795  0.00  0.00    +0.000 NA
ATOM     25  H   UNL     1      44.420   5.553   9.401  0.00  0.00    +0.000 HD
BRANCH  24  26
ATOM     26  CA  UNL     1      44.019   3.604   9.819  0.00  0.00    +0.000 C 
BRANCH  26  27
ATOM     27  C   UNL     1      45.055   3.227   8.779  0.00  0.00    +0.000 A 
ATOM     28  C   UNL     1      45.569   1.939   8.672  0.00  0.00    +0.000 A 
ATOM     29  C   UNL     1      46.632   1.712   7.808  0.00  0.00    +0.000 A 
ATOM     30  C   UNL     1      47.110   2.778   7.073  0.00  0.00    +0.000 A 
ATOM     31  N   UNL     1      46.573   4.009   7.152  0.00  0.00    +0.000 NA
ATOM     32  N   UNL     1      45.541   4.235   8.015  0.00  0.00    +0.000 NA
ENDBRANCH  26  27
BRANCH  26  33
ATOM     33  C   UNL     1      44.471   3.220  11.246  0.00  0.00    +0.000 C 
BRANCH  33  34
ATOM     34  O   UNL     1      43.621   2.203  11.799  0.00  0.00    +0.000 OA
ATOM     35  H   UNL     1      43.357   1.609  11.071  0.00  0.00    +0.000 HD
ENDBRANCH  33  34
ENDBRANCH  26  33
ENDBRANCH  24  26
ENDBRANCH  23  24
ENDBRANCH  22  23
ENDBRANCH   4  22
TORSDOF 11
ENDMDL
MODEL 3
REMARK VINA RESULT:    -7.395      2.058      2.591
REMARK INTER + INTRA:         -13.697
REMARK INTER:                 -11.896
REMARK INTRA:                  -1.801
REMARK UNBOUND:                -1.763
REMARK  Name = 
REMARK  11 active torsions:
REMARK  status: ('A' for Active; 'I' for Inactive)
REMARK    1  A    between atoms: C_2  and  O_3
REMARK    2  A    between atoms: C_2  and  C_23
REMARK    3  A    between atoms: O_3  and  C_4
REMARK    4  A    between atoms: C_4  and  C_5
REMARK    5  A    between atoms: C_8  and  C_9
REMARK    6  A    between atoms: C_9  and  C_10
REMARK    7  A    between atoms: C_10  and  N_11
REMARK    8  A    between atoms: N_11  and  CA_12
REMARK    9  A    between atoms: CA_12  and  C_13
REMARK   10  A    between atoms: CA_12  and  C_15
REMARK   11  A    between atoms: C_13  and  O_14
REMARK                            x       y       z     vdW  Elec       q    Type
REMARK                         _______ _______ _______ _____ _____    ______ ____
ROOT
ATOM      1  C   UNL     1      47.298   6.437  13.654  0.00  0.00    +0.000 A 
ATOM      2  C   UNL     1      46.585   7.510  13.117  0.00  0.00    +0.000 A 
ATOM      3  C   UNL     1      45.304   7.312  12.615  0.00  0.00    +0.000 A 
ATOM      4  C   UNL     1      44.752   6.038  12.679  0.00  0.00    +0.000 A 
ATOM      5  N   UNL     1      45.426   4.974  13.187  0.00  0.00    +0.000 NA
ATOM      6  C   UNL     1      46.672   5.199  13.665  0.00  0.00    +0.000 A 
ENDROOT
BRANCH   1   7
ATOM      7  C   UNL     1      48.692   6.615  14.184  0.00  0.00    +0.000 C 
BRANCH   7   8
ATOM      8  O   UNL     1      48.858   5.900  15.415  0.00  0.00    +0.000 OA
BRANCH   8  10
ATOM      9  O   UNL     1      50.984   6.513  15.973  0.00  0.00    +0.000 OA
ATOM     10  C   UNL     1      49.798   6.399  16.258  0.00  0.00    +0.000 C 
BRANCH  10  11
ATOM     11  C   UNL     1      49.273   6.713  17.584  0.00  0.00    +0.000 A 
ATOM     12  C   UNL     1      48.830   7.993  17.878  0.00  0.00    +0.000 A 
ATOM     13  S   UNL     1      48.290   8.168  19.487  0.00  0.00    +0.000 S 
ATOM     14  C   UNL     1      48.566   6.521  19.818  0.00  0.00    +0.000 A 
ATOM     15  N   UNL     1      48.253   5.995  21.032  0.00  0.00    +0.000 NA
ATOM     16  C   UNL     1      48.466   4.724  21.134  0.00  0.00    +0.000 A 
ATOM     17  N   UNL     1      48.975   3.937  20.132  0.00  0.00    +0.000 N 
ATOM     18  C   UNL     1      49.320   4.425  18.892  0.00  0.00    +0.000 A 
ATOM     19  O   UNL     1      49.757   3.669  18.033  0.00  0.00    +0.000 OA
ATOM     20  C   UNL     1      49.091   5.850  18.725  0.00  0.00    +0.000 A 
ATOM     21  H   UNL     1      49.104   2.945  20.268  0.00  0.00    +0.000 HD
ENDBRANCH  10  11
ENDBRANCH   8  10
ENDBRANCH   7   8
ENDBRANCH   1   7
BRANCH   4  22
ATOM     22  C   UNL     1      43.361   5.793  12.158  0.00  0.00    +0.000 C 
BRANCH  22  23
ATOM     23  C   UNL     1      43.327   5.515  10.648  0.00  0.00    +0.000 C 
BRANCH  23  24
ATOM     24  N   UNL     1      44.512   4.890  10.043  0.00  0.00    +0.000 NA
ATOM     25  H   UNL     1      45.248   4.819  10.753  0.00  0.00    +0.000 HD
BRANCH  24  26
ATOM     26  CA  UNL     1      44.271   3.509   9.543  0.00  0.00    +0.000 C 
BRANCH  26  27
ATOM     27  C   UNL     1      45.392   2.955   8.686  0.00  0.00    +0.000 A 
ATOM     28  C   UNL     1      46.043   3.719   7.724  0.00  0.00    +0.000 A 
ATOM     29  C   UNL     1      46.941   3.096   6.868  0.00  0.00    +0.000 A 
ATOM     30  C   UNL     1      47.164   1.745   7.035  0.00  0.00    +0.000 A 
ATOM     31  N   UNL     1      46.562   1.025   7.999  0.00  0.00    +0.000 NA
ATOM     32  N   UNL     1      45.665   1.635   8.828  0.00  0.00    +0.000 NA
ENDBRANCH  26  27
BRANCH  26  33
ATOM     33  C   UNL     1      43.945   2.582  10.735  0.00  0.00    +0.000 C 
BRANCH  33  34
ATOM     34  O   UNL     1      45.004   2.600  11.705  0.00  0.00    +0.000 OA
ATOM     35  H   UNL     1      44.665   2.183  12.521  0.00  0.00    +0.000 HD
ENDBRANCH  33  34
ENDBRANCH  26  33
ENDBRANCH  24  26
ENDBRANCH  23  24
ENDBRANCH  22  23
ENDBRANCH   4  22
TORSDOF 11
ENDMDL
MODEL 4
REMARK VINA RESULT:    -7.104      3.218      4.217
REMARK INTER + INTRA:         -13.228
REMARK INTER:                 -11.739
REMARK INTRA:                  -1.489
REMARK UNBOUND:                -1.763
REMARK  Name = 
REMARK  11 active torsions:
REMARK  status: ('A' for Active; 'I' for Inactive)
REMARK    1  A    between atoms: C_2  and  O_3
REMARK    2  A    between atoms: C_2  and  C_23
REMARK    3  A    between atoms: O_3  and  C_4
REMARK    4  A    between atoms: C_4  and  C_5
REMARK    5  A    between atoms: C_8  and  C_9
REMARK    6  A    between atoms: C_9  and  C_10
REMARK    7  A    between atoms: C_10  and  N_11
REMARK    8  A    between atoms: N_11  and  CA_12
REMARK    9  A    between atoms: CA_12  and  C_13
REMARK   10  A    between atoms: CA_12  and  C_15
REMARK   11  A    between atoms: C_13  and  O_14
REMARK                            x       y       z     vdW  Elec       q    Type
REMARK                         _______ _______ _______ _____ _____    ______ ____
ROOT
ATOM      1  C   UNL     1      47.637   6.584  13.059  0.00  0.00    +0.000 A 
ATOM      2  C   UNL     1      47.162   5.358  13.528  0.00  0.00    +0.000 A 
ATOM      3  C   UNL     1      45.802   5.075  13.481  0.00  0.00    +0.000 A 
ATOM      4  C   UNL     1      44.941   6.025  12.942  0.00  0.00    +0.000 A 
ATOM      5  N   UNL     1      45.373   7.229  12.487  0.00  0.00    +0.000 NA
ATOM      6  C   UNL     1      46.703   7.476  12.549  0.00  0.00    +0.000 A 
ENDROOT
BRANCH   1   7
ATOM      7  C   UNL     1      49.097   6.928  13.118  0.00  0.00    +0.000 C 
BRANCH   7   8
ATOM      8  O   UNL     1      49.339   7.927  14.117  0.00  0.00    +0.000 OA
BRANCH   8  10
ATOM      9  O   UNL     1      51.336   7.437  15.108  0.00  0.00    +0.000 OA
ATOM     10  C   UNL     1      50.116   7.534  15.159  0.00  0.00    +0.000 C 
BRANCH  10  11
ATOM     11  C   UNL     1      49.345   7.153  16.340  0.00  0.00    +0.000 A 
ATOM     12  C   UNL     1      49.198   5.817  16.680  0.00  0.00    +0.000 A 
ATOM     13  S   UNL     1      48.233   5.577  18.067  0.00  0.00    +0.000 S 
ATOM     14  C   UNL     1      48.044   7.254  18.295  0.00  0.00    +0.000 A 
ATOM     15  N   UNL     1      47.354   7.735  19.362  0.00  0.00    +0.000 NA
ATOM     16  C   UNL     1      47.328   9.025  19.444  0.00  0.00    +0.000 A 
ATOM     17  N   UNL     1      47.921   9.873  18.544  0.00  0.00    +0.000 N 
ATOM     18  C   UNL     1      48.618   9.435  17.441  0.00  0.00    +0.000 A 
ATOM     19  O   UNL     1      49.138  10.242  16.680  0.00  0.00    +0.000 OA
ATOM     20  C   UNL     1      48.683   7.989  17.310  0.00  0.00    +0.000 A 
ATOM     21  H   UNL     1      47.879  10.874  18.671  0.00  0.00    +0.000 HD
ENDBRANCH  10  11
ENDBRANCH   8  10
ENDBRANCH   7   8
ENDBRANCH   1   7
BRANCH   4  22
ATOM     22  C   UNL     1      43.465   5.742  12.861  0.00  0.00    +0.000 C 
BRANCH  22  23
ATOM     23  C   UNL     1      42.977   5.510  11.424  0.00  0.00    +0.000 C 
BRANCH  23  24
ATOM     24  N   UNL     1      43.978   5.139  10.414  0.00  0.00    +0.000 NA
ATOM     25  H   UNL     1      44.914   5.310  10.798  0.00  0.00    +0.000 HD
BRANCH  24  26
ATOM     26  CA  UNL     1      43.935   3.702  10.029  0.00  0.00    +0.000 C 
BRANCH  26  27
ATOM     27  C   UNL     1      44.920   3.321   8.943  0.00  0.00    +0.000 A 
ATOM     28  C   UNL     1      45.410   2.027   8.802  0.00  0.00    +0.000 A 
ATOM     29  C   UNL     1      46.433   1.793   7.893  0.00  0.00    +0.000 A 
ATOM     30  C   UNL     1      46.896   2.859   7.149  0.00  0.00    +0.000 A 
ATOM     31  N   UNL     1      46.382   4.097   7.262  0.00  0.00    +0.000 NA
ATOM     32  N   UNL     1      45.389   4.330   8.169  0.00  0.00    +0.000 NA
ENDBRANCH  26  27
BRANCH  26  33
ATOM     33  C   UNL     1      44.102   2.827  11.292  0.00  0.00    +0.000 C 
BRANCH  33  34
ATOM     34  O   UNL     1      42.914   2.061  11.548  0.00  0.00    +0.000 OA
ATOM     35  H   UNL     1      43.189   1.148  11.754  0.00  0.00    +0.000 HD
ENDBRANCH  33  34
ENDBRANCH  26  33
ENDBRANCH  24  26
ENDBRANCH  23  24
ENDBRANCH  22  23
ENDBRANCH   4  22
TORSDOF 11
ENDMDL
MODEL 5
REMARK VINA RESULT:    -7.023      1.927      2.486
REMARK INTER + INTRA:         -13.098
REMARK INTER:                 -11.275
REMARK INTRA:                  -1.823
REMARK UNBOUND:                -1.763
REMARK  Name = 
REMARK  11 active torsions:
REMARK  status: ('A' for Active; 'I' for Inactive)
REMARK    1  A    between atoms: C_2  and  O_3
REMARK    2  A    between atoms: C_2  and  C_23
REMARK    3  A    between atoms: O_3  and  C_4
REMARK    4  A    between atoms: C_4  and  C_5
REMARK    5  A    between atoms: C_8  and  C_9
REMARK    6  A    between atoms: C_9  and  C_10
REMARK    7  A    between atoms: C_10  and  N_11
REMARK    8  A    between atoms: N_11  and  CA_12
REMARK    9  A    between atoms: CA_12  and  C_13
REMARK   10  A    between atoms: CA_12  and  C_15
REMARK   11  A    between atoms: C_13  and  O_14
REMARK                            x       y       z     vdW  Elec       q    Type
REMARK                         _______ _______ _______ _____ _____    ______ ____
ROOT
ATOM      1  C   UNL     1      47.450   7.112  12.727  0.00  0.00    +0.000 A 
ATOM      2  C   UNL     1      46.423   8.029  12.497  0.00  0.00    +0.000 A 
ATOM      3  C   UNL     1      45.102   7.600  12.470  0.00  0.00    +0.000 A 
ATOM      4  C   UNL     1      44.831   6.256  12.696  0.00  0.00    +0.000 A 
ATOM      5  N   UNL     1      45.810   5.339  12.913  0.00  0.00    +0.000 NA
ATOM      6  C   UNL     1      47.087   5.787  12.930  0.00  0.00    +0.000 A 
ENDROOT
BRANCH   1   7
ATOM      7  C   UNL     1      48.889   7.540  12.738  0.00  0.00    +0.000 C 
BRANCH   7   8
ATOM      8  O   UNL     1      49.597   6.898  13.807  0.00  0.00    +0.000 OA
BRANCH   8  10
ATOM      9  O   UNL     1      49.755   8.911  14.870  0.00  0.00    +0.000 OA
ATOM     10  C   UNL     1      50.027   7.719  14.799  0.00  0.00    +0.000 C 
BRANCH  10  11
ATOM     11  C   UNL     1      50.927   7.060  15.741  0.00  0.00    +0.000 A 
ATOM     12  C   UNL     1      52.266   7.414  15.798  0.00  0.00    +0.000 A 
ATOM     13  S   UNL     1      53.157   6.505  16.934  0.00  0.00    +0.000 S 
ATOM     14  C   UNL     1      51.765   5.660  17.434  0.00  0.00    +0.000 A 
ATOM     15  N   UNL     1      51.831   4.749  18.441  0.00  0.00    +0.000 NA
ATOM     16  C   UNL     1      50.695   4.218  18.755  0.00  0.00    +0.000 A 
ATOM     17  N   UNL     1      49.504   4.509  18.141  0.00  0.00    +0.000 N 
ATOM     18  C   UNL     1      49.389   5.412  17.108  0.00  0.00    +0.000 A 
ATOM     19  O   UNL     1      48.294   5.641  16.609  0.00  0.00    +0.000 OA
ATOM     20  C   UNL     1      50.639   6.044  16.724  0.00  0.00    +0.000 A 
ATOM     21  H   UNL     1      48.645   4.071  18.442  0.00  0.00    +0.000 HD
ENDBRANCH  10  11
ENDBRANCH   8  10
ENDBRANCH   7   8
ENDBRANCH   1   7
BRANCH   4  22
ATOM     22  C   UNL     1      43.409   5.763  12.690  0.00  0.00    +0.000 C 
BRANCH  22  23
ATOM     23  C   UNL     1      42.904   5.405  11.285  0.00  0.00    +0.000 C 
BRANCH  23  24
ATOM     24  N   UNL     1      43.908   5.068  10.265  0.00  0.00    +0.000 NA
ATOM     25  H   UNL     1      44.840   5.278  10.637  0.00  0.00    +0.000 HD
BRANCH  24  26
ATOM     26  CA  UNL     1      43.917   3.628   9.888  0.00  0.00    +0.000 C 
BRANCH  26  27
ATOM     27  C   UNL     1      45.079   3.226   9.002  0.00  0.00    +0.000 A 
ATOM     28  C   UNL     1      45.730   4.131   8.170  0.00  0.00    +0.000 A 
ATOM     29  C   UNL     1      46.672   3.654   7.268  0.00  0.00    +0.000 A 
ATOM     30  C   UNL     1      46.937   2.300   7.263  0.00  0.00    +0.000 A 
ATOM     31  N   UNL     1      46.333   1.441   8.104  0.00  0.00    +0.000 NA
ATOM     32  N   UNL     1      45.394   1.908   8.978  0.00  0.00    +0.000 NA
ENDBRANCH  26  27
BRANCH  26  33
ATOM     33  C   UNL     1      43.841   2.763  11.166  0.00  0.00    +0.000 C 
BRANCH  33  34
ATOM     34  O   UNL     1      45.106   2.738  11.847  0.00  0.00    +0.000 OA
ATOM     35  H   UNL     1      45.335   3.657  12.080  0.00  0.00    +0.000 HD
ENDBRANCH  33  34
ENDBRANCH  26  33
ENDBRANCH  24  26
ENDBRANCH  23  24
ENDBRANCH  22  23
ENDBRANCH   4  22
TORSDOF 11
ENDMDL
MODEL 6
REMARK VINA RESULT:    -6.865      3.448      8.737
REMARK INTER + INTRA:         -12.842
REMARK INTER:                 -10.897
REMARK INTRA:                  -1.945
REMARK UNBOUND:                -1.763
REMARK  Name = 
REMARK  11 active torsions:
REMARK  status: ('A' for Active; 'I' for Inactive)
REMARK    1  A    between atoms: C_2  and  O_3
REMARK    2  A    between atoms: C_2  and  C_23
REMARK    3  A    between atoms: O_3  and  C_4
REMARK    4  A    between atoms: C_4  and  C_5
REMARK    5  A    between atoms: C_8  and  C_9
REMARK    6  A    between atoms: C_9  and  C_10
REMARK    7  A    between atoms: C_10  and  N_11
REMARK    8  A    between atoms: N_11  and  CA_12
REMARK    9  A    between atoms: CA_12  and  C_13
REMARK   10  A    between atoms: CA_12  and  C_15
REMARK   11  A    between atoms: C_13  and  O_14
REMARK                            x       y       z     vdW  Elec       q    Type
REMARK                         _______ _______ _______ _____ _____    ______ ____
ROOT
ATOM      1  C   UNL     1      47.902   7.943  13.973  0.00  0.00    +0.000 A 
ATOM      2  C   UNL     1      48.504   6.727  14.303  0.00  0.00    +0.000 A 
ATOM      3  C   UNL     1      49.135   6.574  15.531  0.00  0.00    +0.000 A 
ATOM      4  C   UNL     1      49.133   7.643  16.420  0.00  0.00    +0.000 A 
ATOM      5  N   UNL     1      48.565   8.840  16.123  0.00  0.00    +0.000 NA
ATOM      6  C   UNL     1      47.961   8.958  14.918  0.00  0.00    +0.000 A 
ENDROOT
BRANCH   1   7
ATOM      7  C   UNL     1      47.233   8.146  12.645  0.00  0.00    +0.000 C 
BRANCH   7   8
ATOM      8  O   UNL     1      46.788   6.894  12.108  0.00  0.00    +0.000 OA
BRANCH   8  10
ATOM      9  O   UNL     1      44.954   7.903  11.198  0.00  0.00    +0.000 OA
ATOM     10  C   UNL     1      45.536   6.896  11.582  0.00  0.00    +0.000 C 
BRANCH  10  11
ATOM     11  C   UNL     1      44.906   5.579  11.592  0.00  0.00    +0.000 A 
ATOM     12  C   UNL     1      44.157   5.168  12.684  0.00  0.00    +0.000 A 
ATOM     13  S   UNL     1      43.537   3.587  12.521  0.00  0.00    +0.000 S 
ATOM     14  C   UNL     1      44.191   3.431  10.956  0.00  0.00    +0.000 A 
ATOM     15  N   UNL     1      43.973   2.308  10.221  0.00  0.00    +0.000 NA
ATOM     16  C   UNL     1      44.483   2.340   9.034  0.00  0.00    +0.000 A 
ATOM     17  N   UNL     1      45.200   3.392   8.523  0.00  0.00    +0.000 N 
ATOM     18  C   UNL     1      45.459   4.543   9.232  0.00  0.00    +0.000 A 
ATOM     19  O   UNL     1      46.095   5.454   8.716  0.00  0.00    +0.000 OA
ATOM     20  C   UNL     1      44.899   4.559  10.572  0.00  0.00    +0.000 A 
ATOM     21  H   UNL     1      45.560   3.364   7.580  0.00  0.00    +0.000 HD
ENDBRANCH  10  11
ENDBRANCH   8  10
ENDBRANCH   7   8
ENDBRANCH   1   7
BRANCH   4  22
ATOM     22  C   UNL     1      49.794   7.503  17.765  0.00  0.00    +0.000 C 
BRANCH  22  23
ATOM     23  C   UNL     1      48.810   7.650  18.935  0.00  0.00    +0.000 C 
BRANCH  23  24
ATOM     24  N   UNL     1      47.482   7.039  18.789  0.00  0.00    +0.000 NA
ATOM     25  H   UNL     1      47.260   6.964  17.791  0.00  0.00    +0.000 HD
BRANCH  24  26
ATOM     26  CA  UNL     1      47.392   5.662  19.347  0.00  0.00    +0.000 C 
BRANCH  26  27
ATOM     27  C   UNL     1      47.711   4.566  18.350  0.00  0.00    +0.000 A 
ATOM     28  C   UNL     1      48.928   3.892  18.348  0.00  0.00    +0.000 A 
ATOM     29  C   UNL     1      49.209   3.022  17.304  0.00  0.00    +0.000 A 
ATOM     30  C   UNL     1      48.248   2.846  16.329  0.00  0.00    +0.000 A 
ATOM     31  N   UNL     1      47.056   3.470  16.367  0.00  0.00    +0.000 NA
ATOM     32  N   UNL     1      46.788   4.340  17.384  0.00  0.00    +0.000 NA
ENDBRANCH  26  27
BRANCH  26  33
ATOM     33  C   UNL     1      48.274   5.564  20.613  0.00  0.00    +0.000 C 
BRANCH  33  34
ATOM     34  O   UNL     1      47.712   4.644  21.561  0.00  0.00    +0.000 OA
ATOM     35  H   UNL     1      47.028   5.122  22.069  0.00  0.00    +0.000 HD
ENDBRANCH  33  34
ENDBRANCH  26  33
ENDBRANCH  24  26
ENDBRANCH  23  24
ENDBRANCH  22  23
ENDBRANCH   4  22
TORSDOF 11
ENDMDL
MODEL 7
REMARK VINA RESULT:    -6.772      3.343      8.634
REMARK INTER + INTRA:         -12.692
REMARK INTER:                 -10.512
REMARK INTRA:                  -2.180
REMARK UNBOUND:                -1.763
REMARK  Name = 
REMARK  11 active torsions:
REMARK  status: ('A' for Active; 'I' for Inactive)
REMARK    1  A    between atoms: C_2  and  O_3
REMARK    2  A    between atoms: C_2  and  C_23
REMARK    3  A    between atoms: O_3  and  C_4
REMARK    4  A    between atoms: C_4  and  C_5
REMARK    5  A    between atoms: C_8  and  C_9
REMARK    6  A    between atoms: C_9  and  C_10
REMARK    7  A    between atoms: C_10  and  N_11
REMARK    8  A    between atoms: N_11  and  CA_12
REMARK    9  A    between atoms: CA_12  and  C_13
REMARK   10  A    between atoms: CA_12  and  C_15
REMARK   11  A    between atoms: C_13  and  O_14
REMARK                            x       y       z     vdW  Elec       q    Type
REMARK                         _______ _______ _______ _____ _____    ______ ____
ROOT
ATOM      1  C   UNL     1      49.613   7.641  15.881  0.00  0.00    +0.000 A 
ATOM      2  C   UNL     1      49.376   7.649  17.257  0.00  0.00    +0.000 A 
ATOM      3  C   UNL     1      50.414   7.391  18.143  0.00  0.00    +0.000 A 
ATOM      4  C   UNL     1      51.684   7.150  17.631  0.00  0.00    +0.000 A 
ATOM      5  N   UNL     1      51.943   7.126  16.298  0.00  0.00    +0.000 NA
ATOM      6  C   UNL     1      50.910   7.377  15.461  0.00  0.00    +0.000 A 
ENDROOT
BRANCH   1   7
ATOM      7  C   UNL     1      48.507   7.893  14.898  0.00  0.00    +0.000 C 
BRANCH   7   8
ATOM      8  O   UNL     1      47.745   6.699  14.681  0.00  0.00    +0.000 OA
BRANCH   8  10
ATOM      9  O   UNL     1      48.835   5.916  12.835  0.00  0.00    +0.000 OA
ATOM     10  C   UNL     1      47.796   6.193  13.422  0.00  0.00    +0.000 C 
BRANCH  10  11
ATOM     11  C   UNL     1      46.483   6.086  12.792  0.00  0.00    +0.000 A 
ATOM     12  C   UNL     1      45.887   7.199  12.218  0.00  0.00    +0.000 A 
ATOM     13  S   UNL     1      44.342   6.878  11.568  0.00  0.00    +0.000 S 
ATOM     14  C   UNL     1      44.454   5.227  11.971  0.00  0.00    +0.000 A 
ATOM     15  N   UNL     1      43.461   4.362  11.634  0.00  0.00    +0.000 NA
ATOM     16  C   UNL     1      43.694   3.132  11.953  0.00  0.00    +0.000 A 
ATOM     17  N   UNL     1      44.826   2.694  12.591  0.00  0.00    +0.000 N 
ATOM     18  C   UNL     1      45.852   3.532  12.965  0.00  0.00    +0.000 A 
ATOM     19  O   UNL     1      46.846   3.079  13.519  0.00  0.00    +0.000 OA
ATOM     20  C   UNL     1      45.641   4.927  12.619  0.00  0.00    +0.000 A 
ATOM     21  H   UNL     1      44.958   1.715  12.800  0.00  0.00    +0.000 HD
ENDBRANCH  10  11
ENDBRANCH   8  10
ENDBRANCH   7   8
ENDBRANCH   1   7
BRANCH   4  22
ATOM     22  C   UNL     1      52.834   6.883  18.566  0.00  0.00    +0.000 C 
BRANCH  22  23
ATOM     23  C   UNL     1      53.254   5.407  18.594  0.00  0.00    +0.000 C 
BRANCH  23  24
ATOM     24  N   UNL     1      52.710   4.523  17.553  0.00  0.00    +0.000 NA
ATOM     25  H   UNL     1      53.486   4.154  16.994  0.00  0.00    +0.000 HD
BRANCH  24  26
ATOM     26  CA  UNL     1      51.977   3.344  18.092  0.00  0.00    +0.000 C 
BRANCH  26  27
ATOM     27  C   UNL     1      50.572   3.185  17.547  0.00  0.00    +0.000 A 
ATOM     28  C   UNL     1      49.483   3.860  18.088  0.00  0.00    +0.000 A 
ATOM     29  C   UNL     1      48.207   3.536  17.645  0.00  0.00    +0.000 A 
ATOM     30  C   UNL     1      48.086   2.573  16.664  0.00  0.00    +0.000 A 
ATOM     31  N   UNL     1      49.152   1.960  16.116  0.00  0.00    +0.000 NA
ATOM     32  N   UNL     1      50.404   2.266  16.565  0.00  0.00    +0.000 NA
ENDBRANCH  26  27
BRANCH  26  33
ATOM     33  C   UNL     1      52.826   2.071  17.876  0.00  0.00    +0.000 C 
BRANCH  33  34
ATOM     34  O   UNL     1      52.111   0.899  18.296  0.00  0.00    +0.000 OA
ATOM     35  H   UNL     1      51.244   1.187  18.638  0.00  0.00    +0.000 HD
ENDBRANCH  33  34
ENDBRANCH  26  33
ENDBRANCH  24  26
ENDBRANCH  23  24
ENDBRANCH  22  23
ENDBRANCH   4  22
TORSDOF 11
ENDMDL
MODEL 8
REMARK VINA RESULT:    -6.371      4.462      5.430
REMARK INTER + INTRA:         -12.044
REMARK INTER:                 -10.951
REMARK INTRA:                  -1.093
REMARK UNBOUND:                -1.763
REMARK  Name = 
REMARK  11 active torsions:
REMARK  status: ('A' for Active; 'I' for Inactive)
REMARK    1  A    between atoms: C_2  and  O_3
REMARK    2  A    between atoms: C_2  and  C_23
REMARK    3  A    between atoms: O_3  and  C_4
REMARK    4  A    between atoms: C_4  and  C_5
REMARK    5  A    between atoms: C_8  and  C_9
REMARK    6  A    between atoms: C_9  and  C_10
REMARK    7  A    between atoms: C_10  and  N_11
REMARK    8  A    between atoms: N_11  and  CA_12
REMARK    9  A    between atoms: CA_12  and  C_13
REMARK   10  A    between atoms: CA_12  and  C_15
REMARK   11  A    between atoms: C_13  and  O_14
REMARK                            x       y       z     vdW  Elec       q    Type
REMARK                         _______ _______ _______ _____ _____    ______ ____
ROOT
ATOM      1  C   UNL     1      47.494   6.846  13.136  0.00  0.00    +0.000 A 
ATOM      2  C   UNL     1      47.152   5.551  13.528  0.00  0.00    +0.000 A 
ATOM      3  C   UNL     1      45.828   5.133  13.468  0.00  0.00    +0.000 A 
ATOM      4  C   UNL     1      44.869   6.021  12.995  0.00  0.00    +0.000 A 
ATOM      5  N   UNL     1      45.170   7.290  12.616  0.00  0.00    +0.000 NA
ATOM      6  C   UNL     1      46.468   7.668  12.689  0.00  0.00    +0.000 A 
ENDROOT
BRANCH   1   7
ATOM      7  C   UNL     1      48.912   7.335  13.211  0.00  0.00    +0.000 C 
BRANCH   7   8
ATOM      8  O   UNL     1      48.956   8.765  13.140  0.00  0.00    +0.000 OA
BRANCH   8  10
ATOM      9  O   UNL     1      48.997   9.929  11.178  0.00  0.00    +0.000 OA
ATOM     10  C   UNL     1      49.570   9.278  12.043  0.00  0.00    +0.000 C 
BRANCH  10  11
ATOM     11  C   UNL     1      50.978   8.906  11.945  0.00  0.00    +0.000 A 
ATOM     12  C   UNL     1      51.430   8.143  10.879  0.00  0.00    +0.000 A 
ATOM     13  S   UNL     1      53.096   7.783  10.965  0.00  0.00    +0.000 S 
ATOM     14  C   UNL     1      53.277   8.695  12.392  0.00  0.00    +0.000 A 
ATOM     15  N   UNL     1      54.498   8.841  12.972  0.00  0.00    +0.000 NA
ATOM     16  C   UNL     1      54.504   9.598  14.020  0.00  0.00    +0.000 A 
ATOM     17  N   UNL     1      53.394  10.209  14.544  0.00  0.00    +0.000 N 
ATOM     18  C   UNL     1      52.135  10.079  14.003  0.00  0.00    +0.000 A 
ATOM     19  O   UNL     1      51.184  10.661  14.510  0.00  0.00    +0.000 OA
ATOM     20  C   UNL     1      52.078   9.244  12.816  0.00  0.00    +0.000 A 
ATOM     21  H   UNL     1      53.465  10.802  15.358  0.00  0.00    +0.000 HD
ENDBRANCH  10  11
ENDBRANCH   8  10
ENDBRANCH   7   8
ENDBRANCH   1   7
BRANCH   4  22
ATOM     22  C   UNL     1      43.428   5.594  12.903  0.00  0.00    +0.000 C 
BRANCH  22  23
ATOM     23  C   UNL     1      42.933   5.462  11.455  0.00  0.00    +0.000 C 
BRANCH  23  24
ATOM     24  N   UNL     1      43.924   5.120  10.424  0.00  0.00    +0.000 NA
ATOM     25  H   UNL     1      44.862   5.309  10.791  0.00  0.00    +0.000 HD
BRANCH  24  26
ATOM     26  CA  UNL     1      43.904   3.685  10.029  0.00  0.00    +0.000 C 
BRANCH  26  27
ATOM     27  C   UNL     1      44.904   3.325   8.949  0.00  0.00    +0.000 A 
ATOM     28  C   UNL     1      45.412   2.039   8.803  0.00  0.00    +0.000 A 
ATOM     29  C   UNL     1      46.446   1.825   7.901  0.00  0.00    +0.000 A 
ATOM     30  C   UNL     1      46.901   2.903   7.169  0.00  0.00    +0.000 A 
ATOM     31  N   UNL     1      46.370   4.134   7.287  0.00  0.00    +0.000 NA
ATOM     32  N   UNL     1      45.366   4.346   8.188  0.00  0.00    +0.000 NA
ENDBRANCH  26  27
BRANCH  26  33
ATOM     33  C   UNL     1      44.074   2.805  11.288  0.00  0.00    +0.000 C 
BRANCH  33  34
ATOM     34  O   UNL     1      42.894   2.025  11.534  0.00  0.00    +0.000 OA
ATOM     35  H   UNL     1      42.153   2.451  11.062  0.00  0.00    +0.000 HD
ENDBRANCH  33  34
ENDBRANCH  26  33
ENDBRANCH  24  26
ENDBRANCH  23  24
ENDBRANCH  22  23
ENDBRANCH   4  22
TORSDOF 11
ENDMDL
MODEL 9
REMARK VINA RESULT:    -6.174      3.318      4.315
REMARK INTER + INTRA:         -11.727
REMARK INTER:                 -10.241
REMARK INTRA:                  -1.486
REMARK UNBOUND:                -1.763
REMARK  Name = 
REMARK  11 active torsions:
REMARK  status: ('A' for Active; 'I' for Inactive)
REMARK    1  A    between atoms: C_2  and  O_3
REMARK    2  A    between atoms: C_2  and  C_23
REMARK    3  A    between atoms: O_3  and  C_4
REMARK    4  A    between atoms: C_4  and  C_5
REMARK    5  A    between atoms: C_8  and  C_9
REMARK    6  A    between atoms: C_9  and  C_10
REMARK    7  A    between atoms: C_10  and  N_11
REMARK    8  A    between atoms: N_11  and  CA_12
REMARK    9  A    between atoms: CA_12  and  C_13
REMARK   10  A    between atoms: CA_12  and  C_15
REMARK   11  A    between atoms: C_13  and  O_14
REMARK                            x       y       z     vdW  Elec       q    Type
REMARK                         _______ _______ _______ _____ _____    ______ ____
ROOT
ATOM      1  C   UNL     1      48.777   9.676  12.106  0.00  0.00    +0.000 A 
ATOM      2  C   UNL     1      48.849   8.298  11.895  0.00  0.00    +0.000 A 
ATOM      3  C   UNL     1      47.697   7.523  11.964  0.00  0.00    +0.000 A 
ATOM      4  C   UNL     1      46.485   8.152  12.223  0.00  0.00    +0.000 A 
ATOM      5  N   UNL     1      46.386   9.489  12.441  0.00  0.00    +0.000 NA
ATOM      6  C   UNL     1      47.526  10.215  12.371  0.00  0.00    +0.000 A 
ENDROOT
BRANCH   1   7
ATOM      7  C   UNL     1      50.007  10.536  12.062  0.00  0.00    +0.000 C 
BRANCH   7   8
ATOM      8  O   UNL     1      51.047   9.970  12.869  0.00  0.00    +0.000 OA
BRANCH   8  10
ATOM      9  O   UNL     1      50.485  11.048  14.800  0.00  0.00    +0.000 OA
ATOM     10  C   UNL     1      50.848  10.038  14.210  0.00  0.00    +0.000 C 
BRANCH  10  11
ATOM     11  C   UNL     1      51.193   8.801  14.906  0.00  0.00    +0.000 A 
ATOM     12  C   UNL     1      52.520   8.430  15.062  0.00  0.00    +0.000 A 
ATOM     13  S   UNL     1      52.713   6.938  15.867  0.00  0.00    +0.000 S 
ATOM     14  C   UNL     1      51.033   6.779  16.095  0.00  0.00    +0.000 A 
ATOM     15  N   UNL     1      50.523   5.721  16.779  0.00  0.00    +0.000 NA
ATOM     16  C   UNL     1      49.239   5.748  16.923  0.00  0.00    +0.000 A 
ATOM     17  N   UNL     1      48.421   6.732  16.430  0.00  0.00    +0.000 N 
ATOM     18  C   UNL     1      48.888   7.814  15.719  0.00  0.00    +0.000 A 
ATOM     19  O   UNL     1      48.108   8.670  15.317  0.00  0.00    +0.000 OA
ATOM     20  C   UNL     1      50.329   7.835  15.538  0.00  0.00    +0.000 A 
ATOM     21  H   UNL     1      47.424   6.705  16.589  0.00  0.00    +0.000 HD
ENDBRANCH  10  11
ENDBRANCH   8  10
ENDBRANCH   7   8
ENDBRANCH   1   7
BRANCH   4  22
ATOM     22  C   UNL     1      45.217   7.343  12.287  0.00  0.00    +0.000 C 
BRANCH  22  23
ATOM     23  C   UNL     1      44.995   6.475  11.040  0.00  0.00    +0.000 C 
BRANCH  23  24
ATOM     24  N   UNL     1      45.409   5.066  11.108  0.00  0.00    +0.000 NA
ATOM     25  H   UNL     1      45.297   4.735  12.072  0.00  0.00    +0.000 HD
BRANCH  24  26
ATOM     26  CA  UNL     1      44.594   4.162  10.251  0.00  0.00    +0.000 C 
BRANCH  26  27
ATOM     27  C   UNL     1      45.316   3.660   9.017  0.00  0.00    +0.000 A 
ATOM     28  C   UNL     1      45.536   2.307   8.782  0.00  0.00    +0.000 A 
ATOM     29  C   UNL     1      46.348   1.935   7.718  0.00  0.00    +0.000 A 
ATOM     30  C   UNL     1      46.876   2.934   6.925  0.00  0.00    +0.000 A 
ATOM     31  N   UNL     1      46.618   4.237   7.137  0.00  0.00    +0.000 NA
ATOM     32  N   UNL     1      45.835   4.602   8.193  0.00  0.00    +0.000 NA
ENDBRANCH  26  27
BRANCH  26  33
ATOM     33  C   UNL     1      44.044   3.001  11.110  0.00  0.00    +0.000 C 
BRANCH  33  34
ATOM     34  O   UNL     1      42.653   3.196  11.409  0.00  0.00    +0.000 OA
ATOM     35  H   UNL     1      42.595   3.607  12.293  0.00  0.00    +0.000 HD
ENDBRANCH  33  34
ENDBRANCH  26  33
ENDBRANCH  24  26
ENDBRANCH  23  24
ENDBRANCH  22  23
ENDBRANCH   4  22
TORSDOF 11
ENDMDL
