MODEL 1
REMARK VINA RESULT:    -7.013      0.000      0.000
REMARK INTER + INTRA:          -9.189
REMARK INTER:                  -8.652
REMARK INTRA:                  -0.537
REMARK UNBOUND:                -0.537
REMARK  Name = 
REMARK  6 active torsions:
REMARK  status: ('A' for Active; 'I' for Inactive)
REMARK    1  A    between atoms: C_1  and  O_2
REMARK    2  A    between atoms: O_2  and  C_3
REMARK    3  A    between atoms: C_14  and  C_15
REMARK    4  A    between atoms: C_15  and  O_16
REMARK    5  A    between atoms: O_16  and  C_17
REMARK    6  A    between atoms: C_21  and  C_22
REMARK                            x       y       z     vdW  Elec       q    Type
REMARK                         _______ _______ _______ _____ _____    ______ ____
ROOT
ATOM      1  C   UNL     1      45.369   5.574  12.504  0.00  0.00    +0.000 A 
ATOM      2  C   UNL     1      46.073   6.675  12.979  0.00  0.00    +0.000 A 
ATOM      3  C   UNL     1      45.750   7.951  12.529  0.00  0.00    +0.000 A 
ATOM      4  C   UNL     1      44.724   8.139  11.612  0.00  0.00    +0.000 A 
ATOM      5  N   UNL     1      44.358   9.402  11.215  0.00  0.00    +0.000 N 
ATOM      6  C   UNL     1      45.290  10.518  11.060  0.00  0.00    +0.000 C 
ATOM      7  C   UNL     1      44.716  11.777  11.748  0.00  0.00    +0.000 C 
ATOM      8  N   UNL     1      43.346  12.121  11.308  0.00  0.00    +0.000 NA
ATOM      9  C   UNL     1      42.471  10.937  11.491  0.00  0.00    +0.000 C 
ATOM     10  C   UNL     1      42.986   9.659  10.780  0.00  0.00    +0.000 C 
ATOM     11  N   UNL     1      44.042   7.073  11.136  0.00  0.00    +0.000 NA
ATOM     12  C   UNL     1      44.370   5.812  11.556  0.00  0.00    +0.000 A 
ATOM     13  H   UNL     1      43.379  12.327  10.310  0.00  0.00    +0.000 HD
ENDROOT
BRANCH   1  15
ATOM     14  C   UNL     1      46.786   4.085  13.676  0.00  0.00    +0.000 C 
ATOM     15  O   UNL     1      45.616   4.284  12.883  0.00  0.00    +0.000 OA
ENDBRANCH   1  15
BRANCH  12  16
ATOM     16  C   UNL     1      43.592   4.667  10.928  0.00  0.00    +0.000 C 
BRANCH  16  17
ATOM     17  O   UNL     1      43.705   4.709   9.503  0.00  0.00    +0.000 OA
BRANCH  17  18
ATOM     18  C   UNL     1      44.532   3.797   8.906  0.00  0.00    +0.000 A 
ATOM     19  C   UNL     1      44.601   2.552   9.522  0.00  0.00    +0.000 A 
ATOM     20  N   UNL     1      45.365   1.517   9.094  0.00  0.00    +0.000 NA
ATOM     21  C   UNL     1      46.107   1.736   7.989  0.00  0.00    +0.000 A 
ATOM     22  C   UNL     1      46.119   2.937   7.288  0.00  0.00    +0.000 A 
ATOM     23  C   UNL     1      46.980   3.107   6.074  0.00  0.00    +0.000 C 
ATOM     24  C   UNL     1      45.309   3.983   7.763  0.00  0.00    +0.000 A 
ENDBRANCH  17  18
ENDBRANCH  16  17
ENDBRANCH  12  16
TORSDOF 4
ENDMDL
MODEL 2
REMARK VINA RESULT:    -6.876      2.954      3.496
REMARK INTER + INTRA:          -9.020
REMARK INTER:                  -9.085
REMARK INTRA:                   0.064
REMARK UNBOUND:                -0.537
REMARK  Name = 
REMARK  6 active torsions:
REMARK  status: ('A' for Active; 'I' for Inactive)
REMARK    1  A    between atoms: C_1  and  O_2
REMARK    2  A    between atoms: O_2  and  C_3
REMARK    3  A    between atoms: C_14  and  C_15
REMARK    4  A    between atoms: C_15  and  O_16
REMARK    5  A    between atoms: O_16  and  C_17
REMARK    6  A    between atoms: C_21  and  C_22
REMARK                            x       y       z     vdW  Elec       q    Type
REMARK                         _______ _______ _______ _____ _____    ______ ____
ROOT
ATOM      1  C   UNL     1      44.510   4.740  11.612  0.00  0.00    +0.000 A 
ATOM      2  C   UNL     1      44.818   4.924  12.955  0.00  0.00    +0.000 A 
ATOM      3  C   UNL     1      45.917   5.696  13.315  0.00  0.00    +0.000 A 
ATOM      4  C   UNL     1      46.709   6.295  12.343  0.00  0.00    +0.000 A 
ATOM      5  N   UNL     1      47.756   7.112  12.694  0.00  0.00    +0.000 N 
ATOM      6  C   UNL     1      48.593   6.915  13.876  0.00  0.00    +0.000 C 
ATOM      7  C   UNL     1      48.753   8.254  14.631  0.00  0.00    +0.000 C 
ATOM      8  N   UNL     1      49.235   9.362  13.777  0.00  0.00    +0.000 NA
ATOM      9  C   UNL     1      48.339   9.488  12.602  0.00  0.00    +0.000 C 
ATOM     10  C   UNL     1      48.182   8.178  11.788  0.00  0.00    +0.000 C 
ATOM     11  N   UNL     1      46.423   6.112  11.034  0.00  0.00    +0.000 NA
ATOM     12  C   UNL     1      45.358   5.333  10.672  0.00  0.00    +0.000 A 
ATOM     13  H   UNL     1      50.162   9.113  13.432  0.00  0.00    +0.000 HD
ENDROOT
BRANCH   1  15
ATOM     14  C   UNL     1      43.286   2.722  11.784  0.00  0.00    +0.000 C 
ATOM     15  O   UNL     1      43.455   3.996  11.163  0.00  0.00    +0.000 OA
ENDBRANCH   1  15
BRANCH  12  16
ATOM     16  C   UNL     1      45.141   5.134   9.181  0.00  0.00    +0.000 C 
BRANCH  16  17
ATOM     17  O   UNL     1      44.671   3.809   8.918  0.00  0.00    +0.000 OA
BRANCH  17  18
ATOM     18  C   UNL     1      45.497   2.971   8.220  0.00  0.00    +0.000 A 
ATOM     19  C   UNL     1      45.621   1.683   8.731  0.00  0.00    +0.000 A 
ATOM     20  N   UNL     1      46.393   0.707   8.194  0.00  0.00    +0.000 NA
ATOM     21  C   UNL     1      47.086   1.033   7.084  0.00  0.00    +0.000 A 
ATOM     22  C   UNL     1      47.042   2.286   6.482  0.00  0.00    +0.000 A 
ATOM     23  C   UNL     1      47.852   2.575   5.256  0.00  0.00    +0.000 C 
ATOM     24  C   UNL     1      46.225   3.268   7.069  0.00  0.00    +0.000 A 
ENDBRANCH  17  18
ENDBRANCH  16  17
ENDBRANCH  12  16
TORSDOF 4
ENDMDL
MODEL 3
REMARK VINA RESULT:    -6.503      4.174      6.591
REMARK INTER + INTRA:          -8.560
REMARK INTER:                  -8.037
REMARK INTRA:                  -0.523
REMARK UNBOUND:                -0.537
REMARK  Name = 
REMARK  6 active torsions:
REMARK  status: ('A' for Active; 'I' for Inactive)
REMARK    1  A    between atoms: C_1  and  O_2
REMARK    2  A    between atoms: O_2  and  C_3
REMARK    3  A    between atoms: C_14  and  C_15
REMARK    4  A    between atoms: C_15  and  O_16
REMARK    5  A    between atoms: O_16  and  C_17
REMARK    6  A    between atoms: C_21  and  C_22
REMARK                            x       y       z     vdW  Elec       q    Type
REMARK                         _______ _______ _______ _____ _____    ______ ____
ROOT
ATOM      1  C   UNL     1      49.127   7.409  13.317  0.00  0.00    +0.000 A 
ATOM      2  C   UNL     1      49.876   7.551  14.478  0.00  0.00    +0.000 A 
ATOM      3  C   UNL     1      49.544   6.819  15.613  0.00  0.00    +0.000 A 
ATOM      4  C   UNL     1      48.471   5.936  15.595  0.00  0.00    +0.000 A 
ATOM      5  N   UNL     1      48.179   5.161  16.691  0.00  0.00    +0.000 N 
ATOM      6  C   UNL     1      48.365   5.592  18.076  0.00  0.00    +0.000 C 
ATOM      7  C   UNL     1      49.084   4.481  18.876  0.00  0.00    +0.000 C 
ATOM      8  N   UNL     1      48.425   3.160  18.779  0.00  0.00    +0.000 NA
ATOM      9  C   UNL     1      48.268   2.804  17.348  0.00  0.00    +0.000 C 
ATOM     10  C   UNL     1      47.513   3.872  16.514  0.00  0.00    +0.000 C 
ATOM     11  N   UNL     1      47.729   5.799  14.473  0.00  0.00    +0.000 NA
ATOM     12  C   UNL     1      48.036   6.535  13.361  0.00  0.00    +0.000 A 
ATOM     13  H   UNL     1      47.490   3.246  19.179  0.00  0.00    +0.000 HD
ENDROOT
BRANCH   1  15
ATOM     14  C   UNL     1      50.544   7.692  11.444  0.00  0.00    +0.000 C 
ATOM     15  O   UNL     1      49.374   8.088  12.157  0.00  0.00    +0.000 OA
ENDBRANCH   1  15
BRANCH  12  16
ATOM     16  C   UNL     1      47.118   6.363  12.161  0.00  0.00    +0.000 C 
BRANCH  16  17
ATOM     17  O   UNL     1      45.762   6.210  12.589  0.00  0.00    +0.000 OA
BRANCH  17  18
ATOM     18  C   UNL     1      45.091   5.092  12.179  0.00  0.00    +0.000 A 
ATOM     19  C   UNL     1      44.267   4.500  13.131  0.00  0.00    +0.000 A 
ATOM     20  N   UNL     1      43.525   3.383  12.928  0.00  0.00    +0.000 NA
ATOM     21  C   UNL     1      43.610   2.820  11.706  0.00  0.00    +0.000 A 
ATOM     22  C   UNL     1      44.398   3.320  10.674  0.00  0.00    +0.000 A 
ATOM     23  C   UNL     1      44.451   2.631   9.346  0.00  0.00    +0.000 C 
ATOM     24  C   UNL     1      45.148   4.483  10.926  0.00  0.00    +0.000 A 
ENDBRANCH  17  18
ENDBRANCH  16  17
ENDBRANCH  12  16
TORSDOF 4
ENDMDL
MODEL 4
REMARK VINA RESULT:    -6.308      2.385      3.009
REMARK INTER + INTRA:          -8.320
REMARK INTER:                  -7.631
REMARK INTRA:                  -0.689
REMARK UNBOUND:                -0.537
REMARK  Name = 
REMARK  6 active torsions:
REMARK  status: ('A' for Active; 'I' for Inactive)
REMARK    1  A    between atoms: C_1  and  O_2
REMARK    2  A    between atoms: O_2  and  C_3
REMARK    3  A    between atoms: C_14  and  C_15
REMARK    4  A    between atoms: C_15  and  O_16
REMARK    5  A    between atoms: O_16  and  C_17
REMARK    6  A    between atoms: C_21  and  C_22
REMARK                            x       y       z     vdW  Elec       q    Type
REMARK                         _______ _______ _______ _____ _____    ______ ____
ROOT
ATOM      1  C   UNL     1      46.558   5.599  13.491  0.00  0.00    +0.000 A 
ATOM      2  C   UNL     1      47.890   5.951  13.667  0.00  0.00    +0.000 A 
ATOM      3  C   UNL     1      48.367   7.147  13.141  0.00  0.00    +0.000 A 
ATOM      4  C   UNL     1      47.519   8.001  12.445  0.00  0.00    +0.000 A 
ATOM      5  N   UNL     1      47.968   9.214  11.981  0.00  0.00    +0.000 N 
ATOM      6  C   UNL     1      49.325   9.457  11.496  0.00  0.00    +0.000 C 
ATOM      7  C   UNL     1      49.881  10.753  12.128  0.00  0.00    +0.000 C 
ATOM      8  N   UNL     1      48.998  11.927  11.948  0.00  0.00    +0.000 NA
ATOM      9  C   UNL     1      47.645  11.593  12.456  0.00  0.00    +0.000 C 
ATOM     10  C   UNL     1      47.029  10.322  11.817  0.00  0.00    +0.000 C 
ATOM     11  N   UNL     1      46.224   7.660  12.259  0.00  0.00    +0.000 NA
ATOM     12  C   UNL     1      45.755   6.473  12.753  0.00  0.00    +0.000 A 
ATOM     13  H   UNL     1      48.914  12.106  10.947  0.00  0.00    +0.000 HD
ENDROOT
BRANCH   1  15
ATOM     14  C   UNL     1      46.414   3.243  13.314  0.00  0.00    +0.000 C 
ATOM     15  O   UNL     1      46.001   4.444  13.966  0.00  0.00    +0.000 OA
ENDBRANCH   1  15
BRANCH  12  16
ATOM     16  C   UNL     1      44.303   6.142  12.451  0.00  0.00    +0.000 C 
BRANCH  16  17
ATOM     17  O   UNL     1      44.080   6.119  11.038  0.00  0.00    +0.000 OA
BRANCH  17  18
ATOM     18  C   UNL     1      44.338   4.951  10.375  0.00  0.00    +0.000 A 
ATOM     19  C   UNL     1      43.719   3.816  10.889  0.00  0.00    +0.000 A 
ATOM     20  N   UNL     1      43.852   2.564  10.384  0.00  0.00    +0.000 NA
ATOM     21  C   UNL     1      44.650   2.435   9.305  0.00  0.00    +0.000 A 
ATOM     22  C   UNL     1      45.319   3.495   8.703  0.00  0.00    +0.000 A 
ATOM     23  C   UNL     1      46.199   3.268   7.512  0.00  0.00    +0.000 C 
ATOM     24  C   UNL     1      45.151   4.777   9.256  0.00  0.00    +0.000 A 
ENDBRANCH  17  18
ENDBRANCH  16  17
ENDBRANCH  12  16
TORSDOF 4
ENDMDL
MODEL 5
REMARK VINA RESULT:    -6.199      4.163      7.280
REMARK INTER + INTRA:          -8.185
REMARK INTER:                  -7.664
REMARK INTRA:                  -0.521
REMARK UNBOUND:                -0.537
REMARK  Name = 
REMARK  6 active torsions:
REMARK  status: ('A' for Active; 'I' for Inactive)
REMARK    1  A    between atoms: C_1  and  O_2
REMARK    2  A    between atoms: O_2  and  C_3
REMARK    3  A    between atoms: C_14  and  C_15
REMARK    4  A    between atoms: C_15  and  O_16
REMARK    5  A    between atoms: O_16  and  C_17
REMARK    6  A    between atoms: C_21  and  C_22
REMARK                            x       y       z     vdW  Elec       q    Type
REMARK                         _______ _______ _______ _____ _____    ______ ____
ROOT
ATOM      1  C   UNL     1      48.568   7.476  13.188  0.00  0.00    +0.000 A 
ATOM      2  C   UNL     1      48.047   7.489  11.900  0.00  0.00    +0.000 A 
ATOM      3  C   UNL     1      46.992   6.646  11.569  0.00  0.00    +0.000 A 
ATOM      4  C   UNL     1      46.445   5.791  12.519  0.00  0.00    +0.000 A 
ATOM      5  N   UNL     1      45.361   5.005  12.217  0.00  0.00    +0.000 N 
ATOM      6  C   UNL     1      45.117   4.408  10.905  0.00  0.00    +0.000 C 
ATOM      7  C   UNL     1      43.650   4.652  10.485  0.00  0.00    +0.000 C 
ATOM      8  N   UNL     1      42.663   4.212  11.496  0.00  0.00    +0.000 NA
ATOM      9  C   UNL     1      42.987   4.854  12.794  0.00  0.00    +0.000 C 
ATOM     10  C   UNL     1      44.438   4.600  13.277  0.00  0.00    +0.000 C 
ATOM     11  N   UNL     1      46.954   5.763  13.772  0.00  0.00    +0.000 NA
ATOM     12  C   UNL     1      48.009   6.573  14.097  0.00  0.00    +0.000 A 
ATOM     13  H   UNL     1      42.766   3.204  11.618  0.00  0.00    +0.000 HD
ENDROOT
BRANCH   1  15
ATOM     14  C   UNL     1      50.063   9.233  12.662  0.00  0.00    +0.000 C 
ATOM     15  O   UNL     1      49.606   8.263  13.603  0.00  0.00    +0.000 OA
ENDBRANCH   1  15
BRANCH  12  16
ATOM     16  C   UNL     1      48.555   6.438  15.508  0.00  0.00    +0.000 C 
BRANCH  16  17
ATOM     17  O   UNL     1      47.984   5.299  16.158  0.00  0.00    +0.000 OA
BRANCH  17  18
ATOM     18  C   UNL     1      48.829   4.285  16.517  0.00  0.00    +0.000 A 
ATOM     19  C   UNL     1      48.455   3.012  16.100  0.00  0.00    +0.000 A 
ATOM     20  N   UNL     1      49.148   1.875  16.359  0.00  0.00    +0.000 NA
ATOM     21  C   UNL     1      50.280   2.015  17.078  0.00  0.00    +0.000 A 
ATOM     22  C   UNL     1      50.755   3.234  17.549  0.00  0.00    +0.000 A 
ATOM     23  C   UNL     1      52.016   3.306  18.353  0.00  0.00    +0.000 C 
ATOM     24  C   UNL     1      50.008   4.388  17.254  0.00  0.00    +0.000 A 
ENDBRANCH  17  18
ENDBRANCH  16  17
ENDBRANCH  12  16
TORSDOF 4
ENDMDL
MODEL 6
REMARK VINA RESULT:    -6.172      4.039      6.904
REMARK INTER + INTRA:          -8.152
REMARK INTER:                  -7.606
REMARK INTRA:                  -0.546
REMARK UNBOUND:                -0.537
REMARK  Name = 
REMARK  6 active torsions:
REMARK  status: ('A' for Active; 'I' for Inactive)
REMARK    1  A    between atoms: C_1  and  O_2
REMARK    2  A    between atoms: O_2  and  C_3
REMARK    3  A    between atoms: C_14  and  C_15
REMARK    4  A    between atoms: C_15  and  O_16
REMARK    5  A    between atoms: O_16  and  C_17
REMARK    6  A    between atoms: C_21  and  C_22
REMARK                            x       y       z     vdW  Elec       q    Type
REMARK                         _______ _______ _______ _____ _____    ______ ____
ROOT
ATOM      1  C   UNL     1      45.225   4.913  13.192  0.00  0.00    +0.000 A 
ATOM      2  C   UNL     1      44.912   6.124  12.586  0.00  0.00    +0.000 A 
ATOM      3  C   UNL     1      45.889   7.105  12.450  0.00  0.00    +0.000 A 
ATOM      4  C   UNL     1      47.181   6.884  12.910  0.00  0.00    +0.000 A 
ATOM      5  N   UNL     1      48.166   7.823  12.719  0.00  0.00    +0.000 N 
ATOM      6  C   UNL     1      47.939   9.267  12.735  0.00  0.00    +0.000 C 
ATOM      7  C   UNL     1      48.634   9.918  11.518  0.00  0.00    +0.000 C 
ATOM      8  N   UNL     1      50.068   9.574  11.400  0.00  0.00    +0.000 NA
ATOM      9  C   UNL     1      50.209   8.097  11.399  0.00  0.00    +0.000 C 
ATOM     10  C   UNL     1      49.563   7.403  12.626  0.00  0.00    +0.000 C 
ATOM     11  N   UNL     1      47.491   5.714  13.512  0.00  0.00    +0.000 NA
ATOM     12  C   UNL     1      46.529   4.754  13.670  0.00  0.00    +0.000 A 
ATOM     13  H   UNL     1      50.545   9.927  12.229  0.00  0.00    +0.000 HD
ENDROOT
BRANCH   1  15
ATOM     14  C   UNL     1      43.657   3.445  12.200  0.00  0.00    +0.000 C 
ATOM     15  O   UNL     1      44.333   3.894  13.374  0.00  0.00    +0.000 OA
ENDBRANCH   1  15
BRANCH  12  16
ATOM     16  C   UNL     1      46.948   3.492  14.407  0.00  0.00    +0.000 C 
BRANCH  16  17
ATOM     17  O   UNL     1      46.842   3.681  15.821  0.00  0.00    +0.000 OA
BRANCH  17  18
ATOM     18  C   UNL     1      47.994   3.622  16.556  0.00  0.00    +0.000 A 
ATOM     19  C   UNL     1      48.264   4.735  17.345  0.00  0.00    +0.000 A 
ATOM     20  N   UNL     1      49.354   4.878  18.139  0.00  0.00    +0.000 NA
ATOM     21  C   UNL     1      50.229   3.852  18.145  0.00  0.00    +0.000 A 
ATOM     22  C   UNL     1      50.067   2.689  17.399  0.00  0.00    +0.000 A 
ATOM     23  C   UNL     1      51.091   1.597  17.450  0.00  0.00    +0.000 C 
ATOM     24  C   UNL     1      48.920   2.580  16.593  0.00  0.00    +0.000 A 
ENDBRANCH  17  18
ENDBRANCH  16  17
ENDBRANCH  12  16
TORSDOF 4
ENDMDL
MODEL 7
REMARK VINA RESULT:    -6.140      3.219      6.083
REMARK INTER + INTRA:          -8.113
REMARK INTER:                  -7.585
REMARK INTRA:                  -0.527
REMARK UNBOUND:                -0.537
REMARK  Name = 
REMARK  6 active torsions:
REMARK  status: ('A' for Active; 'I' for Inactive)
REMARK    1  A    between atoms: C_1  and  O_2
REMARK    2  A    between atoms: O_2  and  C_3
REMARK    3  A    between atoms: C_14  and  C_15
REMARK    4  A    between atoms: C_15  and  O_16
REMARK    5  A    between atoms: O_16  and  C_17
REMARK    6  A    between atoms: C_21  and  C_22
REMARK                            x       y       z     vdW  Elec       q    Type
REMARK                         _______ _______ _______ _____ _____    ______ ____
ROOT
ATOM      1  C   UNL     1      45.227   4.471  11.760  0.00  0.00    +0.000 A 
ATOM      2  C   UNL     1      44.553   5.460  11.055  0.00  0.00    +0.000 A 
ATOM      3  C   UNL     1      44.764   6.800  11.364  0.00  0.00    +0.000 A 
ATOM      4  C   UNL     1      45.652   7.161  12.370  0.00  0.00    +0.000 A 
ATOM      5  N   UNL     1      45.914   8.483  12.636  0.00  0.00    +0.000 N 
ATOM      6  C   UNL     1      44.929   9.557  12.518  0.00  0.00    +0.000 C 
ATOM      7  C   UNL     1      45.543  10.746  11.743  0.00  0.00    +0.000 C 
ATOM      8  N   UNL     1      46.828  11.218  12.304  0.00  0.00    +0.000 NA
ATOM      9  C   UNL     1      47.763  10.070  12.397  0.00  0.00    +0.000 C 
ATOM     10  C   UNL     1      47.205   8.868  13.203  0.00  0.00    +0.000 C 
ATOM     11  N   UNL     1      46.303   6.205  13.070  0.00  0.00    +0.000 NA
ATOM     12  C   UNL     1      46.081   4.884  12.787  0.00  0.00    +0.000 A 
ATOM     13  H   UNL     1      46.654  11.549  13.253  0.00  0.00    +0.000 HD
ENDROOT
BRANCH   1  15
ATOM     14  C   UNL     1      44.497   2.777  10.278  0.00  0.00    +0.000 C 
ATOM     15  O   UNL     1      45.080   3.131  11.532  0.00  0.00    +0.000 OA
ENDBRANCH   1  15
BRANCH  12  16
ATOM     16  C   UNL     1      46.810   3.874  13.658  0.00  0.00    +0.000 C 
BRANCH  16  17
ATOM     17  O   UNL     1      46.495   4.085  15.037  0.00  0.00    +0.000 OA
BRANCH  17  18
ATOM     18  C   UNL     1      47.538   4.220  15.911  0.00  0.00    +0.000 A 
ATOM     19  C   UNL     1      47.873   3.078  16.631  0.00  0.00    +0.000 A 
ATOM     20  N   UNL     1      48.867   3.005  17.551  0.00  0.00    +0.000 NA
ATOM     21  C   UNL     1      49.567   4.137  17.768  0.00  0.00    +0.000 A 
ATOM     22  C   UNL     1      49.325   5.338  17.110  0.00  0.00    +0.000 A 
ATOM     23  C   UNL     1      50.139   6.557  17.416  0.00  0.00    +0.000 C 
ATOM     24  C   UNL     1      48.288   5.369  16.161  0.00  0.00    +0.000 A 
ENDBRANCH  17  18
ENDBRANCH  16  17
ENDBRANCH  12  16
TORSDOF 4
ENDMDL
MODEL 8
REMARK VINA RESULT:    -5.865      4.184      7.898
REMARK INTER + INTRA:          -7.774
REMARK INTER:                  -7.311
REMARK INTRA:                  -0.463
REMARK UNBOUND:                -0.537
REMARK  Name = 
REMARK  6 active torsions:
REMARK  status: ('A' for Active; 'I' for Inactive)
REMARK    1  A    between atoms: C_1  and  O_2
REMARK    2  A    between atoms: O_2  and  C_3
REMARK    3  A    between atoms: C_14  and  C_15
REMARK    4  A    between atoms: C_15  and  O_16
REMARK    5  A    between atoms: O_16  and  C_17
REMARK    6  A    between atoms: C_21  and  C_22
REMARK                            x       y       z     vdW  Elec       q    Type
REMARK                         _______ _______ _______ _____ _____    ______ ____
ROOT
ATOM      1  C   UNL     1      47.430   8.226  13.618  0.00  0.00    +0.000 A 
ATOM      2  C   UNL     1      46.520   8.453  12.593  0.00  0.00    +0.000 A 
ATOM      3  C   UNL     1      45.911   7.379  11.955  0.00  0.00    +0.000 A 
ATOM      4  C   UNL     1      46.197   6.074  12.338  0.00  0.00    +0.000 A 
ATOM      5  N   UNL     1      45.549   5.011  11.757  0.00  0.00    +0.000 N 
ATOM      6  C   UNL     1      45.127   4.971  10.357  0.00  0.00    +0.000 C 
ATOM      7  C   UNL     1      43.666   4.475  10.267  0.00  0.00    +0.000 C 
ATOM      8  N   UNL     1      43.433   3.190  10.964  0.00  0.00    +0.000 NA
ATOM      9  C   UNL     1      43.894   3.315  12.368  0.00  0.00    +0.000 C 
ATOM     10  C   UNL     1      45.370   3.770  12.507  0.00  0.00    +0.000 C 
ATOM     11  N   UNL     1      47.090   5.843  13.326  0.00  0.00    +0.000 NA
ATOM     12  C   UNL     1      47.712   6.895  13.942  0.00  0.00    +0.000 A 
ATOM     13  H   UNL     1      44.008   2.479  10.513  0.00  0.00    +0.000 HD
ENDROOT
BRANCH   1  15
ATOM     14  C   UNL     1      48.586  10.287  13.502  0.00  0.00    +0.000 C 
ATOM     15  O   UNL     1      48.081   9.216  14.299  0.00  0.00    +0.000 OA
ENDBRANCH   1  15
BRANCH  12  16
ATOM     16  C   UNL     1      48.743   6.545  15.003  0.00  0.00    +0.000 C 
BRANCH  16  17
ATOM     17  O   UNL     1      48.488   5.243  15.535  0.00  0.00    +0.000 OA
BRANCH  17  18
ATOM     18  C   UNL     1      48.508   5.099  16.895  0.00  0.00    +0.000 A 
ATOM     19  C   UNL     1      48.869   3.840  17.364  0.00  0.00    +0.000 A 
ATOM     20  N   UNL     1      48.942   3.490  18.672  0.00  0.00    +0.000 NA
ATOM     21  C   UNL     1      48.634   4.451  19.567  0.00  0.00    +0.000 A 
ATOM     22  C   UNL     1      48.260   5.745  19.219  0.00  0.00    +0.000 A 
ATOM     23  C   UNL     1      47.921   6.754  20.273  0.00  0.00    +0.000 C 
ATOM     24  C   UNL     1      48.202   6.066  17.852  0.00  0.00    +0.000 A 
ENDBRANCH  17  18
ENDBRANCH  16  17
ENDBRANCH  12  16
TORSDOF 4
ENDMDL
MODEL 9
REMARK VINA RESULT:    -5.785      3.525      6.841
REMARK INTER + INTRA:          -7.674
REMARK INTER:                  -7.147
REMARK INTRA:                  -0.528
REMARK UNBOUND:                -0.537
REMARK  Name = 
REMARK  6 active torsions:
REMARK  status: ('A' for Active; 'I' for Inactive)
REMARK    1  A    between atoms: C_1  and  O_2
REMARK    2  A    between atoms: O_2  and  C_3
REMARK    3  A    between atoms: C_14  and  C_15
REMARK    4  A    between atoms: C_15  and  O_16
REMARK    5  A    between atoms: O_16  and  C_17
REMARK    6  A    between atoms: C_21  and  C_22
REMARK                            x       y       z     vdW  Elec       q    Type
REMARK                         _______ _______ _______ _____ _____    ______ ____
ROOT
ATOM      1  C   UNL     1      47.906   5.488  14.832  0.00  0.00    +0.000 A 
ATOM      2  C   UNL     1      46.872   4.561  14.791  0.00  0.00    +0.000 A 
ATOM      3  C   UNL     1      46.000   4.542  13.707  0.00  0.00    +0.000 A 
ATOM      4  C   UNL     1      46.157   5.439  12.658  0.00  0.00    +0.000 A 
ATOM      5  N   UNL     1      45.340   5.382  11.555  0.00  0.00    +0.000 N 
ATOM      6  C   UNL     1      43.929   5.003  11.596  0.00  0.00    +0.000 C 
ATOM      7  C   UNL     1      43.632   3.972  10.484  0.00  0.00    +0.000 C 
ATOM      8  N   UNL     1      44.059   4.412   9.137  0.00  0.00    +0.000 NA
ATOM      9  C   UNL     1      45.495   4.784   9.186  0.00  0.00    +0.000 C 
ATOM     10  C   UNL     1      45.832   5.850  10.260  0.00  0.00    +0.000 C 
ATOM     11  N   UNL     1      47.154   6.352  12.695  0.00  0.00    +0.000 NA
ATOM     12  C   UNL     1      48.000   6.392  13.770  0.00  0.00    +0.000 A 
ATOM     13  H   UNL     1      43.533   5.252   8.900  0.00  0.00    +0.000 HD
ENDROOT
BRANCH   1  15
ATOM     14  C   UNL     1      48.451   4.911  17.061  0.00  0.00    +0.000 C 
ATOM     15  O   UNL     1      48.808   5.585  15.855  0.00  0.00    +0.000 OA
ENDBRANCH   1  15
BRANCH  12  16
ATOM     16  C   UNL     1      49.057   7.484  13.759  0.00  0.00    +0.000 C 
BRANCH  16  17
ATOM     17  O   UNL     1      49.691   7.552  12.479  0.00  0.00    +0.000 OA
BRANCH  17  18
ATOM     18  C   UNL     1      49.717   8.764  11.847  0.00  0.00    +0.000 A 
ATOM     19  C   UNL     1      50.959   9.170  11.370  0.00  0.00    +0.000 A 
ATOM     20  N   UNL     1      51.198  10.339  10.725  0.00  0.00    +0.000 NA
ATOM     21  C   UNL     1      50.138  11.153  10.546  0.00  0.00    +0.000 A 
ATOM     22  C   UNL     1      48.849  10.856  10.978  0.00  0.00    +0.000 A 
ATOM     23  C   UNL     1      47.724  11.818  10.753  0.00  0.00    +0.000 C 
ATOM     24  C   UNL     1      48.645   9.632  11.639  0.00  0.00    +0.000 A 
ENDBRANCH  17  18
ENDBRANCH  16  17
ENDBRANCH  12  16
TORSDOF 4
ENDMDL
