MODEL 1
REMARK VINA RESULT:    -7.205      0.000      0.000
REMARK INTER + INTRA:         -10.330
REMARK INTER:                  -9.521
REMARK INTRA:                  -0.809
REMARK UNBOUND:                -0.809
REMARK  Name = 
REMARK  6 active torsions:
REMARK  status: ('A' for Active; 'I' for Inactive)
REMARK    1  A    between atoms: N_1  and  C_2
REMARK    2  A    between atoms: C_2  and  C_3
REMARK    3  A    between atoms: C_7  and  O_8
REMARK    4  A    between atoms: O_8  and  C_9
REMARK    5  A    between atoms: C_9  and  C_10
REMARK    6  A    between atoms: C_10  and  C_11
REMARK                            x       y       z     vdW  Elec       q    Type
REMARK                         _______ _______ _______ _____ _____    ______ ____
ROOT
ATOM      1  C   UNL     1      46.727   5.291  13.742  0.00  0.00    +0.000 A 
ATOM      2  C   UNL     1      47.532   6.156  12.990  0.00  0.00    +0.000 A 
ATOM      3  C   UNL     1      47.028   6.785  11.856  0.00  0.00    +0.000 A 
ATOM      4  C   UNL     1      45.712   6.553  11.454  0.00  0.00    +0.000 A 
ATOM      5  C   UNL     1      44.889   5.693  12.185  0.00  0.00    +0.000 A 
ATOM      6  C   UNL     1      45.401   5.071  13.331  0.00  0.00    +0.000 A 
ENDROOT
BRANCH   1   7
ATOM      7  C   UNL     1      47.297   4.582  14.945  0.00  0.00    +0.000 C 
BRANCH   7   8
ATOM      8  N   UNL     1      47.422   3.146  14.720  0.00  0.00    +0.000 NA
ATOM      9  H   UNL     1      47.868   2.720  15.529  0.00  0.00    +0.000 HD
ATOM     10  H   UNL     1      48.048   2.994  13.929  0.00  0.00    +0.000 HD
ENDBRANCH   7   8
ENDBRANCH   1   7
BRANCH   5  11
ATOM     11  O   UNL     1      43.587   5.383  11.878  0.00  0.00    +0.000 OA
BRANCH  11  12
ATOM     12  C   UNL     1      43.388   4.809  10.585  0.00  0.00    +0.000 C 
BRANCH  12  13
ATOM     13  C   UNL     1      43.889   3.365  10.552  0.00  0.00    +0.000 C 
BRANCH  13  14
ATOM     14  C   UNL     1      44.815   3.174   9.373  0.00  0.00    +0.000 A 
ATOM     15  C   UNL     1      45.321   4.284   8.681  0.00  0.00    +0.000 A 
ATOM     16  C   UNL     1      46.267   4.118   7.668  0.00  0.00    +0.000 A 
ATOM     17  C   UNL     1      46.717   2.841   7.335  0.00  0.00    +0.000 A 
ATOM     18  C   UNL     1      46.211   1.732   8.010  0.00  0.00    +0.000 A 
ATOM     19 CL   UNL     1      46.776   0.157   7.609  0.00  0.00    +0.000 Cl
ATOM     20  C   UNL     1      45.265   1.892   9.024  0.00  0.00    +0.000 A 
ENDBRANCH  13  14
ENDBRANCH  12  13
ENDBRANCH  11  12
ENDBRANCH   5  11
TORSDOF 6
ENDMDL
MODEL 2
REMARK VINA RESULT:    -7.135      3.226      5.789
REMARK INTER + INTRA:         -10.238
REMARK INTER:                  -9.458
REMARK INTRA:                  -0.781
REMARK UNBOUND:                -0.809
REMARK  Name = 
REMARK  6 active torsions:
REMARK  status: ('A' for Active; 'I' for Inactive)
REMARK    1  A    between atoms: N_1  and  C_2
REMARK    2  A    between atoms: C_2  and  C_3
REMARK    3  A    between atoms: C_7  and  O_8
REMARK    4  A    between atoms: O_8  and  C_9
REMARK    5  A    between atoms: C_9  and  C_10
REMARK    6  A    between atoms: C_10  and  C_11
REMARK                            x       y       z     vdW  Elec       q    Type
REMARK                         _______ _______ _______ _____ _____    ______ ____
ROOT
ATOM      1  C   UNL     1      46.261   2.195   7.992  0.00  0.00    +0.000 A 
ATOM      2  C   UNL     1      46.497   3.515   7.587  0.00  0.00    +0.000 A 
ATOM      3  C   UNL     1      45.787   4.569   8.154  0.00  0.00    +0.000 A 
ATOM      4  C   UNL     1      44.825   4.315   9.133  0.00  0.00    +0.000 A 
ATOM      5  C   UNL     1      44.568   3.009   9.554  0.00  0.00    +0.000 A 
ATOM      6  C   UNL     1      45.293   1.955   8.984  0.00  0.00    +0.000 A 
ENDROOT
BRANCH   1   7
ATOM      7  C   UNL     1      47.006   1.059   7.340  0.00  0.00    +0.000 C 
BRANCH   7   8
ATOM      8  N   UNL     1      48.145   1.532   6.561  0.00  0.00    +0.000 NA
ATOM      9  H   UNL     1      49.005   1.259   7.029  0.00  0.00    +0.000 HD
ATOM     10  H   UNL     1      48.130   2.551   6.549  0.00  0.00    +0.000 HD
ENDBRANCH   7   8
ENDBRANCH   1   7
BRANCH   5  11
ATOM     11  O   UNL     1      43.639   2.644  10.498  0.00  0.00    +0.000 OA
BRANCH  11  12
ATOM     12  C   UNL     1      43.206   3.695  11.363  0.00  0.00    +0.000 C 
BRANCH  12  13
ATOM     13  C   UNL     1      43.862   3.569  12.737  0.00  0.00    +0.000 C 
BRANCH  13  14
ATOM     14  C   UNL     1      44.882   4.669  12.918  0.00  0.00    +0.000 A 
ATOM     15  C   UNL     1      46.183   4.366  13.349  0.00  0.00    +0.000 A 
ATOM     16  C   UNL     1      47.161   5.361  13.405  0.00  0.00    +0.000 A 
ATOM     17  C   UNL     1      46.850   6.668  13.033  0.00  0.00    +0.000 A 
ATOM     18  C   UNL     1      45.557   6.979  12.616  0.00  0.00    +0.000 A 
ATOM     19 CL   UNL     1      45.177   8.590  12.143  0.00  0.00    +0.000 Cl
ATOM     20  C   UNL     1      44.576   5.989  12.557  0.00  0.00    +0.000 A 
ENDBRANCH  13  14
ENDBRANCH  12  13
ENDBRANCH  11  12
ENDBRANCH   5  11
TORSDOF 6
ENDMDL
MODEL 3
REMARK VINA RESULT:    -6.765      3.203      6.142
REMARK INTER + INTRA:          -9.749
REMARK INTER:                  -9.208
REMARK INTRA:                  -0.541
REMARK UNBOUND:                -0.809
REMARK  Name = 
REMARK  6 active torsions:
REMARK  status: ('A' for Active; 'I' for Inactive)
REMARK    1  A    between atoms: N_1  and  C_2
REMARK    2  A    between atoms: C_2  and  C_3
REMARK    3  A    between atoms: C_7  and  O_8
REMARK    4  A    between atoms: O_8  and  C_9
REMARK    5  A    between atoms: C_9  and  C_10
REMARK    6  A    between atoms: C_10  and  C_11
REMARK                            x       y       z     vdW  Elec       q    Type
REMARK                         _______ _______ _______ _____ _____    ______ ____
ROOT
ATOM      1  C   UNL     1      46.561   2.614   6.725  0.00  0.00    +0.000 A 
ATOM      2  C   UNL     1      46.602   1.347   7.320  0.00  0.00    +0.000 A 
ATOM      3  C   UNL     1      45.896   1.092   8.493  0.00  0.00    +0.000 A 
ATOM      4  C   UNL     1      45.144   2.105   9.090  0.00  0.00    +0.000 A 
ATOM      5  C   UNL     1      45.088   3.378   8.517  0.00  0.00    +0.000 A 
ATOM      6  C   UNL     1      45.794   3.624   7.333  0.00  0.00    +0.000 A 
ENDROOT
BRANCH   1   7
ATOM      7  C   UNL     1      47.363   2.890   5.479  0.00  0.00    +0.000 C 
BRANCH   7   8
ATOM      8  N   UNL     1      48.450   1.932   5.309  0.00  0.00    +0.000 NA
ATOM      9  H   UNL     1      48.124   1.154   4.742  0.00  0.00    +0.000 HD
ATOM     10  H   UNL     1      48.690   1.547   6.222  0.00  0.00    +0.000 HD
ENDBRANCH   7   8
ENDBRANCH   1   7
BRANCH   5  11
ATOM     11  O   UNL     1      44.392   4.449   9.022  0.00  0.00    +0.000 OA
BRANCH  11  12
ATOM     12  C   UNL     1      43.773   4.228  10.291  0.00  0.00    +0.000 C 
BRANCH  12  13
ATOM     13  C   UNL     1      43.802   5.502  11.135  0.00  0.00    +0.000 C 
BRANCH  13  14
ATOM     14  C   UNL     1      45.152   5.642  11.800  0.00  0.00    +0.000 A 
ATOM     15  C   UNL     1      46.103   6.540  11.290  0.00  0.00    +0.000 A 
ATOM     16  C   UNL     1      47.305   6.760  11.966  0.00  0.00    +0.000 A 
ATOM     17  C   UNL     1      47.569   6.084  13.157  0.00  0.00    +0.000 A 
ATOM     18  C   UNL     1      46.635   5.182  13.663  0.00  0.00    +0.000 A 
ATOM     19 CL   UNL     1      46.956   4.359  15.140  0.00  0.00    +0.000 Cl
ATOM     20  C   UNL     1      45.432   4.959  12.992  0.00  0.00    +0.000 A 
ENDBRANCH  13  14
ENDBRANCH  12  13
ENDBRANCH  11  12
ENDBRANCH   5  11
TORSDOF 6
ENDMDL
MODEL 4
REMARK VINA RESULT:    -6.597      1.940      2.424
REMARK INTER + INTRA:          -9.527
REMARK INTER:                  -8.687
REMARK INTRA:                  -0.839
REMARK UNBOUND:                -0.809
REMARK  Name = 
REMARK  6 active torsions:
REMARK  status: ('A' for Active; 'I' for Inactive)
REMARK    1  A    between atoms: N_1  and  C_2
REMARK    2  A    between atoms: C_2  and  C_3
REMARK    3  A    between atoms: C_7  and  O_8
REMARK    4  A    between atoms: O_8  and  C_9
REMARK    5  A    between atoms: C_9  and  C_10
REMARK    6  A    between atoms: C_10  and  C_11
REMARK                            x       y       z     vdW  Elec       q    Type
REMARK                         _______ _______ _______ _____ _____    ______ ____
ROOT
ATOM      1  C   UNL     1      45.879   7.239  12.650  0.00  0.00    +0.000 A 
ATOM      2  C   UNL     1      47.089   6.665  13.062  0.00  0.00    +0.000 A 
ATOM      3  C   UNL     1      47.162   5.311  13.371  0.00  0.00    +0.000 A 
ATOM      4  C   UNL     1      46.022   4.510  13.277  0.00  0.00    +0.000 A 
ATOM      5  C   UNL     1      44.803   5.058  12.871  0.00  0.00    +0.000 A 
ATOM      6  C   UNL     1      44.740   6.420  12.554  0.00  0.00    +0.000 A 
ENDROOT
BRANCH   1   7
ATOM      7  C   UNL     1      45.803   8.716  12.360  0.00  0.00    +0.000 C 
BRANCH   7   8
ATOM      8  N   UNL     1      44.425   9.168  12.197  0.00  0.00    +0.000 NA
ATOM      9  H   UNL     1      43.796   8.459  12.566  0.00  0.00    +0.000 HD
ATOM     10  H   UNL     1      44.223   9.245  11.201  0.00  0.00    +0.000 HD
ENDBRANCH   7   8
ENDBRANCH   1   7
BRANCH   5  11
ATOM     11  O   UNL     1      43.620   4.370  12.755  0.00  0.00    +0.000 OA
BRANCH  11  12
ATOM     12  C   UNL     1      43.202   4.101  11.415  0.00  0.00    +0.000 C 
BRANCH  12  13
ATOM     13  C   UNL     1      43.769   2.767  10.930  0.00  0.00    +0.000 C 
BRANCH  13  14
ATOM     14  C   UNL     1      44.619   2.991   9.701  0.00  0.00    +0.000 A 
ATOM     15  C   UNL     1      44.848   4.291   9.225  0.00  0.00    +0.000 A 
ATOM     16  C   UNL     1      45.726   4.513   8.162  0.00  0.00    +0.000 A 
ATOM     17  C   UNL     1      46.384   3.438   7.564  0.00  0.00    +0.000 A 
ATOM     18  C   UNL     1      46.153   2.143   8.025  0.00  0.00    +0.000 A 
ATOM     19 CL   UNL     1      46.976   0.819   7.296  0.00  0.00    +0.000 Cl
ATOM     20  C   UNL     1      45.277   1.916   9.086  0.00  0.00    +0.000 A 
ENDBRANCH  13  14
ENDBRANCH  12  13
ENDBRANCH  11  12
ENDBRANCH   5  11
TORSDOF 6
ENDMDL
MODEL 5
REMARK VINA RESULT:    -5.739      3.195      6.056
REMARK INTER + INTRA:          -8.393
REMARK INTER:                  -7.789
REMARK INTRA:                  -0.603
REMARK UNBOUND:                -0.809
REMARK  Name = 
REMARK  6 active torsions:
REMARK  status: ('A' for Active; 'I' for Inactive)
REMARK    1  A    between atoms: N_1  and  C_2
REMARK    2  A    between atoms: C_2  and  C_3
REMARK    3  A    between atoms: C_7  and  O_8
REMARK    4  A    between atoms: O_8  and  C_9
REMARK    5  A    between atoms: C_9  and  C_10
REMARK    6  A    between atoms: C_10  and  C_11
REMARK                            x       y       z     vdW  Elec       q    Type
REMARK                         _______ _______ _______ _____ _____    ______ ____
ROOT
ATOM      1  C   UNL     1      45.300   3.400   8.467  0.00  0.00    +0.000 A 
ATOM      2  C   UNL     1      44.706   2.299   9.097  0.00  0.00    +0.000 A 
ATOM      3  C   UNL     1      44.100   2.437  10.342  0.00  0.00    +0.000 A 
ATOM      4  C   UNL     1      44.086   3.679  10.979  0.00  0.00    +0.000 A 
ATOM      5  C   UNL     1      44.673   4.793  10.374  0.00  0.00    +0.000 A 
ATOM      6  C   UNL     1      45.272   4.648   9.116  0.00  0.00    +0.000 A 
ENDROOT
BRANCH   1   7
ATOM      7  C   UNL     1      45.990   3.230   7.138  0.00  0.00    +0.000 C 
BRANCH   7   8
ATOM      8  N   UNL     1      47.007   4.252   6.918  0.00  0.00    +0.000 NA
ATOM      9  H   UNL     1      47.694   4.206   7.667  0.00  0.00    +0.000 HD
ATOM     10  H   UNL     1      46.566   5.169   6.985  0.00  0.00    +0.000 HD
ENDBRANCH   7   8
ENDBRANCH   1   7
BRANCH   5  11
ATOM     11  O   UNL     1      44.727   6.056  10.911  0.00  0.00    +0.000 OA
BRANCH  11  12
ATOM     12  C   UNL     1      44.480   6.130  12.316  0.00  0.00    +0.000 C 
BRANCH  12  13
ATOM     13  C   UNL     1      45.794   6.152  13.096  0.00  0.00    +0.000 C 
BRANCH  13  14
ATOM     14  C   UNL     1      46.669   7.275  12.589  0.00  0.00    +0.000 A 
ATOM     15  C   UNL     1      46.240   8.607  12.688  0.00  0.00    +0.000 A 
ATOM     16  C   UNL     1      47.091   9.655  12.330  0.00  0.00    +0.000 A 
ATOM     17  C   UNL     1      48.379   9.382  11.869  0.00  0.00    +0.000 A 
ATOM     18  C   UNL     1      48.807   8.061  11.757  0.00  0.00    +0.000 A 
ATOM     19 CL   UNL     1      50.401   7.724  11.202  0.00  0.00    +0.000 Cl
ATOM     20  C   UNL     1      47.961   7.010  12.114  0.00  0.00    +0.000 A 
ENDBRANCH  13  14
ENDBRANCH  12  13
ENDBRANCH  11  12
ENDBRANCH   5  11
TORSDOF 6
ENDMDL
MODEL 6
REMARK VINA RESULT:    -5.606      4.269      7.430
REMARK INTER + INTRA:          -8.217
REMARK INTER:                  -7.845
REMARK INTRA:                  -0.372
REMARK UNBOUND:                -0.809
REMARK  Name = 
REMARK  6 active torsions:
REMARK  status: ('A' for Active; 'I' for Inactive)
REMARK    1  A    between atoms: N_1  and  C_2
REMARK    2  A    between atoms: C_2  and  C_3
REMARK    3  A    between atoms: C_7  and  O_8
REMARK    4  A    between atoms: O_8  and  C_9
REMARK    5  A    between atoms: C_9  and  C_10
REMARK    6  A    between atoms: C_10  and  C_11
REMARK                            x       y       z     vdW  Elec       q    Type
REMARK                         _______ _______ _______ _____ _____    ______ ____
ROOT
ATOM      1  C   UNL     1      45.142   4.154  11.832  0.00  0.00    +0.000 A 
ATOM      2  C   UNL     1      45.538   5.459  11.507  0.00  0.00    +0.000 A 
ATOM      3  C   UNL     1      46.570   6.080  12.204  0.00  0.00    +0.000 A 
ATOM      4  C   UNL     1      47.217   5.406  13.241  0.00  0.00    +0.000 A 
ATOM      5  C   UNL     1      46.841   4.106  13.586  0.00  0.00    +0.000 A 
ATOM      6  C   UNL     1      45.808   3.485  12.874  0.00  0.00    +0.000 A 
ENDROOT
BRANCH   1   7
ATOM      7  C   UNL     1      43.995   3.508  11.098  0.00  0.00    +0.000 C 
BRANCH   7   8
ATOM      8  N   UNL     1      43.519   2.310  11.782  0.00  0.00    +0.000 NA
ATOM      9  H   UNL     1      43.802   1.489  11.253  0.00  0.00    +0.000 HD
ATOM     10  H   UNL     1      42.499   2.319  11.782  0.00  0.00    +0.000 HD
ENDBRANCH   7   8
ENDBRANCH   1   7
BRANCH   5  11
ATOM     11  O   UNL     1      47.399   3.355  14.592  0.00  0.00    +0.000 OA
BRANCH  11  12
ATOM     12  C   UNL     1      47.273   3.907  15.904  0.00  0.00    +0.000 C 
BRANCH  12  13
ATOM     13  C   UNL     1      47.771   2.917  16.956  0.00  0.00    +0.000 C 
BRANCH  13  14
ATOM     14  C   UNL     1      49.253   3.111  17.178  0.00  0.00    +0.000 A 
ATOM     15  C   UNL     1      49.766   4.383  17.470  0.00  0.00    +0.000 A 
ATOM     16  C   UNL     1      51.116   4.548  17.790  0.00  0.00    +0.000 A 
ATOM     17  C   UNL     1      51.966   3.443  17.821  0.00  0.00    +0.000 A 
ATOM     18  C   UNL     1      51.466   2.177  17.520  0.00  0.00    +0.000 A 
ATOM     19 CL   UNL     1      52.512   0.812  17.571  0.00  0.00    +0.000 Cl
ATOM     20  C   UNL     1      50.119   2.007  17.199  0.00  0.00    +0.000 A 
ENDBRANCH  13  14
ENDBRANCH  12  13
ENDBRANCH  11  12
ENDBRANCH   5  11
TORSDOF 6
ENDMDL
MODEL 7
REMARK VINA RESULT:    -5.597      3.600      6.755
REMARK INTER + INTRA:          -8.205
REMARK INTER:                  -7.727
REMARK INTRA:                  -0.478
REMARK UNBOUND:                -0.809
REMARK  Name = 
REMARK  6 active torsions:
REMARK  status: ('A' for Active; 'I' for Inactive)
REMARK    1  A    between atoms: N_1  and  C_2
REMARK    2  A    between atoms: C_2  and  C_3
REMARK    3  A    between atoms: C_7  and  O_8
REMARK    4  A    between atoms: O_8  and  C_9
REMARK    5  A    between atoms: C_9  and  C_10
REMARK    6  A    between atoms: C_10  and  C_11
REMARK                            x       y       z     vdW  Elec       q    Type
REMARK                         _______ _______ _______ _____ _____    ______ ____
ROOT
ATOM      1  C   UNL     1      45.361   3.437   8.352  0.00  0.00    +0.000 A 
ATOM      2  C   UNL     1      44.705   2.390   9.013  0.00  0.00    +0.000 A 
ATOM      3  C   UNL     1      44.203   2.568  10.298  0.00  0.00    +0.000 A 
ATOM      4  C   UNL     1      44.357   3.796  10.945  0.00  0.00    +0.000 A 
ATOM      5  C   UNL     1      45.008   4.855  10.310  0.00  0.00    +0.000 A 
ATOM      6  C   UNL     1      45.502   4.671   9.012  0.00  0.00    +0.000 A 
ENDROOT
BRANCH   1   7
ATOM      7  C   UNL     1      45.937   3.220   6.976  0.00  0.00    +0.000 C 
BRANCH   7   8
ATOM      8  N   UNL     1      47.037   4.137   6.697  0.00  0.00    +0.000 NA
ATOM      9  H   UNL     1      47.765   4.008   7.395  0.00  0.00    +0.000 HD
ATOM     10  H   UNL     1      46.698   5.093   6.803  0.00  0.00    +0.000 HD
ENDBRANCH   7   8
ENDBRANCH   1   7
BRANCH   5  11
ATOM     11  O   UNL     1      45.225   6.098  10.852  0.00  0.00    +0.000 OA
BRANCH  11  12
ATOM     12  C   UNL     1      45.546   6.106  12.245  0.00  0.00    +0.000 C 
BRANCH  12  13
ATOM     13  C   UNL     1      47.055   6.230  12.451  0.00  0.00    +0.000 C 
BRANCH  13  14
ATOM     14  C   UNL     1      47.404   5.882  13.880  0.00  0.00    +0.000 A 
ATOM     15  C   UNL     1      46.847   4.749  14.491  0.00  0.00    +0.000 A 
ATOM     16  C   UNL     1      47.255   4.359  15.768  0.00  0.00    +0.000 A 
ATOM     17  C   UNL     1      48.224   5.096  16.447  0.00  0.00    +0.000 A 
ATOM     18  C   UNL     1      48.774   6.229  15.851  0.00  0.00    +0.000 A 
ATOM     19 CL   UNL     1      49.980   7.131  16.685  0.00  0.00    +0.000 Cl
ATOM     20  C   UNL     1      48.370   6.624  14.576  0.00  0.00    +0.000 A 
ENDBRANCH  13  14
ENDBRANCH  12  13
ENDBRANCH  11  12
ENDBRANCH   5  11
TORSDOF 6
ENDMDL
MODEL 8
REMARK VINA RESULT:    -5.360      4.073      6.086
REMARK INTER + INTRA:          -7.892
REMARK INTER:                  -7.535
REMARK INTRA:                  -0.358
REMARK UNBOUND:                -0.809
REMARK  Name = 
REMARK  6 active torsions:
REMARK  status: ('A' for Active; 'I' for Inactive)
REMARK    1  A    between atoms: N_1  and  C_2
REMARK    2  A    between atoms: C_2  and  C_3
REMARK    3  A    between atoms: C_7  and  O_8
REMARK    4  A    between atoms: O_8  and  C_9
REMARK    5  A    between atoms: C_9  and  C_10
REMARK    6  A    between atoms: C_10  and  C_11
REMARK                            x       y       z     vdW  Elec       q    Type
REMARK                         _______ _______ _______ _____ _____    ______ ____
ROOT
ATOM      1  C   UNL     1      50.961   2.449  17.414  0.00  0.00    +0.000 A 
ATOM      2  C   UNL     1      51.386   3.699  17.884  0.00  0.00    +0.000 A 
ATOM      3  C   UNL     1      50.525   4.791  17.870  0.00  0.00    +0.000 A 
ATOM      4  C   UNL     1      49.225   4.650  17.379  0.00  0.00    +0.000 A 
ATOM      5  C   UNL     1      48.777   3.416  16.903  0.00  0.00    +0.000 A 
ATOM      6  C   UNL     1      49.648   2.319  16.930  0.00  0.00    +0.000 A 
ENDROOT
BRANCH   1   7
ATOM      7  C   UNL     1      51.917   1.284  17.395  0.00  0.00    +0.000 C 
BRANCH   7   8
ATOM      8  N   UNL     1      51.427   0.166  18.195  0.00  0.00    +0.000 NA
ATOM      9  H   UNL     1      51.829   0.222  19.127  0.00  0.00    +0.000 HD
ATOM     10  H   UNL     1      51.768  -0.702  17.783  0.00  0.00    +0.000 HD
ENDBRANCH   7   8
ENDBRANCH   1   7
BRANCH   5  11
ATOM     11  O   UNL     1      47.528   3.166  16.390  0.00  0.00    +0.000 OA
BRANCH  11  12
ATOM     12  C   UNL     1      46.989   4.204  15.570  0.00  0.00    +0.000 C 
BRANCH  12  13
ATOM     13  C   UNL     1      47.025   3.803  14.096  0.00  0.00    +0.000 C 
BRANCH  13  14
ATOM     14  C   UNL     1      46.258   4.813  13.273  0.00  0.00    +0.000 A 
ATOM     15  C   UNL     1      46.927   5.885  12.664  0.00  0.00    +0.000 A 
ATOM     16  C   UNL     1      46.244   6.753  11.809  0.00  0.00    +0.000 A 
ATOM     17  C   UNL     1      44.887   6.559  11.555  0.00  0.00    +0.000 A 
ATOM     18  C   UNL     1      44.214   5.503  12.166  0.00  0.00    +0.000 A 
ATOM     19 CL   UNL     1      42.542   5.256  11.842  0.00  0.00    +0.000 Cl
ATOM     20  C   UNL     1      44.890   4.633  13.021  0.00  0.00    +0.000 A 
ENDBRANCH  13  14
ENDBRANCH  12  13
ENDBRANCH  11  12
ENDBRANCH   5  11
TORSDOF 6
ENDMDL
MODEL 9
REMARK VINA RESULT:    -5.229      4.387      7.540
REMARK INTER + INTRA:          -7.720
REMARK INTER:                  -7.325
REMARK INTRA:                  -0.394
REMARK UNBOUND:                -0.809
REMARK  Name = 
REMARK  6 active torsions:
REMARK  status: ('A' for Active; 'I' for Inactive)
REMARK    1  A    between atoms: N_1  and  C_2
REMARK    2  A    between atoms: C_2  and  C_3
REMARK    3  A    between atoms: C_7  and  O_8
REMARK    4  A    between atoms: O_8  and  C_9
REMARK    5  A    between atoms: C_9  and  C_10
REMARK    6  A    between atoms: C_10  and  C_11
REMARK                            x       y       z     vdW  Elec       q    Type
REMARK                         _______ _______ _______ _____ _____    ______ ____
ROOT
ATOM      1  C   UNL     1      46.658   6.249  12.711  0.00  0.00    +0.000 A 
ATOM      2  C   UNL     1      45.734   5.764  11.776  0.00  0.00    +0.000 A 
ATOM      3  C   UNL     1      45.341   4.430  11.796  0.00  0.00    +0.000 A 
ATOM      4  C   UNL     1      45.872   3.559  12.749  0.00  0.00    +0.000 A 
ATOM      5  C   UNL     1      46.796   4.017  13.691  0.00  0.00    +0.000 A 
ATOM      6  C   UNL     1      47.179   5.363  13.670  0.00  0.00    +0.000 A 
ENDROOT
BRANCH   1   7
ATOM      7  C   UNL     1      47.108   7.687  12.652  0.00  0.00    +0.000 C 
BRANCH   7   8
ATOM      8  N   UNL     1      46.863   8.385  13.910  0.00  0.00    +0.000 NA
ATOM      9  H   UNL     1      47.397   7.936  14.650  0.00  0.00    +0.000 HD
ATOM     10  H   UNL     1      45.879   8.278  14.155  0.00  0.00    +0.000 HD
ENDBRANCH   7   8
ENDBRANCH   1   7
BRANCH   5  11
ATOM     11  O   UNL     1      47.390   3.250  14.663  0.00  0.00    +0.000 OA
BRANCH  11  12
ATOM     12  C   UNL     1      47.524   3.881  15.938  0.00  0.00    +0.000 C 
BRANCH  12  13
ATOM     13  C   UNL     1      47.975   2.874  16.996  0.00  0.00    +0.000 C 
BRANCH  13  14
ATOM     14  C   UNL     1      49.449   3.054  17.275  0.00  0.00    +0.000 A 
ATOM     15  C   UNL     1      49.934   4.276  17.764  0.00  0.00    +0.000 A 
ATOM     16  C   UNL     1      51.274   4.410  18.134  0.00  0.00    +0.000 A 
ATOM     17  C   UNL     1      52.142   3.325  18.019  0.00  0.00    +0.000 A 
ATOM     18  C   UNL     1      51.670   2.111  17.525  0.00  0.00    +0.000 A 
ATOM     19 CL   UNL     1      52.738   0.768  17.397  0.00  0.00    +0.000 Cl
ATOM     20  C   UNL     1      50.332   1.971  17.153  0.00  0.00    +0.000 A 
ENDBRANCH  13  14
ENDBRANCH  12  13
ENDBRANCH  11  12
ENDBRANCH   5  11
TORSDOF 6
ENDMDL
