MODEL 1
REMARK VINA RESULT:    -7.209      0.000      0.000
REMARK INTER + INTRA:         -10.398
REMARK INTER:                  -9.317
REMARK INTRA:                  -1.081
REMARK UNBOUND:                -1.081
REMARK  Name = 
REMARK  5 active torsions:
REMARK  status: ('A' for Active; 'I' for Inactive)
REMARK    1  A    between atoms: C_4  and  C_5
REMARK    2  A    between atoms: C_5  and  N_6
REMARK    3  A    between atoms: N_6  and  C_7
REMARK    4  A    between atoms: C_11  and  C_12
REMARK    5  A    between atoms: C_20  and  C_21
REMARK                            x       y       z     vdW  Elec       q    Type
REMARK                         _______ _______ _______ _____ _____    ______ ____
ROOT
ATOM      1  N   UNL     1      44.351   6.729  12.733  0.00  0.00    +0.000 N 
ATOM      2  H   UNL     1      43.895   7.505  13.208  0.00  0.00    +0.000 HD
ENDROOT
BRANCH   1   3
ATOM      3  C   UNL     1      45.749   6.817  12.857  0.00  0.00    +0.000 A 
ATOM      4  C   UNL     1      46.478   5.700  13.279  0.00  0.00    +0.000 A 
ATOM      5  C   UNL     1      47.865   5.764  13.413  0.00  0.00    +0.000 A 
ATOM      6  C   UNL     1      48.552   6.920  13.051  0.00  0.00    +0.000 A 
ATOM      7  C   UNL     1      47.869   8.002  12.490  0.00  0.00    +0.000 A 
ATOM      8  C   UNL     1      46.466   7.943  12.432  0.00  0.00    +0.000 A 
BRANCH   7   9
ATOM      9  C   UNL     1      48.561   9.148  11.758  0.00  0.00    +0.000 C 
ATOM     10  C   UNL     1      49.935   9.399  12.412  0.00  0.00    +0.000 C 
ATOM     11  C   UNL     1      49.787  10.139  13.740  0.00  0.00    +0.000 C 
ATOM     12  C   UNL     1      48.963  11.418  13.585  0.00  0.00    +0.000 C 
ATOM     13  N   UNL     1      47.678  11.213  12.921  0.00  0.00    +0.000 NA
ATOM     14  C   UNL     1      47.801  10.486  11.653  0.00  0.00    +0.000 C 
ATOM     15  H   UNL     1      47.228  12.112  12.758  0.00  0.00    +0.000 HD
ENDBRANCH   7   9
ENDBRANCH   1   3
BRANCH   1  16
ATOM     16  C   UNL     1      43.855   6.593  11.367  0.00  0.00    +0.000 C 
BRANCH  16  20
ATOM     17  F   UNL     1      43.024   1.785  11.590  0.00  0.00    +0.000 F 
ATOM     18  C   UNL     1      43.633   2.815  10.991  0.00  0.00    +0.000 A 
ATOM     19  C   UNL     1      43.463   4.099  11.503  0.00  0.00    +0.000 A 
ATOM     20  C   UNL     1      44.083   5.182  10.877  0.00  0.00    +0.000 A 
ATOM     21  C   UNL     1      44.879   4.954   9.740  0.00  0.00    +0.000 A 
ATOM     22  C   UNL     1      45.048   3.660   9.220  0.00  0.00    +0.000 A 
ATOM     23  C   UNL     1      44.410   2.591   9.863  0.00  0.00    +0.000 A 
BRANCH  22  24
ATOM     24  C   UNL     1      45.884   3.413   7.992  0.00  0.00    +0.000 C 
ATOM     25  F   UNL     1      46.629   2.274   8.053  0.00  0.00    +0.000 F 
ATOM     26  F   UNL     1      45.130   3.308   6.863  0.00  0.00    +0.000 F 
ATOM     27  F   UNL     1      46.769   4.423   7.757  0.00  0.00    +0.000 F 
ENDBRANCH  22  24
ENDBRANCH  16  20
ENDBRANCH   1  16
TORSDOF 5
ENDMDL
MODEL 2
REMARK VINA RESULT:    -6.885      3.193      4.908
REMARK INTER + INTRA:          -9.978
REMARK INTER:                  -9.008
REMARK INTRA:                  -0.970
REMARK UNBOUND:                -1.081
REMARK  Name = 
REMARK  5 active torsions:
REMARK  status: ('A' for Active; 'I' for Inactive)
REMARK    1  A    between atoms: C_4  and  C_5
REMARK    2  A    between atoms: C_5  and  N_6
REMARK    3  A    between atoms: N_6  and  C_7
REMARK    4  A    between atoms: C_11  and  C_12
REMARK    5  A    between atoms: C_20  and  C_21
REMARK                            x       y       z     vdW  Elec       q    Type
REMARK                         _______ _______ _______ _____ _____    ______ ____
ROOT
ATOM      1  N   UNL     1      48.009   6.853  12.851  0.00  0.00    +0.000 N 
ATOM      2  H   UNL     1      48.057   5.922  12.442  0.00  0.00    +0.000 HD
ENDROOT
BRANCH   1   3
ATOM      3  C   UNL     1      48.376   6.824  14.208  0.00  0.00    +0.000 A 
ATOM      4  C   UNL     1      48.827   7.993  14.829  0.00  0.00    +0.000 A 
ATOM      5  C   UNL     1      49.200   7.989  16.172  0.00  0.00    +0.000 A 
ATOM      6  C   UNL     1      49.052   6.835  16.938  0.00  0.00    +0.000 A 
ATOM      7  C   UNL     1      48.470   5.691  16.386  0.00  0.00    +0.000 A 
ATOM      8  C   UNL     1      48.169   5.696  15.013  0.00  0.00    +0.000 A 
BRANCH   7   9
ATOM      9  C   UNL     1      47.959   4.519  17.219  0.00  0.00    +0.000 C 
ATOM     10  C   UNL     1      48.967   4.236  18.351  0.00  0.00    +0.000 C 
ATOM     11  C   UNL     1      50.204   3.513  17.820  0.00  0.00    +0.000 C 
ATOM     12  C   UNL     1      49.828   2.256  17.034  0.00  0.00    +0.000 C 
ATOM     13  N   UNL     1      48.835   2.490  15.989  0.00  0.00    +0.000 NA
ATOM     14  C   UNL     1      47.649   3.202  16.478  0.00  0.00    +0.000 C 
ATOM     15  H   UNL     1      48.555   1.602  15.575  0.00  0.00    +0.000 HD
ENDBRANCH   7   9
ENDBRANCH   1   3
BRANCH   1  16
ATOM     16  C   UNL     1      46.721   7.477  12.568  0.00  0.00    +0.000 C 
BRANCH  16  20
ATOM     17  F   UNL     1      42.597   4.933  13.184  0.00  0.00    +0.000 F 
ATOM     18  C   UNL     1      43.673   5.206  12.437  0.00  0.00    +0.000 A 
ATOM     19  C   UNL     1      44.609   6.126  12.901  0.00  0.00    +0.000 A 
ATOM     20  C   UNL     1      45.729   6.427  12.123  0.00  0.00    +0.000 A 
ATOM     21  C   UNL     1      45.897   5.784  10.883  0.00  0.00    +0.000 A 
ATOM     22  C   UNL     1      44.951   4.858  10.413  0.00  0.00    +0.000 A 
ATOM     23  C   UNL     1      43.832   4.578  11.209  0.00  0.00    +0.000 A 
BRANCH  22  24
ATOM     24  C   UNL     1      45.117   4.181   9.077  0.00  0.00    +0.000 C 
ATOM     25  F   UNL     1      45.381   2.848   9.166  0.00  0.00    +0.000 F 
ATOM     26  F   UNL     1      44.006   4.292   8.298  0.00  0.00    +0.000 F 
ATOM     27  F   UNL     1      46.138   4.714   8.350  0.00  0.00    +0.000 F 
ENDBRANCH  22  24
ENDBRANCH  16  20
ENDBRANCH   1  16
TORSDOF 5
ENDMDL
MODEL 3
REMARK VINA RESULT:    -6.781      1.455      2.447
REMARK INTER + INTRA:          -9.845
REMARK INTER:                  -8.866
REMARK INTRA:                  -0.979
REMARK UNBOUND:                -1.081
REMARK  Name = 
REMARK  5 active torsions:
REMARK  status: ('A' for Active; 'I' for Inactive)
REMARK    1  A    between atoms: C_4  and  C_5
REMARK    2  A    between atoms: C_5  and  N_6
REMARK    3  A    between atoms: N_6  and  C_7
REMARK    4  A    between atoms: C_11  and  C_12
REMARK    5  A    between atoms: C_20  and  C_21
REMARK                            x       y       z     vdW  Elec       q    Type
REMARK                         _______ _______ _______ _____ _____    ______ ____
ROOT
ATOM      1  N   UNL     1      44.327   7.400  11.831  0.00  0.00    +0.000 N 
ATOM      2  H   UNL     1      44.093   7.147  10.874  0.00  0.00    +0.000 HD
ENDROOT
BRANCH   1   3
ATOM      3  C   UNL     1      45.237   8.471  11.859  0.00  0.00    +0.000 A 
ATOM      4  C   UNL     1      44.805   9.756  11.515  0.00  0.00    +0.000 A 
ATOM      5  C   UNL     1      45.690  10.833  11.532  0.00  0.00    +0.000 A 
ATOM      6  C   UNL     1      47.001  10.659  11.970  0.00  0.00    +0.000 A 
ATOM      7  C   UNL     1      47.423   9.419  12.457  0.00  0.00    +0.000 A 
ATOM      8  C   UNL     1      46.537   8.332  12.364  0.00  0.00    +0.000 A 
BRANCH   7   9
ATOM      9  C   UNL     1      48.703   9.221  13.263  0.00  0.00    +0.000 C 
ATOM     10  C   UNL     1      49.819  10.089  12.646  0.00  0.00    +0.000 C 
ATOM     11  C   UNL     1      50.355   9.463  11.359  0.00  0.00    +0.000 C 
ATOM     12  C   UNL     1      50.785   8.012  11.574  0.00  0.00    +0.000 C 
ATOM     13  N   UNL     1      49.762   7.183  12.206  0.00  0.00    +0.000 NA
ATOM     14  C   UNL     1      49.221   7.778  13.432  0.00  0.00    +0.000 C 
ATOM     15  H   UNL     1      50.144   6.261  12.412  0.00  0.00    +0.000 HD
ENDBRANCH   7   9
ENDBRANCH   1   3
BRANCH   1  16
ATOM     16  C   UNL     1      44.727   6.222  12.596  0.00  0.00    +0.000 C 
BRANCH  16  20
ATOM     17  F   UNL     1      42.837   1.803  11.727  0.00  0.00    +0.000 F 
ATOM     18  C   UNL     1      43.614   2.816  11.324  0.00  0.00    +0.000 A 
ATOM     19  C   UNL     1      43.786   3.917  12.159  0.00  0.00    +0.000 A 
ATOM     20  C   UNL     1      44.584   4.984  11.742  0.00  0.00    +0.000 A 
ATOM     21  C   UNL     1      45.209   4.923  10.483  0.00  0.00    +0.000 A 
ATOM     22  C   UNL     1      45.032   3.815   9.639  0.00  0.00    +0.000 A 
ATOM     23  C   UNL     1      44.222   2.759  10.077  0.00  0.00    +0.000 A 
BRANCH  22  24
ATOM     24  C   UNL     1      45.684   3.753   8.282  0.00  0.00    +0.000 C 
ATOM     25  F   UNL     1      46.427   2.629   8.079  0.00  0.00    +0.000 F 
ATOM     26  F   UNL     1      44.777   3.791   7.268  0.00  0.00    +0.000 F 
ATOM     27  F   UNL     1      46.530   4.800   8.066  0.00  0.00    +0.000 F 
ENDBRANCH  22  24
ENDBRANCH  16  20
ENDBRANCH   1  16
TORSDOF 5
ENDMDL
MODEL 4
REMARK VINA RESULT:    -6.697      2.986      3.880
REMARK INTER + INTRA:          -9.736
REMARK INTER:                  -8.915
REMARK INTRA:                  -0.821
REMARK UNBOUND:                -1.081
REMARK  Name = 
REMARK  5 active torsions:
REMARK  status: ('A' for Active; 'I' for Inactive)
REMARK    1  A    between atoms: C_4  and  C_5
REMARK    2  A    between atoms: C_5  and  N_6
REMARK    3  A    between atoms: N_6  and  C_7
REMARK    4  A    between atoms: C_11  and  C_12
REMARK    5  A    between atoms: C_20  and  C_21
REMARK                            x       y       z     vdW  Elec       q    Type
REMARK                         _______ _______ _______ _____ _____    ______ ____
ROOT
ATOM      1  N   UNL     1      47.659   6.544  12.413  0.00  0.00    +0.000 N 
ATOM      2  H   UNL     1      47.961   5.926  11.663  0.00  0.00    +0.000 HD
ENDROOT
BRANCH   1   3
ATOM      3  C   UNL     1      47.628   5.865  13.643  0.00  0.00    +0.000 A 
ATOM      4  C   UNL     1      47.149   4.551  13.696  0.00  0.00    +0.000 A 
ATOM      5  C   UNL     1      47.106   3.858  14.905  0.00  0.00    +0.000 A 
ATOM      6  C   UNL     1      47.614   4.437  16.066  0.00  0.00    +0.000 A 
ATOM      7  C   UNL     1      48.231   5.690  16.018  0.00  0.00    +0.000 A 
ATOM      8  C   UNL     1      48.199   6.400  14.805  0.00  0.00    +0.000 A 
BRANCH   7   9
ATOM      9  C   UNL     1      49.106   6.242  17.139  0.00  0.00    +0.000 C 
ATOM     10  C   UNL     1      48.711   5.556  18.463  0.00  0.00    +0.000 C 
ATOM     11  C   UNL     1      47.400   6.121  19.007  0.00  0.00    +0.000 C 
ATOM     12  C   UNL     1      47.447   7.645  19.121  0.00  0.00    +0.000 C 
ATOM     13  N   UNL     1      47.868   8.314  17.893  0.00  0.00    +0.000 NA
ATOM     14  C   UNL     1      49.116   7.770  17.346  0.00  0.00    +0.000 C 
ATOM     15  H   UNL     1      47.976   9.313  18.065  0.00  0.00    +0.000 HD
ENDBRANCH   7   9
ENDBRANCH   1   3
BRANCH   1  16
ATOM     16  C   UNL     1      46.423   7.231  12.051  0.00  0.00    +0.000 C 
BRANCH  16  20
ATOM     17  F   UNL     1      41.997   5.214  11.613  0.00  0.00    +0.000 F 
ATOM     18  C   UNL     1      43.263   5.298  11.190  0.00  0.00    +0.000 A 
ATOM     19  C   UNL     1      44.146   6.152  11.846  0.00  0.00    +0.000 A 
ATOM     20  C   UNL     1      45.466   6.257  11.404  0.00  0.00    +0.000 A 
ATOM     21  C   UNL     1      45.885   5.488  10.303  0.00  0.00    +0.000 A 
ATOM     22  C   UNL     1      44.994   4.629   9.638  0.00  0.00    +0.000 A 
ATOM     23  C   UNL     1      43.673   4.546  10.097  0.00  0.00    +0.000 A 
BRANCH  22  24
ATOM     24  C   UNL     1      45.433   3.817   8.447  0.00  0.00    +0.000 C 
ATOM     25  F   UNL     1      45.853   2.560   8.764  0.00  0.00    +0.000 F 
ATOM     26  F   UNL     1      44.438   3.660   7.531  0.00  0.00    +0.000 F 
ATOM     27  F   UNL     1      46.469   4.397   7.779  0.00  0.00    +0.000 F 
ENDBRANCH  22  24
ENDBRANCH  16  20
ENDBRANCH   1  16
TORSDOF 5
ENDMDL
MODEL 5
REMARK VINA RESULT:    -6.686      2.831      4.201
REMARK INTER + INTRA:          -9.722
REMARK INTER:                  -8.660
REMARK INTRA:                  -1.062
REMARK UNBOUND:                -1.081
REMARK  Name = 
REMARK  5 active torsions:
REMARK  status: ('A' for Active; 'I' for Inactive)
REMARK    1  A    between atoms: C_4  and  C_5
REMARK    2  A    between atoms: C_5  and  N_6
REMARK    3  A    between atoms: N_6  and  C_7
REMARK    4  A    between atoms: C_11  and  C_12
REMARK    5  A    between atoms: C_20  and  C_21
REMARK                            x       y       z     vdW  Elec       q    Type
REMARK                         _______ _______ _______ _____ _____    ______ ____
ROOT
ATOM      1  N   UNL     1      45.917   7.739  13.429  0.00  0.00    +0.000 N 
ATOM      2  H   UNL     1      44.972   7.518  13.733  0.00  0.00    +0.000 HD
ENDROOT
BRANCH   1   3
ATOM      3  C   UNL     1      45.938   8.926  12.677  0.00  0.00    +0.000 A 
ATOM      4  C   UNL     1      47.144   9.613  12.500  0.00  0.00    +0.000 A 
ATOM      5  C   UNL     1      47.189  10.794  11.761  0.00  0.00    +0.000 A 
ATOM      6  C   UNL     1      46.046  11.266  11.120  0.00  0.00    +0.000 A 
ATOM      7  C   UNL     1      44.860  10.527  11.157  0.00  0.00    +0.000 A 
ATOM      8  C   UNL     1      44.819   9.379  11.967  0.00  0.00    +0.000 A 
BRANCH   7   9
ATOM      9  C   UNL     1      43.681  10.778  10.222  0.00  0.00    +0.000 C 
ATOM     10  C   UNL     1      43.475  12.300  10.078  0.00  0.00    +0.000 C 
ATOM     11  C   UNL     1      42.806  12.885  11.320  0.00  0.00    +0.000 C 
ATOM     12  C   UNL     1      41.515  12.143  11.668  0.00  0.00    +0.000 C 
ATOM     13  N   UNL     1      41.676  10.694  11.760  0.00  0.00    +0.000 NA
ATOM     14  C   UNL     1      42.335  10.118  10.583  0.00  0.00    +0.000 C 
ATOM     15  H   UNL     1      40.766  10.255  11.892  0.00  0.00    +0.000 HD
ENDBRANCH   7   9
ENDBRANCH   1   3
BRANCH   1  16
ATOM     16  C   UNL     1      46.539   6.585  12.787  0.00  0.00    +0.000 C 
BRANCH  16  20
ATOM     17  F   UNL     1      41.947   5.220  11.834  0.00  0.00    +0.000 F 
ATOM     18  C   UNL     1      43.238   5.220  11.482  0.00  0.00    +0.000 A 
ATOM     19  C   UNL     1      44.171   5.839  12.310  0.00  0.00    +0.000 A 
ATOM     20  C   UNL     1      45.518   5.855  11.945  0.00  0.00    +0.000 A 
ATOM     21  C   UNL     1      45.912   5.236  10.745  0.00  0.00    +0.000 A 
ATOM     22  C   UNL     1      44.972   4.614   9.907  0.00  0.00    +0.000 A 
ATOM     23  C   UNL     1      43.624   4.616  10.293  0.00  0.00    +0.000 A 
BRANCH  22  24
ATOM     24  C   UNL     1      45.386   3.965   8.612  0.00  0.00    +0.000 C 
ATOM     25  F   UNL     1      46.397   4.614   7.970  0.00  0.00    +0.000 F 
ATOM     26  F   UNL     1      45.813   2.685   8.787  0.00  0.00    +0.000 F 
ATOM     27  F   UNL     1      44.361   3.898   7.716  0.00  0.00    +0.000 F 
ENDBRANCH  22  24
ENDBRANCH  16  20
ENDBRANCH   1  16
TORSDOF 5
ENDMDL
MODEL 6
REMARK VINA RESULT:    -6.536      4.422      7.535
REMARK INTER + INTRA:          -9.528
REMARK INTER:                  -8.432
REMARK INTRA:                  -1.097
REMARK UNBOUND:                -1.081
REMARK  Name = 
REMARK  5 active torsions:
REMARK  status: ('A' for Active; 'I' for Inactive)
REMARK    1  A    between atoms: C_4  and  C_5
REMARK    2  A    between atoms: C_5  and  N_6
REMARK    3  A    between atoms: N_6  and  C_7
REMARK    4  A    between atoms: C_11  and  C_12
REMARK    5  A    between atoms: C_20  and  C_21
REMARK                            x       y       z     vdW  Elec       q    Type
REMARK                         _______ _______ _______ _____ _____    ______ ____
ROOT
ATOM      1  N   UNL     1      49.009   7.208  14.461  0.00  0.00    +0.000 N 
ATOM      2  H   UNL     1      49.785   7.502  13.873  0.00  0.00    +0.000 HD
ENDROOT
BRANCH   1   3
ATOM      3  C   UNL     1      47.781   7.408  13.808  0.00  0.00    +0.000 A 
ATOM      4  C   UNL     1      47.289   8.707  13.640  0.00  0.00    +0.000 A 
ATOM      5  C   UNL     1      46.071   8.930  12.999  0.00  0.00    +0.000 A 
ATOM      6  C   UNL     1      45.364   7.866  12.446  0.00  0.00    +0.000 A 
ATOM      7  C   UNL     1      45.897   6.575  12.470  0.00  0.00    +0.000 A 
ATOM      8  C   UNL     1      47.089   6.362  13.183  0.00  0.00    +0.000 A 
BRANCH   7   9
ATOM      9  C   UNL     1      45.374   5.430  11.606  0.00  0.00    +0.000 C 
ATOM     10  C   UNL     1      43.881   5.674  11.307  0.00  0.00    +0.000 C 
ATOM     11  C   UNL     1      43.016   5.348  12.524  0.00  0.00    +0.000 C 
ATOM     12  C   UNL     1      43.292   3.940  13.052  0.00  0.00    +0.000 C 
ATOM     13  N   UNL     1      44.707   3.670  13.294  0.00  0.00    +0.000 NA
ATOM     14  C   UNL     1      45.555   3.996  12.142  0.00  0.00    +0.000 C 
ATOM     15  H   UNL     1      44.832   2.690  13.545  0.00  0.00    +0.000 HD
ENDBRANCH   7   9
ENDBRANCH   1   3
BRANCH   1  16
ATOM     16  C   UNL     1      49.112   7.802  15.790  0.00  0.00    +0.000 C 
BRANCH  16  20
ATOM     17  F   UNL     1      47.373   6.734  20.228  0.00  0.00    +0.000 F 
ATOM     18  C   UNL     1      47.766   6.312  19.020  0.00  0.00    +0.000 A 
ATOM     19  C   UNL     1      48.252   7.238  18.100  0.00  0.00    +0.000 A 
ATOM     20  C   UNL     1      48.652   6.809  16.833  0.00  0.00    +0.000 A 
ATOM     21  C   UNL     1      48.565   5.443  16.510  0.00  0.00    +0.000 A 
ATOM     22  C   UNL     1      48.072   4.510  17.437  0.00  0.00    +0.000 A 
ATOM     23  C   UNL     1      47.670   4.965  18.700  0.00  0.00    +0.000 A 
BRANCH  22  24
ATOM     24  C   UNL     1      47.959   3.048  17.090  0.00  0.00    +0.000 C 
ATOM     25  F   UNL     1      46.917   2.417  17.699  0.00  0.00    +0.000 F 
ATOM     26  F   UNL     1      47.794   2.843  15.754  0.00  0.00    +0.000 F 
ATOM     27  F   UNL     1      49.073   2.346  17.440  0.00  0.00    +0.000 F 
ENDBRANCH  22  24
ENDBRANCH  16  20
ENDBRANCH   1  16
TORSDOF 5
ENDMDL
MODEL 7
REMARK VINA RESULT:    -6.519      3.499      5.378
REMARK INTER + INTRA:          -9.506
REMARK INTER:                  -8.485
REMARK INTRA:                  -1.021
REMARK UNBOUND:                -1.081
REMARK  Name = 
REMARK  5 active torsions:
REMARK  status: ('A' for Active; 'I' for Inactive)
REMARK    1  A    between atoms: C_4  and  C_5
REMARK    2  A    between atoms: C_5  and  N_6
REMARK    3  A    between atoms: N_6  and  C_7
REMARK    4  A    between atoms: C_11  and  C_12
REMARK    5  A    between atoms: C_20  and  C_21
REMARK                            x       y       z     vdW  Elec       q    Type
REMARK                         _______ _______ _______ _____ _____    ______ ____
ROOT
ATOM      1  N   UNL     1      45.916   8.809  13.231  0.00  0.00    +0.000 N 
ATOM      2  H   UNL     1      45.082   8.297  13.510  0.00  0.00    +0.000 HD
ENDROOT
BRANCH   1   3
ATOM      3  C   UNL     1      45.603   9.798  12.283  0.00  0.00    +0.000 A 
ATOM      4  C   UNL     1      46.622  10.599  11.756  0.00  0.00    +0.000 A 
ATOM      5  C   UNL     1      46.337  11.589  10.817  0.00  0.00    +0.000 A 
ATOM      6  C   UNL     1      45.041  11.742  10.329  0.00  0.00    +0.000 A 
ATOM      7  C   UNL     1      44.029  10.864  10.726  0.00  0.00    +0.000 A 
ATOM      8  C   UNL     1      44.323   9.921  11.726  0.00  0.00    +0.000 A 
BRANCH   7   9
ATOM      9  C   UNL     1      42.693  10.734  10.002  0.00  0.00    +0.000 C 
ATOM     10  C   UNL     1      42.210  12.141   9.593  0.00  0.00    +0.000 C 
ATOM     11  C   UNL     1      41.654  12.904  10.795  0.00  0.00    +0.000 C 
ATOM     12  C   UNL     1      40.580  12.098  11.526  0.00  0.00    +0.000 C 
ATOM     13  N   UNL     1      40.997  10.744  11.878  0.00  0.00    +0.000 NA
ATOM     14  C   UNL     1      41.552  10.004  10.740  0.00  0.00    +0.000 C 
ATOM     15  H   UNL     1      40.208  10.231  12.268  0.00  0.00    +0.000 HD
ENDBRANCH   7   9
ENDBRANCH   1   3
BRANCH   1  16
ATOM     16  C   UNL     1      46.982   7.891  12.844  0.00  0.00    +0.000 C 
BRANCH  16  20
ATOM     17  F   UNL     1      47.042   3.132  13.943  0.00  0.00    +0.000 F 
ATOM     18  C   UNL     1      46.464   4.150  13.294  0.00  0.00    +0.000 A 
ATOM     19  C   UNL     1      47.032   5.419  13.375  0.00  0.00    +0.000 A 
ATOM     20  C   UNL     1      46.430   6.490  12.712  0.00  0.00    +0.000 A 
ATOM     21  C   UNL     1      45.260   6.265  11.965  0.00  0.00    +0.000 A 
ATOM     22  C   UNL     1      44.685   4.986  11.886  0.00  0.00    +0.000 A 
ATOM     23  C   UNL     1      45.304   3.929  12.565  0.00  0.00    +0.000 A 
BRANCH  22  24
ATOM     24  C   UNL     1      43.421   4.743  11.102  0.00  0.00    +0.000 C 
ATOM     25  F   UNL     1      43.616   4.665   9.756  0.00  0.00    +0.000 F 
ATOM     26  F   UNL     1      42.803   3.585  11.460  0.00  0.00    +0.000 F 
ATOM     27  F   UNL     1      42.500   5.731  11.286  0.00  0.00    +0.000 F 
ENDBRANCH  22  24
ENDBRANCH  16  20
ENDBRANCH   1  16
TORSDOF 5
ENDMDL
MODEL 8
REMARK VINA RESULT:    -6.494      4.231      5.512
REMARK INTER + INTRA:          -9.474
REMARK INTER:                  -8.724
REMARK INTRA:                  -0.750
REMARK UNBOUND:                -1.081
REMARK  Name = 
REMARK  5 active torsions:
REMARK  status: ('A' for Active; 'I' for Inactive)
REMARK    1  A    between atoms: C_4  and  C_5
REMARK    2  A    between atoms: C_5  and  N_6
REMARK    3  A    between atoms: N_6  and  C_7
REMARK    4  A    between atoms: C_11  and  C_12
REMARK    5  A    between atoms: C_20  and  C_21
REMARK                            x       y       z     vdW  Elec       q    Type
REMARK                         _______ _______ _______ _____ _____    ______ ____
ROOT
ATOM      1  N   UNL     1      46.699   3.863  15.451  0.00  0.00    +0.000 N 
ATOM      2  H   UNL     1      46.073   4.663  15.500  0.00  0.00    +0.000 HD
ENDROOT
BRANCH   1   3
ATOM      3  C   UNL     1      47.722   3.965  16.410  0.00  0.00    +0.000 A 
ATOM      4  C   UNL     1      48.491   2.840  16.725  0.00  0.00    +0.000 A 
ATOM      5  C   UNL     1      49.509   2.917  17.676  0.00  0.00    +0.000 A 
ATOM      6  C   UNL     1      49.826   4.137  18.268  0.00  0.00    +0.000 A 
ATOM      7  C   UNL     1      49.173   5.306  17.870  0.00  0.00    +0.000 A 
ATOM      8  C   UNL     1      48.104   5.194  16.964  0.00  0.00    +0.000 A 
BRANCH   7   9
ATOM      9  C   UNL     1      49.677   6.708  18.200  0.00  0.00    +0.000 C 
ATOM     10  C   UNL     1      49.743   6.864  19.733  0.00  0.00    +0.000 C 
ATOM     11  C   UNL     1      48.349   7.065  20.327  0.00  0.00    +0.000 C 
ATOM     12  C   UNL     1      47.606   8.214  19.646  0.00  0.00    +0.000 C 
ATOM     13  N   UNL     1      47.575   8.113  18.189  0.00  0.00    +0.000 NA
ATOM     14  C   UNL     1      48.903   7.901  17.604  0.00  0.00    +0.000 C 
ATOM     15  H   UNL     1      47.158   8.955  17.794  0.00  0.00    +0.000 HD
ENDBRANCH   7   9
ENDBRANCH   1   3
BRANCH   1  16
ATOM     16  C   UNL     1      47.152   3.643  14.081  0.00  0.00    +0.000 C 
BRANCH  16  20
ATOM     17  F   UNL     1      47.179   7.889  11.668  0.00  0.00    +0.000 F 
ATOM     18  C   UNL     1      46.557   6.740  11.956  0.00  0.00    +0.000 A 
ATOM     19  C   UNL     1      47.140   5.858  12.862  0.00  0.00    +0.000 A 
ATOM     20  C   UNL     1      46.505   4.651  13.159  0.00  0.00    +0.000 A 
ATOM     21  C   UNL     1      45.277   4.350  12.542  0.00  0.00    +0.000 A 
ATOM     22  C   UNL     1      44.690   5.238  11.625  0.00  0.00    +0.000 A 
ATOM     23  C   UNL     1      45.350   6.440  11.339  0.00  0.00    +0.000 A 
BRANCH  22  24
ATOM     24  C   UNL     1      43.384   4.912  10.947  0.00  0.00    +0.000 C 
ATOM     25  F   UNL     1      42.772   3.799  11.439  0.00  0.00    +0.000 F 
ATOM     26  F   UNL     1      42.476   5.920  11.059  0.00  0.00    +0.000 F 
ATOM     27  F   UNL     1      43.536   4.693   9.611  0.00  0.00    +0.000 F 
ENDBRANCH  22  24
ENDBRANCH  16  20
ENDBRANCH   1  16
TORSDOF 5
ENDMDL
MODEL 9
REMARK VINA RESULT:    -6.389      3.681      5.702
REMARK INTER + INTRA:          -9.338
REMARK INTER:                  -8.706
REMARK INTRA:                  -0.633
REMARK UNBOUND:                -1.081
REMARK  Name = 
REMARK  5 active torsions:
REMARK  status: ('A' for Active; 'I' for Inactive)
REMARK    1  A    between atoms: C_4  and  C_5
REMARK    2  A    between atoms: C_5  and  N_6
REMARK    3  A    between atoms: N_6  and  C_7
REMARK    4  A    between atoms: C_11  and  C_12
REMARK    5  A    between atoms: C_20  and  C_21
REMARK                            x       y       z     vdW  Elec       q    Type
REMARK                         _______ _______ _______ _____ _____    ______ ____
ROOT
ATOM      1  N   UNL     1      47.691   8.087  14.619  0.00  0.00    +0.000 N 
ATOM      2  H   UNL     1      47.689   9.086  14.814  0.00  0.00    +0.000 HD
ENDROOT
BRANCH   1   3
ATOM      3  C   UNL     1      48.758   7.451  15.277  0.00  0.00    +0.000 A 
ATOM      4  C   UNL     1      50.070   7.873  15.037  0.00  0.00    +0.000 A 
ATOM      5  C   UNL     1      51.145   7.255  15.675  0.00  0.00    +0.000 A 
ATOM      6  C   UNL     1      50.921   6.259  16.623  0.00  0.00    +0.000 A 
ATOM      7  C   UNL     1      49.618   5.915  16.991  0.00  0.00    +0.000 A 
ATOM      8  C   UNL     1      48.552   6.499  16.284  0.00  0.00    +0.000 A 
BRANCH   7   9
ATOM      9  C   UNL     1      49.280   5.104  18.239  0.00  0.00    +0.000 C 
ATOM     10  C   UNL     1      49.770   3.655  18.038  0.00  0.00    +0.000 C 
ATOM     11  C   UNL     1      48.840   2.884  17.103  0.00  0.00    +0.000 C 
ATOM     12  C   UNL     1      47.385   2.958  17.568  0.00  0.00    +0.000 C 
ATOM     13  N   UNL     1      46.914   4.318  17.814  0.00  0.00    +0.000 NA
ATOM     14  C   UNL     1      47.807   5.080  18.694  0.00  0.00    +0.000 C 
ATOM     15  H   UNL     1      45.978   4.292  18.215  0.00  0.00    +0.000 HD
ENDBRANCH   7   9
ENDBRANCH   1   3
BRANCH   1  16
ATOM     16  C   UNL     1      47.609   7.839  13.183  0.00  0.00    +0.000 C 
BRANCH  16  20
ATOM     17  F   UNL     1      46.745   3.043  13.521  0.00  0.00    +0.000 F 
ATOM     18  C   UNL     1      46.337   4.255  13.128  0.00  0.00    +0.000 A 
ATOM     19  C   UNL     1      47.174   5.352  13.317  0.00  0.00    +0.000 A 
ATOM     20  C   UNL     1      46.752   6.622  12.921  0.00  0.00    +0.000 A 
ATOM     21  C   UNL     1      45.485   6.771  12.328  0.00  0.00    +0.000 A 
ATOM     22  C   UNL     1      44.638   5.666  12.141  0.00  0.00    +0.000 A 
ATOM     23  C   UNL     1      45.082   4.402  12.552  0.00  0.00    +0.000 A 
BRANCH  22  24
ATOM     24  C   UNL     1      43.273   5.823  11.522  0.00  0.00    +0.000 C 
ATOM     25  F   UNL     1      43.099   5.099  10.382  0.00  0.00    +0.000 F 
ATOM     26  F   UNL     1      42.275   5.442  12.366  0.00  0.00    +0.000 F 
ATOM     27  F   UNL     1      43.003   7.116  11.185  0.00  0.00    +0.000 F 
ENDBRANCH  22  24
ENDBRANCH  16  20
ENDBRANCH   1  16
TORSDOF 5
ENDMDL
