MODEL 1
REMARK VINA RESULT:    -7.793      0.000      0.000
REMARK INTER + INTRA:         -10.610
REMARK INTER:                 -10.071
REMARK INTRA:                  -0.539
REMARK UNBOUND:                -0.539
REMARK  Name = 
REMARK  6 active torsions:
REMARK  status: ('A' for Active; 'I' for Inactive)
REMARK    1  A    between atoms: C_1  and  C_2
REMARK    2  A    between atoms: C_2  and  N_3
REMARK    3  A    between atoms: C_2  and  C_16
REMARK    4  A    between atoms: C_4  and  C_6
REMARK    5  A    between atoms: C_19  and  C_20
REMARK    6  A    between atoms: C_20  and  N_21
REMARK                            x       y       z     vdW  Elec       q    Type
REMARK                         _______ _______ _______ _____ _____    ______ ____
ROOT
ATOM      1  C   UNL     1      49.138   7.845  13.123  0.00  0.00    +0.000 C 
ATOM      2  C   UNL     1      48.529   6.595  13.766  0.00  0.00    +0.000 C 
ENDROOT
BRANCH   2   3
ATOM      3  C   UNL     1      47.245   6.209  13.044  0.00  0.00    +0.000 A 
ATOM      4  C   UNL     1      46.707   7.034  12.048  0.00  0.00    +0.000 A 
ATOM      5  C   UNL     1      45.564   6.646  11.342  0.00  0.00    +0.000 A 
ATOM      6  C   UNL     1      44.940   5.420  11.610  0.00  0.00    +0.000 A 
ATOM      7  C   UNL     1      45.459   4.605  12.623  0.00  0.00    +0.000 A 
ATOM      8  C   UNL     1      46.596   4.996  13.332  0.00  0.00    +0.000 A 
BRANCH   6   9
ATOM      9  C   UNL     1      43.721   4.986  10.825  0.00  0.00    +0.000 C 
BRANCH   9  10
ATOM     10  N   UNL     1      44.020   4.099   9.676  0.00  0.00    +0.000 NA
ATOM     11  C   UNL     1      45.206   4.577   8.944  0.00  0.00    +0.000 C 
ATOM     12  C   UNL     1      45.676   3.610   7.855  0.00  0.00    +0.000 C 
ATOM     13  C   UNL     1      45.908   2.217   8.419  0.00  0.00    +0.000 C 
ATOM     14  C   UNL     1      44.636   1.734   9.097  0.00  0.00    +0.000 C 
ATOM     15  C   UNL     1      44.176   2.720  10.170  0.00  0.00    +0.000 C 
ENDBRANCH   9  10
ENDBRANCH   6   9
ENDBRANCH   2   3
BRANCH   2  16
ATOM     16  N   UNL     1      48.235   6.768  15.182  0.00  0.00    +0.000 N 
ATOM     17  C   UNL     1      49.146   6.523  16.177  0.00  0.00    +0.000 C 
ATOM     18  O   UNL     1      50.303   6.183  15.952  0.00  0.00    +0.000 OA
ATOM     19  H   UNL     1      47.250   6.730  15.430  0.00  0.00    +0.000 HD
BRANCH  17  20
ATOM     20  C   UNL     1      48.687   6.767  17.550  0.00  0.00    +0.000 A 
ATOM     21  C   UNL     1      48.293   8.044  17.923  0.00  0.00    +0.000 A 
ATOM     22  S   UNL     1      47.788   8.159  19.547  0.00  0.00    +0.000 S 
ATOM     23  C   UNL     1      48.120   6.513  19.821  0.00  0.00    +0.000 A 
ATOM     24  N   UNL     1      47.945   5.962  21.053  0.00  0.00    +0.000 NA
ATOM     25  C   UNL     1      48.261   4.713  21.126  0.00  0.00    +0.000 A 
ATOM     26  N   UNL     1      48.724   3.960  20.073  0.00  0.00    +0.000 N 
ATOM     27  C   UNL     1      48.873   4.463  18.807  0.00  0.00    +0.000 A 
ATOM     28  O   UNL     1      49.222   3.752  17.869  0.00  0.00    +0.000 OA
ATOM     29  C   UNL     1      48.570   5.876  18.679  0.00  0.00    +0.000 A 
ATOM     30  H   UNL     1      48.933   2.980  20.196  0.00  0.00    +0.000 HD
ENDBRANCH  17  20
ENDBRANCH   2  16
TORSDOF 5
ENDMDL
MODEL 2
REMARK VINA RESULT:    -7.512      1.547      2.608
REMARK INTER + INTRA:         -10.247
REMARK INTER:                  -9.515
REMARK INTRA:                  -0.732
REMARK UNBOUND:                -0.539
REMARK  Name = 
REMARK  6 active torsions:
REMARK  status: ('A' for Active; 'I' for Inactive)
REMARK    1  A    between atoms: C_1  and  C_2
REMARK    2  A    between atoms: C_2  and  N_3
REMARK    3  A    between atoms: C_2  and  C_16
REMARK    4  A    between atoms: C_4  and  C_6
REMARK    5  A    between atoms: C_19  and  C_20
REMARK    6  A    between atoms: C_20  and  N_21
REMARK                            x       y       z     vdW  Elec       q    Type
REMARK                         _______ _______ _______ _____ _____    ______ ____
ROOT
ATOM      1  C   UNL     1      49.369   7.822  13.227  0.00  0.00    +0.000 C 
ATOM      2  C   UNL     1      48.726   6.598  13.889  0.00  0.00    +0.000 C 
ENDROOT
BRANCH   2   3
ATOM      3  C   UNL     1      47.510   6.151  13.090  0.00  0.00    +0.000 A 
ATOM      4  C   UNL     1      46.815   4.985  13.435  0.00  0.00    +0.000 A 
ATOM      5  C   UNL     1      45.661   4.612  12.738  0.00  0.00    +0.000 A 
ATOM      6  C   UNL     1      45.172   5.401  11.688  0.00  0.00    +0.000 A 
ATOM      7  C   UNL     1      45.880   6.552  11.322  0.00  0.00    +0.000 A 
ATOM      8  C   UNL     1      47.036   6.921  12.013  0.00  0.00    +0.000 A 
BRANCH   6   9
ATOM      9  C   UNL     1      43.906   5.013  10.955  0.00  0.00    +0.000 C 
BRANCH   9  10
ATOM     10  N   UNL     1      44.130   4.165   9.760  0.00  0.00    +0.000 NA
ATOM     11  C   UNL     1      45.307   4.630   9.005  0.00  0.00    +0.000 C 
ATOM     12  C   UNL     1      45.701   3.694   7.860  0.00  0.00    +0.000 C 
ATOM     13  C   UNL     1      45.899   2.270   8.358  0.00  0.00    +0.000 C 
ATOM     14  C   UNL     1      44.633   1.806   9.061  0.00  0.00    +0.000 C 
ATOM     15  C   UNL     1      44.250   2.761  10.191  0.00  0.00    +0.000 C 
ENDBRANCH   9  10
ENDBRANCH   6   9
ENDBRANCH   2   3
BRANCH   2  16
ATOM     16  N   UNL     1      48.318   6.843  15.265  0.00  0.00    +0.000 N 
ATOM     17  C   UNL     1      49.022   6.396  16.353  0.00  0.00    +0.000 C 
ATOM     18  O   UNL     1      50.084   5.790  16.255  0.00  0.00    +0.000 OA
ATOM     19  H   UNL     1      47.329   7.041  15.398  0.00  0.00    +0.000 HD
BRANCH  17  20
ATOM     20  C   UNL     1      48.475   6.750  17.669  0.00  0.00    +0.000 A 
ATOM     21  C   UNL     1      48.223   5.749  18.597  0.00  0.00    +0.000 A 
ATOM     22  S   UNL     1      47.593   6.325  20.072  0.00  0.00    +0.000 S 
ATOM     23  C   UNL     1      47.594   7.929  19.507  0.00  0.00    +0.000 A 
ATOM     24  N   UNL     1      47.121   8.942  20.282  0.00  0.00    +0.000 NA
ATOM     25  C   UNL     1      47.155  10.103  19.718  0.00  0.00    +0.000 A 
ATOM     26  N   UNL     1      47.633  10.345  18.453  0.00  0.00    +0.000 N 
ATOM     27  C   UNL     1      48.159   9.362  17.656  0.00  0.00    +0.000 A 
ATOM     28  O   UNL     1      48.643   9.615  16.556  0.00  0.00    +0.000 OA
ATOM     29  C   UNL     1      48.107   8.030  18.226  0.00  0.00    +0.000 A 
ATOM     30  H   UNL     1      47.650  11.283  18.082  0.00  0.00    +0.000 HD
ENDBRANCH  17  20
ENDBRANCH   2  16
TORSDOF 5
ENDMDL
MODEL 3
REMARK VINA RESULT:    -7.485      3.180      9.302
REMARK INTER + INTRA:         -10.212
REMARK INTER:                  -9.122
REMARK INTRA:                  -1.090
REMARK UNBOUND:                -0.539
REMARK  Name = 
REMARK  6 active torsions:
REMARK  status: ('A' for Active; 'I' for Inactive)
REMARK    1  A    between atoms: C_1  and  C_2
REMARK    2  A    between atoms: C_2  and  N_3
REMARK    3  A    between atoms: C_2  and  C_16
REMARK    4  A    between atoms: C_4  and  C_6
REMARK    5  A    between atoms: C_19  and  C_20
REMARK    6  A    between atoms: C_20  and  N_21
REMARK                            x       y       z     vdW  Elec       q    Type
REMARK                         _______ _______ _______ _____ _____    ______ ____
ROOT
ATOM      1  C   UNL     1      47.883   3.149  16.795  0.00  0.00    +0.000 C 
ATOM      2  C   UNL     1      48.104   4.548  16.210  0.00  0.00    +0.000 C 
ENDROOT
BRANCH   2   3
ATOM      3  C   UNL     1      48.046   5.591  17.318  0.00  0.00    +0.000 A 
ATOM      4  C   UNL     1      47.304   5.360  18.483  0.00  0.00    +0.000 A 
ATOM      5  C   UNL     1      47.306   6.292  19.525  0.00  0.00    +0.000 A 
ATOM      6  C   UNL     1      48.056   7.472  19.429  0.00  0.00    +0.000 A 
ATOM      7  C   UNL     1      48.776   7.720  18.254  0.00  0.00    +0.000 A 
ATOM      8  C   UNL     1      48.770   6.792  17.211  0.00  0.00    +0.000 A 
BRANCH   6   9
ATOM      9  C   UNL     1      48.081   8.466  20.569  0.00  0.00    +0.000 C 
BRANCH   9  10
ATOM     10  N   UNL     1      46.858   9.295  20.682  0.00  0.00    +0.000 NA
ATOM     11  C   UNL     1      46.534   9.554  22.096  0.00  0.00    +0.000 C 
ATOM     12  C   UNL     1      45.387  10.551  22.282  0.00  0.00    +0.000 C 
ATOM     13  C   UNL     1      45.660  11.849  21.537  0.00  0.00    +0.000 C 
ATOM     14  C   UNL     1      45.912  11.540  20.070  0.00  0.00    +0.000 C 
ATOM     15  C   UNL     1      47.051  10.533  19.907  0.00  0.00    +0.000 C 
ENDBRANCH   9  10
ENDBRANCH   6   9
ENDBRANCH   2   3
BRANCH   2  16
ATOM     16  N   UNL     1      47.130   4.899  15.186  0.00  0.00    +0.000 N 
ATOM     17  C   UNL     1      47.449   5.591  14.047  0.00  0.00    +0.000 C 
ATOM     18  O   UNL     1      48.595   5.933  13.774  0.00  0.00    +0.000 OA
ATOM     19  H   UNL     1      46.163   4.931  15.497  0.00  0.00    +0.000 HD
BRANCH  17  20
ATOM     20  C   UNL     1      46.346   5.843  13.111  0.00  0.00    +0.000 A 
ATOM     21  C   UNL     1      46.034   7.147  12.756  0.00  0.00    +0.000 A 
ATOM     22  S   UNL     1      44.731   7.268  11.664  0.00  0.00    +0.000 S 
ATOM     23  C   UNL     1      44.510   5.582  11.659  0.00  0.00    +0.000 A 
ATOM     24  N   UNL     1      43.503   5.012  10.944  0.00  0.00    +0.000 NA
ATOM     25  C   UNL     1      43.434   3.728  11.053  0.00  0.00    +0.000 A 
ATOM     26  N   UNL     1      44.291   2.959  11.804  0.00  0.00    +0.000 N 
ATOM     27  C   UNL     1      45.344   3.487  12.504  0.00  0.00    +0.000 A 
ATOM     28  O   UNL     1      46.137   2.771  13.111  0.00  0.00    +0.000 OA
ATOM     29  C   UNL     1      45.443   4.932  12.448  0.00  0.00    +0.000 A 
ATOM     30  H   UNL     1      44.192   1.955  11.828  0.00  0.00    +0.000 HD
ENDBRANCH  17  20
ENDBRANCH   2  16
TORSDOF 5
ENDMDL
MODEL 4
REMARK VINA RESULT:    -7.480      1.322      1.968
REMARK INTER + INTRA:         -10.205
REMARK INTER:                  -9.485
REMARK INTRA:                  -0.720
REMARK UNBOUND:                -0.539
REMARK  Name = 
REMARK  6 active torsions:
REMARK  status: ('A' for Active; 'I' for Inactive)
REMARK    1  A    between atoms: C_1  and  C_2
REMARK    2  A    between atoms: C_2  and  N_3
REMARK    3  A    between atoms: C_2  and  C_16
REMARK    4  A    between atoms: C_4  and  C_6
REMARK    5  A    between atoms: C_19  and  C_20
REMARK    6  A    between atoms: C_20  and  N_21
REMARK                            x       y       z     vdW  Elec       q    Type
REMARK                         _______ _______ _______ _____ _____    ______ ____
ROOT
ATOM      1  C   UNL     1      48.227   8.471  13.561  0.00  0.00    +0.000 C 
ATOM      2  C   UNL     1      48.139   6.955  13.769  0.00  0.00    +0.000 C 
ENDROOT
BRANCH   2   3
ATOM      3  C   UNL     1      46.930   6.397  13.031  0.00  0.00    +0.000 A 
ATOM      4  C   UNL     1      46.250   7.169  12.081  0.00  0.00    +0.000 A 
ATOM      5  C   UNL     1      45.180   6.631  11.359  0.00  0.00    +0.000 A 
ATOM      6  C   UNL     1      44.773   5.305  11.564  0.00  0.00    +0.000 A 
ATOM      7  C   UNL     1      45.432   4.539  12.533  0.00  0.00    +0.000 A 
ATOM      8  C   UNL     1      46.496   5.079  13.259  0.00  0.00    +0.000 A 
BRANCH   6   9
ATOM      9  C   UNL     1      43.636   4.714  10.761  0.00  0.00    +0.000 C 
BRANCH   9  10
ATOM     10  N   UNL     1      44.066   3.947   9.568  0.00  0.00    +0.000 NA
ATOM     11  C   UNL     1      45.262   4.557   8.962  0.00  0.00    +0.000 C 
ATOM     12  C   UNL     1      45.865   3.717   7.833  0.00  0.00    +0.000 C 
ATOM     13  C   UNL     1      46.152   2.298   8.297  0.00  0.00    +0.000 C 
ATOM     14  C   UNL     1      44.873   1.682   8.843  0.00  0.00    +0.000 C 
ATOM     15  C   UNL     1      44.280   2.543   9.958  0.00  0.00    +0.000 C 
ENDBRANCH   9  10
ENDBRANCH   6   9
ENDBRANCH   2   3
BRANCH   2  16
ATOM     16  N   UNL     1      48.047   6.577  15.172  0.00  0.00    +0.000 N 
ATOM     17  C   UNL     1      49.140   6.352  15.967  0.00  0.00    +0.000 C 
ATOM     18  O   UNL     1      50.292   6.498  15.571  0.00  0.00    +0.000 OA
ATOM     19  H   UNL     1      47.170   6.143  15.450  0.00  0.00    +0.000 HD
BRANCH  17  20
ATOM     20  C   UNL     1      48.864   5.997  17.365  0.00  0.00    +0.000 A 
ATOM     21  C   UNL     1      49.088   4.698  17.797  0.00  0.00    +0.000 A 
ATOM     22  S   UNL     1      48.719   4.450  19.443  0.00  0.00    +0.000 S 
ATOM     23  C   UNL     1      48.207   6.062  19.625  0.00  0.00    +0.000 A 
ATOM     24  N   UNL     1      47.714   6.507  20.812  0.00  0.00    +0.000 NA
ATOM     25  C   UNL     1      47.336   7.741  20.801  0.00  0.00    +0.000 A 
ATOM     26  N   UNL     1      47.421   8.576  19.713  0.00  0.00    +0.000 N 
ATOM     27  C   UNL     1      47.952   8.182  18.512  0.00  0.00    +0.000 A 
ATOM     28  O   UNL     1      48.080   8.967  17.577  0.00  0.00    +0.000 OA
ATOM     29  C   UNL     1      48.354   6.789  18.458  0.00  0.00    +0.000 A 
ATOM     30  H   UNL     1      47.127   9.539  19.781  0.00  0.00    +0.000 HD
ENDBRANCH  17  20
ENDBRANCH   2  16
TORSDOF 5
ENDMDL
MODEL 5
REMARK VINA RESULT:    -7.202      3.154      9.173
REMARK INTER + INTRA:          -9.846
REMARK INTER:                  -8.762
REMARK INTRA:                  -1.084
REMARK UNBOUND:                -0.539
REMARK  Name = 
REMARK  6 active torsions:
REMARK  status: ('A' for Active; 'I' for Inactive)
REMARK    1  A    between atoms: C_1  and  C_2
REMARK    2  A    between atoms: C_2  and  N_3
REMARK    3  A    between atoms: C_2  and  C_16
REMARK    4  A    between atoms: C_4  and  C_6
REMARK    5  A    between atoms: C_19  and  C_20
REMARK    6  A    between atoms: C_20  and  N_21
REMARK                            x       y       z     vdW  Elec       q    Type
REMARK                         _______ _______ _______ _____ _____    ______ ____
ROOT
ATOM      1  C   UNL     1      49.104   7.755  11.418  0.00  0.00    +0.000 C 
ATOM      2  C   UNL     1      47.813   7.724  12.244  0.00  0.00    +0.000 C 
ENDROOT
BRANCH   2   3
ATOM      3  C   UNL     1      48.140   7.801  13.729  0.00  0.00    +0.000 A 
ATOM      4  C   UNL     1      48.537   6.658  14.435  0.00  0.00    +0.000 A 
ATOM      5  C   UNL     1      48.899   6.744  15.783  0.00  0.00    +0.000 A 
ATOM      6  C   UNL     1      48.881   7.976  16.452  0.00  0.00    +0.000 A 
ATOM      7  C   UNL     1      48.459   9.116  15.757  0.00  0.00    +0.000 A 
ATOM      8  C   UNL     1      48.091   9.029  14.412  0.00  0.00    +0.000 A 
BRANCH   6   9
ATOM      9  C   UNL     1      49.302   8.074  17.902  0.00  0.00    +0.000 C 
BRANCH   9  10
ATOM     10  N   UNL     1      48.213   7.810  18.871  0.00  0.00    +0.000 NA
ATOM     11  C   UNL     1      48.351   6.465  19.455  0.00  0.00    +0.000 C 
ATOM     12  C   UNL     1      47.365   6.194  20.594  0.00  0.00    +0.000 C 
ATOM     13  C   UNL     1      47.457   7.268  21.668  0.00  0.00    +0.000 C 
ATOM     14  C   UNL     1      47.232   8.631  21.033  0.00  0.00    +0.000 C 
ATOM     15  C   UNL     1      48.217   8.875  19.890  0.00  0.00    +0.000 C 
ENDBRANCH   9  10
ENDBRANCH   6   9
ENDBRANCH   2   3
BRANCH   2  16
ATOM     16  N   UNL     1      47.009   6.534  12.002  0.00  0.00    +0.000 N 
ATOM     17  C   UNL     1      45.639   6.529  12.031  0.00  0.00    +0.000 C 
ATOM     18  O   UNL     1      44.973   7.542  12.217  0.00  0.00    +0.000 OA
ATOM     19  H   UNL     1      47.483   5.649  12.163  0.00  0.00    +0.000 HD
BRANCH  17  20
ATOM     20  C   UNL     1      44.989   5.243  11.746  0.00  0.00    +0.000 A 
ATOM     21  C   UNL     1      44.273   4.602  12.747  0.00  0.00    +0.000 A 
ATOM     22  S   UNL     1      43.581   3.124  12.255  0.00  0.00    +0.000 S 
ATOM     23  C   UNL     1      44.251   3.269  10.698  0.00  0.00    +0.000 A 
ATOM     24  N   UNL     1      44.074   2.290   9.770  0.00  0.00    +0.000 NA
ATOM     25  C   UNL     1      44.660   2.516   8.642  0.00  0.00    +0.000 A 
ATOM     26  N   UNL     1      45.396   3.640   8.354  0.00  0.00    +0.000 N 
ATOM     27  C   UNL     1      45.562   4.669   9.243  0.00  0.00    +0.000 A 
ATOM     28  O   UNL     1      46.166   5.693   8.937  0.00  0.00    +0.000 OA
ATOM     29  C   UNL     1      44.958   4.447  10.543  0.00  0.00    +0.000 A 
ATOM     30  H   UNL     1      45.809   3.762   7.441  0.00  0.00    +0.000 HD
ENDBRANCH  17  20
ENDBRANCH   2  16
TORSDOF 5
ENDMDL
MODEL 6
REMARK VINA RESULT:    -7.014      3.224      8.647
REMARK INTER + INTRA:          -9.603
REMARK INTER:                  -8.583
REMARK INTRA:                  -1.020
REMARK UNBOUND:                -0.539
REMARK  Name = 
REMARK  6 active torsions:
REMARK  status: ('A' for Active; 'I' for Inactive)
REMARK    1  A    between atoms: C_1  and  C_2
REMARK    2  A    between atoms: C_2  and  N_3
REMARK    3  A    between atoms: C_2  and  C_16
REMARK    4  A    between atoms: C_4  and  C_6
REMARK    5  A    between atoms: C_19  and  C_20
REMARK    6  A    between atoms: C_20  and  N_21
REMARK                            x       y       z     vdW  Elec       q    Type
REMARK                         _______ _______ _______ _____ _____    ______ ____
ROOT
ATOM      1  C   UNL     1      49.575   8.366  11.439  0.00  0.00    +0.000 C 
ATOM      2  C   UNL     1      48.372   7.926  12.280  0.00  0.00    +0.000 C 
ENDROOT
BRANCH   2   3
ATOM      3  C   UNL     1      48.833   7.495  13.666  0.00  0.00    +0.000 A 
ATOM      4  C   UNL     1      48.121   6.531  14.391  0.00  0.00    +0.000 A 
ATOM      5  C   UNL     1      48.582   6.091  15.635  0.00  0.00    +0.000 A 
ATOM      6  C   UNL     1      49.771   6.599  16.179  0.00  0.00    +0.000 A 
ATOM      7  C   UNL     1      50.470   7.584  15.470  0.00  0.00    +0.000 A 
ATOM      8  C   UNL     1      50.006   8.028  14.230  0.00  0.00    +0.000 A 
BRANCH   6   9
ATOM      9  C   UNL     1      50.286   6.101  17.511  0.00  0.00    +0.000 C 
BRANCH   9  10
ATOM     10  N   UNL     1      49.224   5.770  18.490  0.00  0.00    +0.000 NA
ATOM     11  C   UNL     1      49.667   4.697  19.396  0.00  0.00    +0.000 C 
ATOM     12  C   UNL     1      48.690   4.429  20.543  0.00  0.00    +0.000 C 
ATOM     13  C   UNL     1      48.385   5.704  21.314  0.00  0.00    +0.000 C 
ATOM     14  C   UNL     1      47.857   6.757  20.352  0.00  0.00    +0.000 C 
ATOM     15  C   UNL     1      48.842   6.998  19.208  0.00  0.00    +0.000 C 
ENDBRANCH   9  10
ENDBRANCH   6   9
ENDBRANCH   2   3
BRANCH   2  16
ATOM     16  N   UNL     1      47.623   6.833  11.676  0.00  0.00    +0.000 N 
ATOM     17  C   UNL     1      46.271   6.878  11.451  0.00  0.00    +0.000 C 
ATOM     18  O   UNL     1      45.587   7.866  11.698  0.00  0.00    +0.000 OA
ATOM     19  H   UNL     1      48.053   5.916  11.751  0.00  0.00    +0.000 HD
BRANCH  17  20
ATOM     20  C   UNL     1      45.680   5.694  10.814  0.00  0.00    +0.000 A 
ATOM     21  C   UNL     1      45.844   5.496   9.451  0.00  0.00    +0.000 A 
ATOM     22  S   UNL     1      45.099   4.077   8.871  0.00  0.00    +0.000 S 
ATOM     23  C   UNL     1      44.494   3.700  10.414  0.00  0.00    +0.000 A 
ATOM     24  N   UNL     1      43.710   2.605  10.608  0.00  0.00    +0.000 NA
ATOM     25  C   UNL     1      43.297   2.455  11.821  0.00  0.00    +0.000 A 
ATOM     26  N   UNL     1      43.608   3.295  12.863  0.00  0.00    +0.000 N 
ATOM     27  C   UNL     1      44.429   4.383  12.722  0.00  0.00    +0.000 A 
ATOM     28  O   UNL     1      44.748   5.078  13.684  0.00  0.00    +0.000 OA
ATOM     29  C   UNL     1      44.888   4.621  11.368  0.00  0.00    +0.000 A 
ATOM     30  H   UNL     1      43.267   3.105  13.794  0.00  0.00    +0.000 HD
ENDBRANCH  17  20
ENDBRANCH   2  16
TORSDOF 5
ENDMDL
MODEL 7
REMARK VINA RESULT:    -6.880      3.776      4.866
REMARK INTER + INTRA:          -9.429
REMARK INTER:                  -8.824
REMARK INTRA:                  -0.605
REMARK UNBOUND:                -0.539
REMARK  Name = 
REMARK  6 active torsions:
REMARK  status: ('A' for Active; 'I' for Inactive)
REMARK    1  A    between atoms: C_1  and  C_2
REMARK    2  A    between atoms: C_2  and  N_3
REMARK    3  A    between atoms: C_2  and  C_16
REMARK    4  A    between atoms: C_4  and  C_6
REMARK    5  A    between atoms: C_19  and  C_20
REMARK    6  A    between atoms: C_20  and  N_21
REMARK                            x       y       z     vdW  Elec       q    Type
REMARK                         _______ _______ _______ _____ _____    ______ ____
ROOT
ATOM      1  C   UNL     1      47.043   4.307  14.579  0.00  0.00    +0.000 C 
ATOM      2  C   UNL     1      46.672   5.484  13.670  0.00  0.00    +0.000 C 
ENDROOT
BRANCH   2   3
ATOM      3  C   UNL     1      45.946   4.978  12.431  0.00  0.00    +0.000 A 
ATOM      4  C   UNL     1      45.880   5.758  11.270  0.00  0.00    +0.000 A 
ATOM      5  C   UNL     1      45.268   5.264  10.113  0.00  0.00    +0.000 A 
ATOM      6  C   UNL     1      44.716   3.975  10.090  0.00  0.00    +0.000 A 
ATOM      7  C   UNL     1      44.755   3.203  11.258  0.00  0.00    +0.000 A 
ATOM      8  C   UNL     1      45.360   3.699  12.414  0.00  0.00    +0.000 A 
BRANCH   6   9
ATOM      9  C   UNL     1      44.081   3.430   8.830  0.00  0.00    +0.000 C 
BRANCH   9  10
ATOM     10  N   UNL     1      45.045   2.857   7.861  0.00  0.00    +0.000 NA
ATOM     11  C   UNL     1      46.015   3.878   7.427  0.00  0.00    +0.000 C 
ATOM     12  C   UNL     1      47.145   3.312   6.564  0.00  0.00    +0.000 C 
ATOM     13  C   UNL     1      47.845   2.156   7.264  0.00  0.00    +0.000 C 
ATOM     14  C   UNL     1      46.818   1.094   7.624  0.00  0.00    +0.000 C 
ATOM     15  C   UNL     1      45.692   1.683   8.472  0.00  0.00    +0.000 C 
ENDBRANCH   9  10
ENDBRANCH   6   9
ENDBRANCH   2   3
BRANCH   2  16
ATOM     16  N   UNL     1      47.827   6.265  13.249  0.00  0.00    +0.000 N 
ATOM     17  C   UNL     1      47.854   7.636  13.256  0.00  0.00    +0.000 C 
ATOM     18  O   UNL     1      46.920   8.318  13.664  0.00  0.00    +0.000 OA
ATOM     19  H   UNL     1      48.471   5.788  12.624  0.00  0.00    +0.000 HD
BRANCH  17  20
ATOM     20  C   UNL     1      49.108   8.262  12.816  0.00  0.00    +0.000 A 
ATOM     21  C   UNL     1      49.116   9.048  11.674  0.00  0.00    +0.000 A 
ATOM     22  S   UNL     1      50.646   9.700  11.301  0.00  0.00    +0.000 S 
ATOM     23  C   UNL     1      51.361   8.919  12.632  0.00  0.00    +0.000 A 
ATOM     24  N   UNL     1      52.696   9.026  12.868  0.00  0.00    +0.000 NA
ATOM     25  C   UNL     1      53.109   8.360  13.894  0.00  0.00    +0.000 A 
ATOM     26  N   UNL     1      52.304   7.606  14.713  0.00  0.00    +0.000 N 
ATOM     27  C   UNL     1      50.949   7.506  14.538  0.00  0.00    +0.000 A 
ATOM     28  O   UNL     1      50.242   6.883  15.325  0.00  0.00    +0.000 OA
ATOM     29  C   UNL     1      50.438   8.204  13.373  0.00  0.00    +0.000 A 
ATOM     30  H   UNL     1      52.691   7.127  15.513  0.00  0.00    +0.000 HD
ENDBRANCH  17  20
ENDBRANCH   2  16
TORSDOF 5
ENDMDL
MODEL 8
REMARK VINA RESULT:    -6.872      1.742      2.335
REMARK INTER + INTRA:          -9.420
REMARK INTER:                  -8.536
REMARK INTRA:                  -0.884
REMARK UNBOUND:                -0.539
REMARK  Name = 
REMARK  6 active torsions:
REMARK  status: ('A' for Active; 'I' for Inactive)
REMARK    1  A    between atoms: C_1  and  C_2
REMARK    2  A    between atoms: C_2  and  N_3
REMARK    3  A    between atoms: C_2  and  C_16
REMARK    4  A    between atoms: C_4  and  C_6
REMARK    5  A    between atoms: C_19  and  C_20
REMARK    6  A    between atoms: C_20  and  N_21
REMARK                            x       y       z     vdW  Elec       q    Type
REMARK                         _______ _______ _______ _____ _____    ______ ____
ROOT
ATOM      1  C   UNL     1      48.207  10.118  13.152  0.00  0.00    +0.000 C 
ATOM      2  C   UNL     1      48.154   8.878  14.052  0.00  0.00    +0.000 C 
ENDROOT
BRANCH   2   3
ATOM      3  C   UNL     1      47.160   7.870  13.493  0.00  0.00    +0.000 A 
ATOM      4  C   UNL     1      45.959   8.295  12.910  0.00  0.00    +0.000 A 
ATOM      5  C   UNL     1      45.077   7.370  12.341  0.00  0.00    +0.000 A 
ATOM      6  C   UNL     1      45.381   6.002  12.334  0.00  0.00    +0.000 A 
ATOM      7  C   UNL     1      46.567   5.571  12.941  0.00  0.00    +0.000 A 
ATOM      8  C   UNL     1      47.444   6.493  13.515  0.00  0.00    +0.000 A 
BRANCH   6   9
ATOM      9  C   UNL     1      44.442   5.005  11.691  0.00  0.00    +0.000 C 
BRANCH   9  10
ATOM     10  N   UNL     1      45.069   4.165  10.644  0.00  0.00    +0.000 NA
ATOM     11  C   UNL     1      44.199   3.026  10.301  0.00  0.00    +0.000 C 
ATOM     12  C   UNL     1      44.703   2.219   9.102  0.00  0.00    +0.000 C 
ATOM     13  C   UNL     1      44.933   3.113   7.894  0.00  0.00    +0.000 C 
ATOM     14  C   UNL     1      45.896   4.228   8.273  0.00  0.00    +0.000 C 
ATOM     15  C   UNL     1      45.381   5.012   9.480  0.00  0.00    +0.000 C 
ENDBRANCH   9  10
ENDBRANCH   6   9
ENDBRANCH   2   3
BRANCH   2  16
ATOM     16  N   UNL     1      47.786   9.187  15.426  0.00  0.00    +0.000 N 
ATOM     17  C   UNL     1      48.557   8.848  16.508  0.00  0.00    +0.000 C 
ATOM     18  O   UNL     1      49.648   8.297  16.402  0.00  0.00    +0.000 OA
ATOM     19  H   UNL     1      46.794   9.338  15.589  0.00  0.00    +0.000 HD
BRANCH  17  20
ATOM     20  C   UNL     1      48.043   9.254  17.823  0.00  0.00    +0.000 A 
ATOM     21  C   UNL     1      47.708  10.581  18.047  0.00  0.00    +0.000 A 
ATOM     22  S   UNL     1      47.128  10.885  19.620  0.00  0.00    +0.000 S 
ATOM     23  C   UNL     1      47.345   9.259  20.071  0.00  0.00    +0.000 A 
ATOM     24  N   UNL     1      47.074   8.845  21.338  0.00  0.00    +0.000 NA
ATOM     25  C   UNL     1      47.311   7.594  21.550  0.00  0.00    +0.000 A 
ATOM     26  N   UNL     1      47.781   6.715  20.605  0.00  0.00    +0.000 N 
ATOM     27  C   UNL     1      48.026   7.080  19.306  0.00  0.00    +0.000 A 
ATOM     28  O   UNL     1      48.379   6.261  18.463  0.00  0.00    +0.000 OA
ATOM     29  C   UNL     1      47.815   8.487  19.025  0.00  0.00    +0.000 A 
ATOM     30  H   UNL     1      47.924   5.743  20.834  0.00  0.00    +0.000 HD
ENDBRANCH  17  20
ENDBRANCH   2  16
TORSDOF 5
ENDMDL
MODEL 9
REMARK VINA RESULT:    -6.860      3.631      9.020
REMARK INTER + INTRA:          -9.403
REMARK INTER:                  -8.362
REMARK INTRA:                  -1.042
REMARK UNBOUND:                -0.539
REMARK  Name = 
REMARK  6 active torsions:
REMARK  status: ('A' for Active; 'I' for Inactive)
REMARK    1  A    between atoms: C_1  and  C_2
REMARK    2  A    between atoms: C_2  and  N_3
REMARK    3  A    between atoms: C_2  and  C_16
REMARK    4  A    between atoms: C_4  and  C_6
REMARK    5  A    between atoms: C_19  and  C_20
REMARK    6  A    between atoms: C_20  and  N_21
REMARK                            x       y       z     vdW  Elec       q    Type
REMARK                         _______ _______ _______ _____ _____    ______ ____
ROOT
ATOM      1  C   UNL     1      48.757   7.936  11.536  0.00  0.00    +0.000 C 
ATOM      2  C   UNL     1      47.839   7.452  12.664  0.00  0.00    +0.000 C 
ENDROOT
BRANCH   2   3
ATOM      3  C   UNL     1      48.666   7.086  13.889  0.00  0.00    +0.000 A 
ATOM      4  C   UNL     1      49.944   7.626  14.078  0.00  0.00    +0.000 A 
ATOM      5  C   UNL     1      50.675   7.338  15.235  0.00  0.00    +0.000 A 
ATOM      6  C   UNL     1      50.140   6.511  16.232  0.00  0.00    +0.000 A 
ATOM      7  C   UNL     1      48.874   5.946  16.034  0.00  0.00    +0.000 A 
ATOM      8  C   UNL     1      48.148   6.228  14.875  0.00  0.00    +0.000 A 
BRANCH   6   9
ATOM      9  C   UNL     1      50.918   6.224  17.498  0.00  0.00    +0.000 C 
BRANCH   9  10
ATOM     10  N   UNL     1      51.924   5.144  17.362  0.00  0.00    +0.000 NA
ATOM     11  C   UNL     1      53.287   5.680  17.525  0.00  0.00    +0.000 C 
ATOM     12  C   UNL     1      54.364   4.593  17.575  0.00  0.00    +0.000 C 
ATOM     13  C   UNL     1      54.052   3.560  18.647  0.00  0.00    +0.000 C 
ATOM     14  C   UNL     1      52.670   2.979  18.394  0.00  0.00    +0.000 C 
ATOM     15  C   UNL     1      51.612   4.082  18.334  0.00  0.00    +0.000 C 
ENDBRANCH   9  10
ENDBRANCH   6   9
ENDBRANCH   2   3
BRANCH   2  16
ATOM     16  N   UNL     1      47.028   6.303  12.286  0.00  0.00    +0.000 N 
ATOM     17  C   UNL     1      45.657   6.313  12.290  0.00  0.00    +0.000 C 
ATOM     18  O   UNL     1      44.999   7.309  12.570  0.00  0.00    +0.000 OA
ATOM     19  H   UNL     1      47.489   5.401  12.362  0.00  0.00    +0.000 HD
BRANCH  17  20
ATOM     20  C   UNL     1      44.999   5.072  11.862  0.00  0.00    +0.000 A 
ATOM     21  C   UNL     1      44.265   4.334  12.780  0.00  0.00    +0.000 A 
ATOM     22  S   UNL     1      43.566   2.925  12.125  0.00  0.00    +0.000 S 
ATOM     23  C   UNL     1      44.256   3.228  10.600  0.00  0.00    +0.000 A 
ATOM     24  N   UNL     1      44.081   2.357   9.570  0.00  0.00    +0.000 NA
ATOM     25  C   UNL     1      44.682   2.696   8.480  0.00  0.00    +0.000 A 
ATOM     26  N   UNL     1      45.432   3.837   8.322  0.00  0.00    +0.000 N 
ATOM     27  C   UNL     1      45.597   4.763   9.319  0.00  0.00    +0.000 A 
ATOM     28  O   UNL     1      46.214   5.808   9.131  0.00  0.00    +0.000 OA
ATOM     29  C   UNL     1      44.975   4.409  10.580  0.00  0.00    +0.000 A 
ATOM     30  H   UNL     1      45.858   4.052   7.432  0.00  0.00    +0.000 HD
ENDBRANCH  17  20
ENDBRANCH   2  16
TORSDOF 5
ENDMDL
