MODEL 1
REMARK VINA RESULT:    -9.346      0.000      0.000
REMARK INTER + INTRA:         -12.458
REMARK INTER:                 -12.352
REMARK INTRA:                  -0.106
REMARK UNBOUND:                -0.106
REMARK  Name = 
REMARK  6 active torsions:
REMARK  status: ('A' for Active; 'I' for Inactive)
REMARK    1  A    between atoms: C_2  and  C_5
REMARK    2  A    between atoms: N_3  and  O_4
REMARK    3  A    between atoms: C_8  and  O_9
REMARK    4  A    between atoms: O_9  and  C_10
REMARK    5  A    between atoms: C_10  and  C_11
REMARK    6  A    between atoms: C_16  and  C_17
REMARK                            x       y       z     vdW  Elec       q    Type
REMARK                         _______ _______ _______ _____ _____    ______ ____
ROOT
ATOM      1  O   UNL     1      43.517   3.532  10.789  0.00  0.00    +0.000 OA
ENDROOT
BRANCH   1   5
ATOM      2  C   UNL     1      46.237   3.020   7.663  0.00  0.00    +0.000 A 
ATOM      3  C   UNL     1      45.769   4.284   8.044  0.00  0.00    +0.000 A 
ATOM      4  C   UNL     1      44.862   4.409   9.102  0.00  0.00    +0.000 A 
ATOM      5  C   UNL     1      44.415   3.279   9.792  0.00  0.00    +0.000 A 
ATOM      6  C   UNL     1      44.891   2.022   9.427  0.00  0.00    +0.000 A 
ATOM      7  C   UNL     1      45.795   1.903   8.370  0.00  0.00    +0.000 A 
ATOM      8  F   UNL     1      46.210   0.669   8.041  0.00  0.00    +0.000 F 
BRANCH   2  10
ATOM      9  N   UNL     1      46.816   3.477   5.378  0.00  0.00    +0.000 NA
ATOM     10  C   UNL     1      47.151   2.890   6.488  0.00  0.00    +0.000 C 
ATOM     11  N   UNL     1      48.322   2.162   6.586  0.00  0.00    +0.000 N 
ATOM     12  H   UNL     1      47.535   3.238   4.690  0.00  0.00    +0.000 HD
ATOM     13  H   UNL     1      48.377   1.514   7.376  0.00  0.00    +0.000 HD
BRANCH  11  14
ATOM     14  O   UNL     1      48.725   1.591   5.375  0.00  0.00    +0.000 OA
ATOM     15  H   UNL     1      48.836   0.649   5.603  0.00  0.00    +0.000 HD
ENDBRANCH  11  14
ENDBRANCH   2  10
ENDBRANCH   1   5
BRANCH   1  16
ATOM     16  C   UNL     1      43.553   4.833  11.374  0.00  0.00    +0.000 C 
BRANCH  16  17
ATOM     17  C   UNL     1      44.837   4.970  12.152  0.00  0.00    +0.000 A 
ATOM     18  C   UNL     1      45.410   3.885  12.812  0.00  0.00    +0.000 A 
ATOM     19  C   UNL     1      46.582   4.068  13.531  0.00  0.00    +0.000 A 
ATOM     20  F   UNL     1      47.144   3.023  14.149  0.00  0.00    +0.000 F 
ATOM     21  C   UNL     1      47.186   5.323  13.625  0.00  0.00    +0.000 A 
ATOM     22  C   UNL     1      46.619   6.442  12.992  0.00  0.00    +0.000 A 
ATOM     23  C   UNL     1      45.457   6.230  12.235  0.00  0.00    +0.000 A 
BRANCH  22  24
ATOM     24  C   UNL     1      47.293   7.808  13.114  0.00  0.00    +0.000 C 
ATOM     25  C   UNL     1      48.192   8.139  11.904  0.00  0.00    +0.000 C 
ATOM     26  C   UNL     1      49.528   7.398  11.961  0.00  0.00    +0.000 C 
ATOM     27  N   UNL     1      50.263   7.691  13.193  0.00  0.00    +0.000 NA
ATOM     28  C   UNL     1      49.479   7.356  14.379  0.00  0.00    +0.000 C 
ATOM     29  C   UNL     1      48.116   8.057  14.395  0.00  0.00    +0.000 C 
ATOM     30  H   UNL     1      50.505   8.680  13.217  0.00  0.00    +0.000 HD
ENDBRANCH  22  24
ENDBRANCH  16  17
ENDBRANCH   1  16
TORSDOF 6
ENDMDL
MODEL 2
REMARK VINA RESULT:    -9.064      1.448      2.119
REMARK INTER + INTRA:         -12.085
REMARK INTER:                 -11.528
REMARK INTRA:                  -0.557
REMARK UNBOUND:                -0.106
REMARK  Name = 
REMARK  6 active torsions:
REMARK  status: ('A' for Active; 'I' for Inactive)
REMARK    1  A    between atoms: C_2  and  C_5
REMARK    2  A    between atoms: N_3  and  O_4
REMARK    3  A    between atoms: C_8  and  O_9
REMARK    4  A    between atoms: O_9  and  C_10
REMARK    5  A    between atoms: C_10  and  C_11
REMARK    6  A    between atoms: C_16  and  C_17
REMARK                            x       y       z     vdW  Elec       q    Type
REMARK                         _______ _______ _______ _____ _____    ______ ____
ROOT
ATOM      1  O   UNL     1      43.717   4.469  10.863  0.00  0.00    +0.000 OA
ENDROOT
BRANCH   1   5
ATOM      2  C   UNL     1      46.036   2.496   8.007  0.00  0.00    +0.000 A 
ATOM      3  C   UNL     1      45.172   1.809   8.870  0.00  0.00    +0.000 A 
ATOM      4  C   UNL     1      44.409   2.512   9.807  0.00  0.00    +0.000 A 
ATOM      5  C   UNL     1      44.496   3.903   9.895  0.00  0.00    +0.000 A 
ATOM      6  C   UNL     1      45.341   4.591   9.028  0.00  0.00    +0.000 A 
ATOM      7  C   UNL     1      46.101   3.886   8.095  0.00  0.00    +0.000 A 
ATOM      8  F   UNL     1      46.918   4.590   7.294  0.00  0.00    +0.000 F 
BRANCH   2  10
ATOM      9  N   UNL     1      47.203   0.502   7.351  0.00  0.00    +0.000 NA
ATOM     10  C   UNL     1      46.899   1.731   7.056  0.00  0.00    +0.000 C 
ATOM     11  N   UNL     1      47.359   2.322   5.894  0.00  0.00    +0.000 N 
ATOM     12  H   UNL     1      47.827   0.168   6.611  0.00  0.00    +0.000 HD
ATOM     13  H   UNL     1      47.317   3.344   5.869  0.00  0.00    +0.000 HD
BRANCH  11  14
ATOM     14  O   UNL     1      48.583   1.809   5.456  0.00  0.00    +0.000 OA
ATOM     15  H   UNL     1      49.091   2.612   5.235  0.00  0.00    +0.000 HD
ENDBRANCH  11  14
ENDBRANCH   2  10
ENDBRANCH   1   5
BRANCH   1  16
ATOM     16  C   UNL     1      44.049   5.799  11.261  0.00  0.00    +0.000 C 
BRANCH  16  17
ATOM     17  C   UNL     1      45.242   5.737  12.179  0.00  0.00    +0.000 A 
ATOM     18  C   UNL     1      45.290   4.856  13.257  0.00  0.00    +0.000 A 
ATOM     19  C   UNL     1      46.404   4.852  14.084  0.00  0.00    +0.000 A 
ATOM     20  F   UNL     1      46.458   3.992  15.108  0.00  0.00    +0.000 F 
ATOM     21  C   UNL     1      47.468   5.729  13.870  0.00  0.00    +0.000 A 
ATOM     22  C   UNL     1      47.439   6.647  12.807  0.00  0.00    +0.000 A 
ATOM     23  C   UNL     1      46.324   6.608  11.957  0.00  0.00    +0.000 A 
BRANCH  22  24
ATOM     24  C   UNL     1      48.613   7.603  12.595  0.00  0.00    +0.000 C 
ATOM     25  C   UNL     1      49.258   8.058  13.920  0.00  0.00    +0.000 C 
ATOM     26  C   UNL     1      48.425   9.128  14.628  0.00  0.00    +0.000 C 
ATOM     27  N   UNL     1      48.208  10.301  13.779  0.00  0.00    +0.000 NA
ATOM     28  C   UNL     1      47.556   9.940  12.522  0.00  0.00    +0.000 C 
ATOM     29  C   UNL     1      48.328   8.864  11.751  0.00  0.00    +0.000 C 
ATOM     30  H   UNL     1      49.101  10.747  13.579  0.00  0.00    +0.000 HD
ENDBRANCH  22  24
ENDBRANCH  16  17
ENDBRANCH   1  16
TORSDOF 6
ENDMDL
MODEL 3
REMARK VINA RESULT:    -8.580      2.209      2.848
REMARK INTER + INTRA:         -11.445
REMARK INTER:                 -10.800
REMARK INTRA:                  -0.645
REMARK UNBOUND:                -0.106
REMARK  Name = 
REMARK  6 active torsions:
REMARK  status: ('A' for Active; 'I' for Inactive)
REMARK    1  A    between atoms: C_2  and  C_5
REMARK    2  A    between atoms: N_3  and  O_4
REMARK    3  A    between atoms: C_8  and  O_9
REMARK    4  A    between atoms: O_9  and  C_10
REMARK    5  A    between atoms: C_10  and  C_11
REMARK    6  A    between atoms: C_16  and  C_17
REMARK                            x       y       z     vdW  Elec       q    Type
REMARK                         _______ _______ _______ _____ _____    ______ ____
ROOT
ATOM      1  O   UNL     1      43.713   4.653  10.749  0.00  0.00    +0.000 OA
ENDROOT
BRANCH   1   5
ATOM      2  C   UNL     1      46.024   2.464   8.047  0.00  0.00    +0.000 A 
ATOM      3  C   UNL     1      45.092   1.854   8.896  0.00  0.00    +0.000 A 
ATOM      4  C   UNL     1      44.335   2.628   9.781  0.00  0.00    +0.000 A 
ATOM      5  C   UNL     1      44.495   4.014   9.829  0.00  0.00    +0.000 A 
ATOM      6  C   UNL     1      45.410   4.627   8.976  0.00  0.00    +0.000 A 
ATOM      7  C   UNL     1      46.163   3.851   8.095  0.00  0.00    +0.000 A 
ATOM      8  F   UNL     1      47.047   4.484   7.306  0.00  0.00    +0.000 F 
BRANCH   2  10
ATOM      9  N   UNL     1      47.150   0.408   7.527  0.00  0.00    +0.000 NA
ATOM     10  C   UNL     1      46.878   1.624   7.154  0.00  0.00    +0.000 C 
ATOM     11  N   UNL     1      47.364   2.132   5.964  0.00  0.00    +0.000 N 
ATOM     12  H   UNL     1      47.773   0.015   6.816  0.00  0.00    +0.000 HD
ATOM     13  H   UNL     1      47.346   3.151   5.876  0.00  0.00    +0.000 HD
BRANCH  11  14
ATOM     14  O   UNL     1      48.579   1.565   5.572  0.00  0.00    +0.000 OA
ATOM     15  H   UNL     1      48.466   0.623   5.800  0.00  0.00    +0.000 HD
ENDBRANCH  11  14
ENDBRANCH   2  10
ENDBRANCH   1   5
BRANCH   1  16
ATOM     16  C   UNL     1      44.305   4.928  12.018  0.00  0.00    +0.000 C 
BRANCH  16  17
ATOM     17  C   UNL     1      44.673   6.389  12.065  0.00  0.00    +0.000 A 
ATOM     18  C   UNL     1      43.998   7.338  11.299  0.00  0.00    +0.000 A 
ATOM     19  C   UNL     1      44.388   8.667  11.364  0.00  0.00    +0.000 A 
ATOM     20  F   UNL     1      43.728   9.581  10.644  0.00  0.00    +0.000 F 
ATOM     21  C   UNL     1      45.459   9.070  12.164  0.00  0.00    +0.000 A 
ATOM     22  C   UNL     1      46.176   8.134  12.929  0.00  0.00    +0.000 A 
ATOM     23  C   UNL     1      45.741   6.801  12.883  0.00  0.00    +0.000 A 
BRANCH  22  24
ATOM     24  C   UNL     1      47.349   8.596  13.793  0.00  0.00    +0.000 C 
ATOM     25  C   UNL     1      48.105   9.793  13.181  0.00  0.00    +0.000 C 
ATOM     26  C   UNL     1      49.027   9.367  12.037  0.00  0.00    +0.000 C 
ATOM     27  N   UNL     1      49.999   8.360  12.466  0.00  0.00    +0.000 NA
ATOM     28  C   UNL     1      49.340   7.178  13.016  0.00  0.00    +0.000 C 
ATOM     29  C   UNL     1      48.391   7.521  14.169  0.00  0.00    +0.000 C 
ATOM     30  H   UNL     1      50.616   8.761  13.171  0.00  0.00    +0.000 HD
ENDBRANCH  22  24
ENDBRANCH  16  17
ENDBRANCH   1  16
TORSDOF 6
ENDMDL
MODEL 4
REMARK VINA RESULT:    -7.748      4.707      8.737
REMARK INTER + INTRA:         -10.345
REMARK INTER:                  -9.535
REMARK INTRA:                  -0.809
REMARK UNBOUND:                -0.106
REMARK  Name = 
REMARK  6 active torsions:
REMARK  status: ('A' for Active; 'I' for Inactive)
REMARK    1  A    between atoms: C_2  and  C_5
REMARK    2  A    between atoms: N_3  and  O_4
REMARK    3  A    between atoms: C_8  and  O_9
REMARK    4  A    between atoms: O_9  and  C_10
REMARK    5  A    between atoms: C_10  and  C_11
REMARK    6  A    between atoms: C_16  and  C_17
REMARK                            x       y       z     vdW  Elec       q    Type
REMARK                         _______ _______ _______ _____ _____    ______ ____
ROOT
ATOM      1  O   UNL     1      48.155   5.660  14.229  0.00  0.00    +0.000 OA
ENDROOT
BRANCH   1   5
ATOM      2  C   UNL     1      48.307   5.079  18.361  0.00  0.00    +0.000 A 
ATOM      3  C   UNL     1      48.844   6.218  17.748  0.00  0.00    +0.000 A 
ATOM      4  C   UNL     1      48.765   6.374  16.361  0.00  0.00    +0.000 A 
ATOM      5  C   UNL     1      48.149   5.401  15.571  0.00  0.00    +0.000 A 
ATOM      6  C   UNL     1      47.599   4.274  16.177  0.00  0.00    +0.000 A 
ATOM      7  C   UNL     1      47.681   4.123  17.562  0.00  0.00    +0.000 A 
ATOM      8  F   UNL     1      47.155   3.010  18.100  0.00  0.00    +0.000 F 
BRANCH   2  10
ATOM      9  N   UNL     1      49.502   4.248  20.271  0.00  0.00    +0.000 NA
ATOM     10  C   UNL     1      48.457   4.887  19.835  0.00  0.00    +0.000 C 
ATOM     11  N   UNL     1      47.505   5.379  20.708  0.00  0.00    +0.000 N 
ATOM     12  H   UNL     1      49.404   4.182  21.288  0.00  0.00    +0.000 HD
ATOM     13  H   UNL     1      46.599   5.612  20.293  0.00  0.00    +0.000 HD
BRANCH  11  14
ATOM     14  O   UNL     1      47.396   4.637  21.888  0.00  0.00    +0.000 OA
ATOM     15  H   UNL     1      46.439   4.457  21.947  0.00  0.00    +0.000 HD
ENDBRANCH  11  14
ENDBRANCH   2  10
ENDBRANCH   1   5
BRANCH   1  16
ATOM     16  C   UNL     1      48.261   7.028  13.839  0.00  0.00    +0.000 C 
BRANCH  16  17
ATOM     17  C   UNL     1      47.031   7.395  13.050  0.00  0.00    +0.000 A 
ATOM     18  C   UNL     1      46.585   8.713  12.962  0.00  0.00    +0.000 A 
ATOM     19  C   UNL     1      45.436   8.995  12.239  0.00  0.00    +0.000 A 
ATOM     20  F   UNL     1      45.019  10.263  12.139  0.00  0.00    +0.000 F 
ATOM     21  C   UNL     1      44.703   7.983  11.618  0.00  0.00    +0.000 A 
ATOM     22  C   UNL     1      45.112   6.642  11.708  0.00  0.00    +0.000 A 
ATOM     23  C   UNL     1      46.299   6.380  12.408  0.00  0.00    +0.000 A 
BRANCH  22  24
ATOM     24  C   UNL     1      44.292   5.548  11.025  0.00  0.00    +0.000 C 
ATOM     25  C   UNL     1      42.920   5.326  11.693  0.00  0.00    +0.000 C 
ATOM     26  C   UNL     1      43.034   4.525  12.990  0.00  0.00    +0.000 C 
ATOM     27  N   UNL     1      43.672   3.225  12.774  0.00  0.00    +0.000 NA
ATOM     28  C   UNL     1      45.000   3.371  12.182  0.00  0.00    +0.000 C 
ATOM     29  C   UNL     1      44.972   4.170  10.875  0.00  0.00    +0.000 C 
ATOM     30  H   UNL     1      43.090   2.658  12.161  0.00  0.00    +0.000 HD
ENDBRANCH  22  24
ENDBRANCH  16  17
ENDBRANCH   1  16
TORSDOF 6
ENDMDL
MODEL 5
REMARK VINA RESULT:    -7.548      4.207      6.389
REMARK INTER + INTRA:         -10.081
REMARK INTER:                  -9.442
REMARK INTRA:                  -0.639
REMARK UNBOUND:                -0.106
REMARK  Name = 
REMARK  6 active torsions:
REMARK  status: ('A' for Active; 'I' for Inactive)
REMARK    1  A    between atoms: C_2  and  C_5
REMARK    2  A    between atoms: N_3  and  O_4
REMARK    3  A    between atoms: C_8  and  O_9
REMARK    4  A    between atoms: O_9  and  C_10
REMARK    5  A    between atoms: C_10  and  C_11
REMARK    6  A    between atoms: C_16  and  C_17
REMARK                            x       y       z     vdW  Elec       q    Type
REMARK                         _______ _______ _______ _____ _____    ______ ____
ROOT
ATOM      1  O   UNL     1      48.831   6.620  13.191  0.00  0.00    +0.000 OA
ENDROOT
BRANCH   1   5
ATOM      2  C   UNL     1      45.191   4.775  12.310  0.00  0.00    +0.000 A 
ATOM      3  C   UNL     1      46.045   4.297  13.311  0.00  0.00    +0.000 A 
ATOM      4  C   UNL     1      47.252   4.951  13.577  0.00  0.00    +0.000 A 
ATOM      5  C   UNL     1      47.620   6.086  12.851  0.00  0.00    +0.000 A 
ATOM      6  C   UNL     1      46.765   6.575  11.866  0.00  0.00    +0.000 A 
ATOM      7  C   UNL     1      45.563   5.919  11.604  0.00  0.00    +0.000 A 
ATOM      8  F   UNL     1      44.781   6.414  10.631  0.00  0.00    +0.000 F 
BRANCH   2  10
ATOM      9  N   UNL     1      42.797   4.584  12.282  0.00  0.00    +0.000 NA
ATOM     10  C   UNL     1      43.936   4.031  11.986  0.00  0.00    +0.000 C 
ATOM     11  N   UNL     1      43.992   2.786  11.388  0.00  0.00    +0.000 N 
ATOM     12  H   UNL     1      42.068   3.911  12.027  0.00  0.00    +0.000 HD
ATOM     13  H   UNL     1      44.894   2.307  11.443  0.00  0.00    +0.000 HD
BRANCH  11  14
ATOM     14  O   UNL     1      42.909   1.964  11.712  0.00  0.00    +0.000 OA
ATOM     15  H   UNL     1      43.318   1.080  11.782  0.00  0.00    +0.000 HD
ENDBRANCH  11  14
ENDBRANCH   2  10
ENDBRANCH   1   5
BRANCH   1  16
ATOM     16  C   UNL     1      48.849   7.521  14.297  0.00  0.00    +0.000 C 
BRANCH  16  17
ATOM     17  C   UNL     1      49.769   6.962  15.352  0.00  0.00    +0.000 A 
ATOM     18  C   UNL     1      51.119   7.301  15.398  0.00  0.00    +0.000 A 
ATOM     19  C   UNL     1      51.928   6.743  16.377  0.00  0.00    +0.000 A 
ATOM     20  F   UNL     1      53.221   7.084  16.434  0.00  0.00    +0.000 F 
ATOM     21  C   UNL     1      51.420   5.831  17.303  0.00  0.00    +0.000 A 
ATOM     22  C   UNL     1      50.068   5.449  17.268  0.00  0.00    +0.000 A 
ATOM     23  C   UNL     1      49.257   6.055  16.298  0.00  0.00    +0.000 A 
BRANCH  22  24
ATOM     24  C   UNL     1      49.535   4.443  18.288  0.00  0.00    +0.000 C 
ATOM     25  C   UNL     1      49.341   3.034  17.691  0.00  0.00    +0.000 C 
ATOM     26  C   UNL     1      48.076   2.941  16.835  0.00  0.00    +0.000 C 
ATOM     27  N   UNL     1      46.877   3.305  17.592  0.00  0.00    +0.000 NA
ATOM     28  C   UNL     1      46.981   4.652  18.147  0.00  0.00    +0.000 C 
ATOM     29  C   UNL     1      48.230   4.830  19.017  0.00  0.00    +0.000 C 
ATOM     30  H   UNL     1      46.737   2.638  18.349  0.00  0.00    +0.000 HD
ENDBRANCH  22  24
ENDBRANCH  16  17
ENDBRANCH   1  16
TORSDOF 6
ENDMDL
MODEL 6
REMARK VINA RESULT:    -7.520      4.275      6.636
REMARK INTER + INTRA:         -10.044
REMARK INTER:                  -9.094
REMARK INTRA:                  -0.950
REMARK UNBOUND:                -0.106
REMARK  Name = 
REMARK  6 active torsions:
REMARK  status: ('A' for Active; 'I' for Inactive)
REMARK    1  A    between atoms: C_2  and  C_5
REMARK    2  A    between atoms: N_3  and  O_4
REMARK    3  A    between atoms: C_8  and  O_9
REMARK    4  A    between atoms: O_9  and  C_10
REMARK    5  A    between atoms: C_10  and  C_11
REMARK    6  A    between atoms: C_16  and  C_17
REMARK                            x       y       z     vdW  Elec       q    Type
REMARK                         _______ _______ _______ _____ _____    ______ ____
ROOT
ATOM      1  O   UNL     1      49.234   6.503  13.326  0.00  0.00    +0.000 OA
ENDROOT
BRANCH   1   5
ATOM      2  C   UNL     1      45.310   5.863  12.053  0.00  0.00    +0.000 A 
ATOM      3  C   UNL     1      46.143   6.814  11.450  0.00  0.00    +0.000 A 
ATOM      4  C   UNL     1      47.453   6.990  11.905  0.00  0.00    +0.000 A 
ATOM      5  C   UNL     1      47.948   6.222  12.962  0.00  0.00    +0.000 A 
ATOM      6  C   UNL     1      47.127   5.264  13.554  0.00  0.00    +0.000 A 
ATOM      7  C   UNL     1      45.821   5.092  13.096  0.00  0.00    +0.000 A 
ATOM      8  F   UNL     1      45.060   4.172  13.711  0.00  0.00    +0.000 F 
BRANCH   2  10
ATOM      9  N   UNL     1      43.661   5.337  10.387  0.00  0.00    +0.000 NA
ATOM     10  C   UNL     1      43.890   5.730  11.606  0.00  0.00    +0.000 C 
ATOM     11  N   UNL     1      42.851   6.019  12.470  0.00  0.00    +0.000 N 
ATOM     12  H   UNL     1      42.646   5.351  10.260  0.00  0.00    +0.000 HD
ATOM     13  H   UNL     1      43.099   6.576  13.292  0.00  0.00    +0.000 HD
BRANCH  11  14
ATOM     14  O   UNL     1      41.698   6.473  11.823  0.00  0.00    +0.000 OA
ATOM     15  H   UNL     1      40.987   5.970  12.262  0.00  0.00    +0.000 HD
ENDBRANCH  11  14
ENDBRANCH   2  10
ENDBRANCH   1   5
BRANCH   1  16
ATOM     16  C   UNL     1      49.466   7.770  13.940  0.00  0.00    +0.000 C 
BRANCH  16  17
ATOM     17  C   UNL     1      49.281   7.619  15.428  0.00  0.00    +0.000 A 
ATOM     18  C   UNL     1      48.560   8.550  16.173  0.00  0.00    +0.000 A 
ATOM     19  C   UNL     1      48.436   8.376  17.544  0.00  0.00    +0.000 A 
ATOM     20  F   UNL     1      47.727   9.259  18.256  0.00  0.00    +0.000 F 
ATOM     21  C   UNL     1      49.037   7.298  18.194  0.00  0.00    +0.000 A 
ATOM     22  C   UNL     1      49.791   6.355  17.476  0.00  0.00    +0.000 A 
ATOM     23  C   UNL     1      49.872   6.524  16.086  0.00  0.00    +0.000 A 
BRANCH  22  24
ATOM     24  C   UNL     1      50.447   5.185  18.210  0.00  0.00    +0.000 C 
ATOM     25  C   UNL     1      50.133   3.822  17.559  0.00  0.00    +0.000 C 
ATOM     26  C   UNL     1      48.724   3.334  17.897  0.00  0.00    +0.000 C 
ATOM     27  N   UNL     1      48.514   3.228  19.341  0.00  0.00    +0.000 NA
ATOM     28  C   UNL     1      48.753   4.504  20.012  0.00  0.00    +0.000 C 
ATOM     29  C   UNL     1      50.148   5.067  19.719  0.00  0.00    +0.000 C 
ATOM     30  H   UNL     1      49.140   2.523  19.726  0.00  0.00    +0.000 HD
ENDBRANCH  22  24
ENDBRANCH  16  17
ENDBRANCH   1  16
TORSDOF 6
ENDMDL
MODEL 7
REMARK VINA RESULT:    -7.469      4.467      6.529
REMARK INTER + INTRA:          -9.976
REMARK INTER:                  -9.075
REMARK INTRA:                  -0.902
REMARK UNBOUND:                -0.106
REMARK  Name = 
REMARK  6 active torsions:
REMARK  status: ('A' for Active; 'I' for Inactive)
REMARK    1  A    between atoms: C_2  and  C_5
REMARK    2  A    between atoms: N_3  and  O_4
REMARK    3  A    between atoms: C_8  and  O_9
REMARK    4  A    between atoms: O_9  and  C_10
REMARK    5  A    between atoms: C_10  and  C_11
REMARK    6  A    between atoms: C_16  and  C_17
REMARK                            x       y       z     vdW  Elec       q    Type
REMARK                         _______ _______ _______ _____ _____    ______ ____
ROOT
ATOM      1  O   UNL     1      48.707   6.480  13.768  0.00  0.00    +0.000 OA
ENDROOT
BRANCH   1   5
ATOM      2  C   UNL     1      45.187   4.697  12.404  0.00  0.00    +0.000 A 
ATOM      3  C   UNL     1      45.803   4.310  13.600  0.00  0.00    +0.000 A 
ATOM      4  C   UNL     1      46.978   4.940  14.022  0.00  0.00    +0.000 A 
ATOM      5  C   UNL     1      47.550   5.961  13.260  0.00  0.00    +0.000 A 
ATOM      6  C   UNL     1      46.932   6.360  12.077  0.00  0.00    +0.000 A 
ATOM      7  C   UNL     1      45.760   5.729  11.661  0.00  0.00    +0.000 A 
ATOM      8  F   UNL     1      45.211   6.133  10.504  0.00  0.00    +0.000 F 
BRANCH   2  10
ATOM      9  N   UNL     1      42.828   4.593  11.964  0.00  0.00    +0.000 NA
ATOM     10  C   UNL     1      43.970   3.973  11.926  0.00  0.00    +0.000 C 
ATOM     11  N   UNL     1      44.063   2.676  11.458  0.00  0.00    +0.000 N 
ATOM     12  H   UNL     1      42.121   3.927  11.643  0.00  0.00    +0.000 HD
ATOM     13  H   UNL     1      44.915   2.170  11.716  0.00  0.00    +0.000 HD
BRANCH  11  14
ATOM     14  O   UNL     1      42.898   1.929  11.654  0.00  0.00    +0.000 OA
ATOM     15  H   UNL     1      43.239   1.066  11.957  0.00  0.00    +0.000 HD
ENDBRANCH  11  14
ENDBRANCH   2  10
ENDBRANCH   1   5
BRANCH   1  16
ATOM     16  C   UNL     1      48.634   7.793  14.322  0.00  0.00    +0.000 C 
BRANCH  16  17
ATOM     17  C   UNL     1      48.801   7.689  15.816  0.00  0.00    +0.000 A 
ATOM     18  C   UNL     1      48.405   8.717  16.669  0.00  0.00    +0.000 A 
ATOM     19  C   UNL     1      48.599   8.581  18.036  0.00  0.00    +0.000 A 
ATOM     20  F   UNL     1      48.202   9.560  18.857  0.00  0.00    +0.000 F 
ATOM     21  C   UNL     1      49.205   7.443  18.571  0.00  0.00    +0.000 A 
ATOM     22  C   UNL     1      49.637   6.399  17.736  0.00  0.00    +0.000 A 
ATOM     23  C   UNL     1      49.395   6.536  16.361  0.00  0.00    +0.000 A 
BRANCH  22  24
ATOM     24  C   UNL     1      50.303   5.164  18.343  0.00  0.00    +0.000 C 
ATOM     25  C   UNL     1      49.853   3.852  17.668  0.00  0.00    +0.000 C 
ATOM     26  C   UNL     1      48.463   3.414  18.131  0.00  0.00    +0.000 C 
ATOM     27  N   UNL     1      48.398   3.247  19.583  0.00  0.00    +0.000 NA
ATOM     28  C   UNL     1      48.771   4.475  20.282  0.00  0.00    +0.000 C 
ATOM     29  C   UNL     1      50.156   4.985  19.869  0.00  0.00    +0.000 C 
ATOM     30  H   UNL     1      49.023   2.494  19.868  0.00  0.00    +0.000 HD
ENDBRANCH  22  24
ENDBRANCH  16  17
ENDBRANCH   1  16
TORSDOF 6
ENDMDL
MODEL 8
REMARK VINA RESULT:    -7.315      4.995      9.133
REMARK INTER + INTRA:          -9.773
REMARK INTER:                  -9.365
REMARK INTRA:                  -0.407
REMARK UNBOUND:                -0.106
REMARK  Name = 
REMARK  6 active torsions:
REMARK  status: ('A' for Active; 'I' for Inactive)
REMARK    1  A    between atoms: C_2  and  C_5
REMARK    2  A    between atoms: N_3  and  O_4
REMARK    3  A    between atoms: C_8  and  O_9
REMARK    4  A    between atoms: O_9  and  C_10
REMARK    5  A    between atoms: C_10  and  C_11
REMARK    6  A    between atoms: C_16  and  C_17
REMARK                            x       y       z     vdW  Elec       q    Type
REMARK                         _______ _______ _______ _____ _____    ______ ____
ROOT
ATOM      1  O   UNL     1      46.754   3.894  15.375  0.00  0.00    +0.000 OA
ENDROOT
BRANCH   1   5
ATOM      2  C   UNL     1      48.475   4.351  19.152  0.00  0.00    +0.000 A 
ATOM      3  C   UNL     1      48.021   3.110  18.684  0.00  0.00    +0.000 A 
ATOM      4  C   UNL     1      47.457   3.003  17.410  0.00  0.00    +0.000 A 
ATOM      5  C   UNL     1      47.341   4.126  16.587  0.00  0.00    +0.000 A 
ATOM      6  C   UNL     1      47.806   5.358  17.041  0.00  0.00    +0.000 A 
ATOM      7  C   UNL     1      48.367   5.460  18.314  0.00  0.00    +0.000 A 
ATOM      8  F   UNL     1      48.782   6.672  18.717  0.00  0.00    +0.000 F 
BRANCH   2  10
ATOM      9  N   UNL     1      48.167   4.553  21.525  0.00  0.00    +0.000 NA
ATOM     10  C   UNL     1      49.013   4.470  20.541  0.00  0.00    +0.000 C 
ATOM     11  N   UNL     1      50.376   4.490  20.767  0.00  0.00    +0.000 N 
ATOM     12  H   UNL     1      48.719   4.671  22.378  0.00  0.00    +0.000 HD
ATOM     13  H   UNL     1      50.959   4.701  19.953  0.00  0.00    +0.000 HD
BRANCH  11  14
ATOM     14  O   UNL     1      50.740   5.213  21.907  0.00  0.00    +0.000 OA
ATOM     15  H   UNL     1      51.322   4.592  22.384  0.00  0.00    +0.000 HD
ENDBRANCH  11  14
ENDBRANCH   2  10
ENDBRANCH   1   5
BRANCH   1  16
ATOM     16  C   UNL     1      47.572   4.074  14.220  0.00  0.00    +0.000 C 
BRANCH  16  17
ATOM     17  C   UNL     1      46.901   5.073  13.313  0.00  0.00    +0.000 A 
ATOM     18  C   UNL     1      47.254   6.421  13.323  0.00  0.00    +0.000 A 
ATOM     19  C   UNL     1      46.592   7.304  12.482  0.00  0.00    +0.000 A 
ATOM     20  F   UNL     1      46.944   8.595  12.478  0.00  0.00    +0.000 F 
ATOM     21  C   UNL     1      45.564   6.872  11.643  0.00  0.00    +0.000 A 
ATOM     22  C   UNL     1      45.168   5.524  11.627  0.00  0.00    +0.000 A 
ATOM     23  C   UNL     1      45.876   4.639  12.453  0.00  0.00    +0.000 A 
BRANCH  22  24
ATOM     24  C   UNL     1      44.036   5.074  10.704  0.00  0.00    +0.000 C 
ATOM     25  C   UNL     1      42.941   4.281  11.447  0.00  0.00    +0.000 C 
ATOM     26  C   UNL     1      43.368   2.842  11.736  0.00  0.00    +0.000 C 
ATOM     27  N   UNL     1      43.728   2.123  10.513  0.00  0.00    +0.000 NA
ATOM     28  C   UNL     1      44.796   2.803   9.784  0.00  0.00    +0.000 C 
ATOM     29  C   UNL     1      44.446   4.259   9.459  0.00  0.00    +0.000 C 
ATOM     30  H   UNL     1      42.909   2.042   9.912  0.00  0.00    +0.000 HD
ENDBRANCH  22  24
ENDBRANCH  16  17
ENDBRANCH   1  16
TORSDOF 6
ENDMDL
MODEL 9
REMARK VINA RESULT:    -7.230      4.651      6.249
REMARK INTER + INTRA:          -9.660
REMARK INTER:                  -8.967
REMARK INTRA:                  -0.693
REMARK UNBOUND:                -0.106
REMARK  Name = 
REMARK  6 active torsions:
REMARK  status: ('A' for Active; 'I' for Inactive)
REMARK    1  A    between atoms: C_2  and  C_5
REMARK    2  A    between atoms: N_3  and  O_4
REMARK    3  A    between atoms: C_8  and  O_9
REMARK    4  A    between atoms: O_9  and  C_10
REMARK    5  A    between atoms: C_10  and  C_11
REMARK    6  A    between atoms: C_16  and  C_17
REMARK                            x       y       z     vdW  Elec       q    Type
REMARK                         _______ _______ _______ _____ _____    ______ ____
ROOT
ATOM      1  O   UNL     1      47.677   4.994  15.148  0.00  0.00    +0.000 OA
ENDROOT
BRANCH   1   5
ATOM      2  C   UNL     1      45.398   5.018  11.651  0.00  0.00    +0.000 A 
ATOM      3  C   UNL     1      46.164   6.121  12.049  0.00  0.00    +0.000 A 
ATOM      4  C   UNL     1      46.917   6.066  13.225  0.00  0.00    +0.000 A 
ATOM      5  C   UNL     1      46.918   4.914  14.015  0.00  0.00    +0.000 A 
ATOM      6  C   UNL     1      46.171   3.810  13.614  0.00  0.00    +0.000 A 
ATOM      7  C   UNL     1      45.420   3.869  12.441  0.00  0.00    +0.000 A 
ATOM      8  F   UNL     1      44.699   2.787  12.105  0.00  0.00    +0.000 F 
BRANCH   2  10
ATOM      9  N   UNL     1      43.313   5.514  10.566  0.00  0.00    +0.000 NA
ATOM     10  C   UNL     1      44.542   5.110  10.429  0.00  0.00    +0.000 C 
ATOM     11  N   UNL     1      45.049   4.773   9.188  0.00  0.00    +0.000 N 
ATOM     12  H   UNL     1      42.883   5.467   9.638  0.00  0.00    +0.000 HD
ATOM     13  H   UNL     1      45.905   4.212   9.196  0.00  0.00    +0.000 HD
BRANCH  11  14
ATOM     14  O   UNL     1      44.080   4.290   8.304  0.00  0.00    +0.000 OA
ATOM     15  H   UNL     1      43.940   5.043   7.699  0.00  0.00    +0.000 HD
ENDBRANCH  11  14
ENDBRANCH   2  10
ENDBRANCH   1   5
BRANCH   1  16
ATOM     16  C   UNL     1      47.488   3.969  16.123  0.00  0.00    +0.000 C 
BRANCH  16  17
ATOM     17  C   UNL     1      48.817   3.678  16.772  0.00  0.00    +0.000 A 
ATOM     18  C   UNL     1      49.392   2.410  16.723  0.00  0.00    +0.000 A 
ATOM     19  C   UNL     1      50.607   2.190  17.354  0.00  0.00    +0.000 A 
ATOM     20  F   UNL     1      51.169   0.977  17.291  0.00  0.00    +0.000 F 
ATOM     21  C   UNL     1      51.254   3.207  18.056  0.00  0.00    +0.000 A 
ATOM     22  C   UNL     1      50.689   4.490  18.145  0.00  0.00    +0.000 A 
ATOM     23  C   UNL     1      49.480   4.706  17.467  0.00  0.00    +0.000 A 
BRANCH  22  24
ATOM     24  C   UNL     1      51.412   5.589  18.925  0.00  0.00    +0.000 C 
ATOM     25  C   UNL     1      51.892   5.117  20.313  0.00  0.00    +0.000 C 
ATOM     26  C   UNL     1      50.749   5.055  21.327  0.00  0.00    +0.000 C 
ATOM     27  N   UNL     1      50.077   6.347  21.472  0.00  0.00    +0.000 NA
ATOM     28  C   UNL     1      49.558   6.828  20.193  0.00  0.00    +0.000 C 
ATOM     29  C   UNL     1      50.645   6.914  19.116  0.00  0.00    +0.000 C 
ATOM     30  H   UNL     1      50.731   7.031  21.848  0.00  0.00    +0.000 HD
ENDBRANCH  22  24
ENDBRANCH  16  17
ENDBRANCH   1  16
TORSDOF 6
ENDMDL
