MODEL 1
REMARK VINA RESULT:    -8.178      0.000      0.000
REMARK INTER + INTRA:         -11.878
REMARK INTER:                 -11.524
REMARK INTRA:                  -0.353
REMARK UNBOUND:                -0.353
REMARK  Name = 
REMARK  9 active torsions:
REMARK  status: ('A' for Active; 'I' for Inactive)
REMARK    1  A    between atoms: C_1  and  C_2
REMARK    2  A    between atoms: C_2  and  C_3
REMARK    3  A    between atoms: C_2  and  N_18
REMARK    4  A    between atoms: C_3  and  C_4
REMARK    5  A    between atoms: C_4  and  C_5
REMARK    6  A    between atoms: C_10  and  O_11
REMARK    7  A    between atoms: O_11  and  C_12
REMARK    8  A    between atoms: N_14  and  C_15
REMARK    9  A    between atoms: C_22  and  C_23
REMARK                            x       y       z     vdW  Elec       q    Type
REMARK                         _______ _______ _______ _____ _____    ______ ____
ROOT
ATOM      1  C   UNL     1      42.500   5.317  11.782  0.00  0.00    +0.000 C 
ATOM      2  C   UNL     1      43.544   5.145  10.674  0.00  0.00    +0.000 C 
ENDROOT
BRANCH   2   3
ATOM      3  N   UNL     1      43.874   3.725  10.507  0.00  0.00    +0.000 N 
ATOM      4  C   UNL     1      44.741   3.400   9.454  0.00  0.00    +0.000 A 
ATOM      5  C   UNL     1      45.099   2.064   9.283  0.00  0.00    +0.000 A 
ATOM      6  C   UNL     1      46.009   1.714   8.283  0.00  0.00    +0.000 A 
ATOM      7  C   UNL     1      46.551   2.701   7.462  0.00  0.00    +0.000 A 
ATOM      8  C   UNL     1      46.144   4.002   7.702  0.00  0.00    +0.000 A 
ATOM      9  N   UNL     1      45.265   4.365   8.673  0.00  0.00    +0.000 NA
ATOM     10  H   UNL     1      43.049   3.131  10.468  0.00  0.00    +0.000 HD
BRANCH   7  11
ATOM     11  C   UNL     1      47.525   2.320   6.411  0.00  0.00    +0.000 C 
ATOM     12  N   UNL     1      47.682   3.130   5.320  0.00  0.00    +0.000 N 
ATOM     13  O   UNL     1      48.184   1.292   6.504  0.00  0.00    +0.000 OA
ATOM     14  H   UNL     1      47.174   3.980   5.129  0.00  0.00    +0.000 HD
ATOM     15  H   UNL     1      48.355   2.826   4.626  0.00  0.00    +0.000 HD
ENDBRANCH   7  11
ENDBRANCH   2   3
BRANCH   2  16
ATOM     16  C   UNL     1      44.817   5.924  11.050  0.00  0.00    +0.000 C 
BRANCH  16  17
ATOM     17  C   UNL     1      45.343   5.573  12.446  0.00  0.00    +0.000 C 
BRANCH  17  18
ATOM     18  C   UNL     1      46.697   6.199  12.690  0.00  0.00    +0.000 A 
ATOM     19  C   UNL     1      47.297   7.019  11.728  0.00  0.00    +0.000 A 
ATOM     20  C   UNL     1      48.559   7.555  11.967  0.00  0.00    +0.000 A 
ATOM     21  F   UNL     1      49.127   8.334  11.036  0.00  0.00    +0.000 F 
ATOM     22  C   UNL     1      49.241   7.297  13.151  0.00  0.00    +0.000 A 
ATOM     23  C   UNL     1      48.647   6.492  14.120  0.00  0.00    +0.000 A 
ATOM     24  C   UNL     1      47.390   5.929  13.881  0.00  0.00    +0.000 A 
BRANCH  23  25
ATOM     25  O   UNL     1      49.372   6.285  15.269  0.00  0.00    +0.000 OA
BRANCH  25  26
ATOM     26  C   UNL     1      48.636   6.036  16.492  0.00  0.00    +0.000 C 
ATOM     27  C   UNL     1      48.903   6.979  17.689  0.00  0.00    +0.000 C 
ATOM     28  N   UNL     1      49.114   5.818  18.573  0.00  0.00    +0.000 NA
ATOM     29  C   UNL     1      47.912   5.548  19.360  0.00  0.00    +0.000 C 
ATOM     30  C   UNL     1      49.192   4.922  17.402  0.00  0.00    +0.000 C 
ENDBRANCH  25  26
ENDBRANCH  23  25
ENDBRANCH  17  18
ENDBRANCH  16  17
ENDBRANCH   2  16
TORSDOF 7
ENDMDL
MODEL 2
REMARK VINA RESULT:    -8.061      3.297      5.087
REMARK INTER + INTRA:         -11.713
REMARK INTER:                 -10.803
REMARK INTRA:                  -0.910
REMARK UNBOUND:                -0.353
REMARK  Name = 
REMARK  9 active torsions:
REMARK  status: ('A' for Active; 'I' for Inactive)
REMARK    1  A    between atoms: C_1  and  C_2
REMARK    2  A    between atoms: C_2  and  C_3
REMARK    3  A    between atoms: C_2  and  N_18
REMARK    4  A    between atoms: C_3  and  C_4
REMARK    5  A    between atoms: C_4  and  C_5
REMARK    6  A    between atoms: C_10  and  O_11
REMARK    7  A    between atoms: O_11  and  C_12
REMARK    8  A    between atoms: N_14  and  C_15
REMARK    9  A    between atoms: C_22  and  C_23
REMARK                            x       y       z     vdW  Elec       q    Type
REMARK                         _______ _______ _______ _____ _____    ______ ____
ROOT
ATOM      1  C   UNL     1      42.470   5.313  11.430  0.00  0.00    +0.000 C 
ATOM      2  C   UNL     1      43.953   4.953  11.298  0.00  0.00    +0.000 C 
ENDROOT
BRANCH   2   3
ATOM      3  N   UNL     1      44.097   3.551  10.892  0.00  0.00    +0.000 N 
ATOM      4  C   UNL     1      44.858   3.305   9.740  0.00  0.00    +0.000 A 
ATOM      5  C   UNL     1      45.040   1.983   9.340  0.00  0.00    +0.000 A 
ATOM      6  C   UNL     1      45.844   1.698   8.233  0.00  0.00    +0.000 A 
ATOM      7  C   UNL     1      46.455   2.739   7.534  0.00  0.00    +0.000 A 
ATOM      8  C   UNL     1      46.223   4.022   8.000  0.00  0.00    +0.000 A 
ATOM      9  N   UNL     1      45.451   4.318   9.079  0.00  0.00    +0.000 NA
ATOM     10  H   UNL     1      43.205   3.067  10.824  0.00  0.00    +0.000 HD
BRANCH   7  11
ATOM     11  C   UNL     1      47.315   2.425   6.367  0.00  0.00    +0.000 C 
ATOM     12  N   UNL     1      47.227   3.203   5.246  0.00  0.00    +0.000 N 
ATOM     13  O   UNL     1      48.095   1.482   6.393  0.00  0.00    +0.000 OA
ATOM     14  H   UNL     1      46.604   3.983   5.106  0.00  0.00    +0.000 HD
ATOM     15  H   UNL     1      47.831   2.947   4.473  0.00  0.00    +0.000 HD
ENDBRANCH   7  11
ENDBRANCH   2   3
BRANCH   2  16
ATOM     16  C   UNL     1      44.651   5.167  12.653  0.00  0.00    +0.000 C 
BRANCH  16  17
ATOM     17  C   UNL     1      46.152   5.444  12.517  0.00  0.00    +0.000 C 
BRANCH  17  18
ATOM     18  C   UNL     1      46.418   6.921  12.347  0.00  0.00    +0.000 A 
ATOM     19  C   UNL     1      47.711   7.399  12.103  0.00  0.00    +0.000 A 
ATOM     20  C   UNL     1      47.931   8.769  11.984  0.00  0.00    +0.000 A 
ATOM     21  F   UNL     1      49.173   9.214  11.758  0.00  0.00    +0.000 F 
ATOM     22  C   UNL     1      46.887   9.680  12.097  0.00  0.00    +0.000 A 
ATOM     23  C   UNL     1      45.595   9.214  12.326  0.00  0.00    +0.000 A 
ATOM     24  C   UNL     1      45.366   7.843  12.472  0.00  0.00    +0.000 A 
BRANCH  23  25
ATOM     25  O   UNL     1      44.610  10.169  12.418  0.00  0.00    +0.000 OA
BRANCH  25  26
ATOM     26  C   UNL     1      44.061  10.688  11.182  0.00  0.00    +0.000 C 
ATOM     27  C   UNL     1      43.045  11.849  11.286  0.00  0.00    +0.000 C 
ATOM     28  N   UNL     1      42.103  11.120  10.415  0.00  0.00    +0.000 NA
ATOM     29  C   UNL     1      42.179  11.625   9.045  0.00  0.00    +0.000 C 
ATOM     30  C   UNL     1      42.897   9.884  10.568  0.00  0.00    +0.000 C 
ENDBRANCH  25  26
ENDBRANCH  23  25
ENDBRANCH  17  18
ENDBRANCH  16  17
ENDBRANCH   2  16
TORSDOF 7
ENDMDL
MODEL 3
REMARK VINA RESULT:    -7.492      3.051      3.852
REMARK INTER + INTRA:         -10.912
REMARK INTER:                 -10.045
REMARK INTRA:                  -0.867
REMARK UNBOUND:                -0.353
REMARK  Name = 
REMARK  9 active torsions:
REMARK  status: ('A' for Active; 'I' for Inactive)
REMARK    1  A    between atoms: C_1  and  C_2
REMARK    2  A    between atoms: C_2  and  C_3
REMARK    3  A    between atoms: C_2  and  N_18
REMARK    4  A    between atoms: C_3  and  C_4
REMARK    5  A    between atoms: C_4  and  C_5
REMARK    6  A    between atoms: C_10  and  O_11
REMARK    7  A    between atoms: O_11  and  C_12
REMARK    8  A    between atoms: N_14  and  C_15
REMARK    9  A    between atoms: C_22  and  C_23
REMARK                            x       y       z     vdW  Elec       q    Type
REMARK                         _______ _______ _______ _____ _____    ______ ____
ROOT
ATOM      1  C   UNL     1      42.586   5.384  11.430  0.00  0.00    +0.000 C 
ATOM      2  C   UNL     1      44.032   5.056  11.044  0.00  0.00    +0.000 C 
ENDROOT
BRANCH   2   3
ATOM      3  N   UNL     1      44.146   3.643  10.668  0.00  0.00    +0.000 N 
ATOM      4  C   UNL     1      44.932   3.352   9.543  0.00  0.00    +0.000 A 
ATOM      5  C   UNL     1      45.086   2.018   9.174  0.00  0.00    +0.000 A 
ATOM      6  C   UNL     1      45.912   1.688   8.096  0.00  0.00    +0.000 A 
ATOM      7  C   UNL     1      46.574   2.696   7.396  0.00  0.00    +0.000 A 
ATOM      8  C   UNL     1      46.368   3.994   7.832  0.00  0.00    +0.000 A 
ATOM      9  N   UNL     1      45.574   4.335   8.882  0.00  0.00    +0.000 NA
ATOM     10  H   UNL     1      43.242   3.184  10.583  0.00  0.00    +0.000 HD
BRANCH   7  11
ATOM     11  C   UNL     1      47.457   2.335   6.261  0.00  0.00    +0.000 C 
ATOM     12  N   UNL     1      47.538   3.175   5.185  0.00  0.00    +0.000 N 
ATOM     13  O   UNL     1      48.108   1.298   6.273  0.00  0.00    +0.000 OA
ATOM     14  H   UNL     1      47.029   4.036   5.059  0.00  0.00    +0.000 HD
ATOM     15  H   UNL     1      48.151   2.884   4.432  0.00  0.00    +0.000 HD
ENDBRANCH   7  11
ENDBRANCH   2   3
BRANCH   2  16
ATOM     16  C   UNL     1      44.956   5.342  12.241  0.00  0.00    +0.000 C 
BRANCH  16  17
ATOM     17  C   UNL     1      44.791   6.760  12.799  0.00  0.00    +0.000 C 
BRANCH  17  18
ATOM     18  C   UNL     1      46.002   7.609  12.490  0.00  0.00    +0.000 A 
ATOM     19  C   UNL     1      45.887   8.991  12.306  0.00  0.00    +0.000 A 
ATOM     20  C   UNL     1      47.015   9.743  11.989  0.00  0.00    +0.000 A 
ATOM     21  F   UNL     1      46.892  11.064  11.808  0.00  0.00    +0.000 F 
ATOM     22  C   UNL     1      48.265   9.149  11.857  0.00  0.00    +0.000 A 
ATOM     23  C   UNL     1      48.393   7.775  12.052  0.00  0.00    +0.000 A 
ATOM     24  C   UNL     1      47.263   7.007  12.346  0.00  0.00    +0.000 A 
BRANCH  23  25
ATOM     25  O   UNL     1      49.658   7.255  11.914  0.00  0.00    +0.000 OA
BRANCH  25  26
ATOM     26  C   UNL     1      50.675   8.109  11.333  0.00  0.00    +0.000 C 
ATOM     27  C   UNL     1      51.696   7.451  10.376  0.00  0.00    +0.000 C 
ATOM     28  N   UNL     1      52.811   8.057  11.127  0.00  0.00    +0.000 NA
ATOM     29  C   UNL     1      53.299   9.252  10.442  0.00  0.00    +0.000 C 
ATOM     30  C   UNL     1      51.894   8.415  12.228  0.00  0.00    +0.000 C 
ENDBRANCH  25  26
ENDBRANCH  23  25
ENDBRANCH  17  18
ENDBRANCH  16  17
ENDBRANCH   2  16
TORSDOF 7
ENDMDL
MODEL 4
REMARK VINA RESULT:    -7.481      2.507      3.801
REMARK INTER + INTRA:         -10.896
REMARK INTER:                 -10.004
REMARK INTRA:                  -0.892
REMARK UNBOUND:                -0.353
REMARK  Name = 
REMARK  9 active torsions:
REMARK  status: ('A' for Active; 'I' for Inactive)
REMARK    1  A    between atoms: C_1  and  C_2
REMARK    2  A    between atoms: C_2  and  C_3
REMARK    3  A    between atoms: C_2  and  N_18
REMARK    4  A    between atoms: C_3  and  C_4
REMARK    5  A    between atoms: C_4  and  C_5
REMARK    6  A    between atoms: C_10  and  O_11
REMARK    7  A    between atoms: O_11  and  C_12
REMARK    8  A    between atoms: N_14  and  C_15
REMARK    9  A    between atoms: C_22  and  C_23
REMARK                            x       y       z     vdW  Elec       q    Type
REMARK                         _______ _______ _______ _____ _____    ______ ____
ROOT
ATOM      1  C   UNL     1      42.779   5.915  11.346  0.00  0.00    +0.000 C 
ATOM      2  C   UNL     1      44.211   5.380  11.438  0.00  0.00    +0.000 C 
ENDROOT
BRANCH   2   3
ATOM      3  N   UNL     1      44.256   3.980  11.003  0.00  0.00    +0.000 N 
ATOM      4  C   UNL     1      44.942   3.712   9.810  0.00  0.00    +0.000 A 
ATOM      5  C   UNL     1      45.029   2.390   9.381  0.00  0.00    +0.000 A 
ATOM      6  C   UNL     1      45.757   2.081   8.229  0.00  0.00    +0.000 A 
ATOM      7  C   UNL     1      46.389   3.099   7.516  0.00  0.00    +0.000 A 
ATOM      8  C   UNL     1      46.254   4.384   8.013  0.00  0.00    +0.000 A 
ATOM      9  N   UNL     1      45.557   4.703   9.134  0.00  0.00    +0.000 NA
ATOM     10  H   UNL     1      43.336   3.547  10.974  0.00  0.00    +0.000 HD
BRANCH   7  11
ATOM     11  C   UNL     1      47.170   2.760   6.301  0.00  0.00    +0.000 C 
ATOM     12  N   UNL     1      48.506   2.495   6.418  0.00  0.00    +0.000 N 
ATOM     13  O   UNL     1      46.637   2.719   5.199  0.00  0.00    +0.000 OA
ATOM     14  H   UNL     1      49.050   2.527   7.267  0.00  0.00    +0.000 HD
ATOM     15  H   UNL     1      48.998   2.273   5.561  0.00  0.00    +0.000 HD
ENDBRANCH   7  11
ENDBRANCH   2   3
BRANCH   2  16
ATOM     16  C   UNL     1      44.698   5.478  12.895  0.00  0.00    +0.000 C 
BRANCH  16  17
ATOM     17  C   UNL     1      45.751   4.422  13.247  0.00  0.00    +0.000 C 
BRANCH  17  18
ATOM     18  C   UNL     1      46.827   5.002  14.136  0.00  0.00    +0.000 A 
ATOM     19  C   UNL     1      47.084   4.464  15.402  0.00  0.00    +0.000 A 
ATOM     20  C   UNL     1      48.058   5.040  16.213  0.00  0.00    +0.000 A 
ATOM     21  F   UNL     1      48.292   4.522  17.425  0.00  0.00    +0.000 F 
ATOM     22  C   UNL     1      48.792   6.142  15.787  0.00  0.00    +0.000 A 
ATOM     23  C   UNL     1      48.552   6.677  14.524  0.00  0.00    +0.000 A 
ATOM     24  C   UNL     1      47.560   6.122  13.711  0.00  0.00    +0.000 A 
BRANCH  23  25
ATOM     25  O   UNL     1      49.318   7.760  14.164  0.00  0.00    +0.000 OA
BRANCH  25  26
ATOM     26  C   UNL     1      48.877   8.549  13.032  0.00  0.00    +0.000 C 
ATOM     27  C   UNL     1      49.963   9.252  12.186  0.00  0.00    +0.000 C 
ATOM     28  N   UNL     1      49.235  10.530  12.286  0.00  0.00    +0.000 NA
ATOM     29  C   UNL     1      48.464  10.777  11.069  0.00  0.00    +0.000 C 
ATOM     30  C   UNL     1      48.376   9.972  13.351  0.00  0.00    +0.000 C 
ENDBRANCH  25  26
ENDBRANCH  23  25
ENDBRANCH  17  18
ENDBRANCH  16  17
ENDBRANCH   2  16
TORSDOF 7
ENDMDL
MODEL 5
REMARK VINA RESULT:    -7.067      2.065      2.458
REMARK INTER + INTRA:         -10.312
REMARK INTER:                 -10.366
REMARK INTRA:                   0.053
REMARK UNBOUND:                -0.353
REMARK  Name = 
REMARK  9 active torsions:
REMARK  status: ('A' for Active; 'I' for Inactive)
REMARK    1  A    between atoms: C_1  and  C_2
REMARK    2  A    between atoms: C_2  and  C_3
REMARK    3  A    between atoms: C_2  and  N_18
REMARK    4  A    between atoms: C_3  and  C_4
REMARK    5  A    between atoms: C_4  and  C_5
REMARK    6  A    between atoms: C_10  and  O_11
REMARK    7  A    between atoms: O_11  and  C_12
REMARK    8  A    between atoms: N_14  and  C_15
REMARK    9  A    between atoms: C_22  and  C_23
REMARK                            x       y       z     vdW  Elec       q    Type
REMARK                         _______ _______ _______ _____ _____    ______ ____
ROOT
ATOM      1  C   UNL     1      42.483   5.351  11.888  0.00  0.00    +0.000 C 
ATOM      2  C   UNL     1      43.390   5.146  10.671  0.00  0.00    +0.000 C 
ENDROOT
BRANCH   2   3
ATOM      3  N   UNL     1      43.755   3.731  10.546  0.00  0.00    +0.000 N 
ATOM      4  C   UNL     1      44.626   3.395   9.499  0.00  0.00    +0.000 A 
ATOM      5  C   UNL     1      45.016   2.064   9.367  0.00  0.00    +0.000 A 
ATOM      6  C   UNL     1      45.930   1.706   8.372  0.00  0.00    +0.000 A 
ATOM      7  C   UNL     1      46.442   2.681   7.518  0.00  0.00    +0.000 A 
ATOM      8  C   UNL     1      46.003   3.978   7.720  0.00  0.00    +0.000 A 
ATOM      9  N   UNL     1      45.121   4.348   8.685  0.00  0.00    +0.000 NA
ATOM     10  H   UNL     1      42.946   3.115  10.530  0.00  0.00    +0.000 HD
BRANCH   7  11
ATOM     11  C   UNL     1      47.420   2.292   6.473  0.00  0.00    +0.000 C 
ATOM     12  N   UNL     1      47.492   3.024   5.320  0.00  0.00    +0.000 N 
ATOM     13  O   UNL     1      48.157   1.326   6.626  0.00  0.00    +0.000 OA
ATOM     14  H   UNL     1      46.917   3.817   5.078  0.00  0.00    +0.000 HD
ATOM     15  H   UNL     1      48.171   2.718   4.634  0.00  0.00    +0.000 HD
ENDBRANCH   7  11
ENDBRANCH   2   3
BRANCH   2  16
ATOM     16  C   UNL     1      44.667   5.989  10.840  0.00  0.00    +0.000 C 
BRANCH  16  17
ATOM     17  C   UNL     1      44.704   6.761  12.164  0.00  0.00    +0.000 C 
BRANCH  17  18
ATOM     18  C   UNL     1      45.931   6.401  12.968  0.00  0.00    +0.000 A 
ATOM     19  C   UNL     1      45.981   5.223  13.721  0.00  0.00    +0.000 A 
ATOM     20  C   UNL     1      47.113   4.934  14.480  0.00  0.00    +0.000 A 
ATOM     21  F   UNL     1      47.147   3.807  15.201  0.00  0.00    +0.000 F 
ATOM     22  C   UNL     1      48.205   5.793  14.501  0.00  0.00    +0.000 A 
ATOM     23  C   UNL     1      48.171   6.963  13.745  0.00  0.00    +0.000 A 
ATOM     24  C   UNL     1      47.031   7.274  12.999  0.00  0.00    +0.000 A 
BRANCH  23  25
ATOM     25  O   UNL     1      49.288   7.762  13.806  0.00  0.00    +0.000 OA
BRANCH  25  26
ATOM     26  C   UNL     1      49.285   8.846  14.767  0.00  0.00    +0.000 C 
ATOM     27  C   UNL     1      50.081   8.640  16.076  0.00  0.00    +0.000 C 
ATOM     28  N   UNL     1      48.910   9.055  16.870  0.00  0.00    +0.000 NA
ATOM     29  C   UNL     1      49.042  10.449  17.289  0.00  0.00    +0.000 C 
ATOM     30  C   UNL     1      48.045   8.940  15.679  0.00  0.00    +0.000 C 
ENDBRANCH  25  26
ENDBRANCH  23  25
ENDBRANCH  17  18
ENDBRANCH  16  17
ENDBRANCH   2  16
TORSDOF 7
ENDMDL
MODEL 6
REMARK VINA RESULT:    -7.038      1.950      2.267
REMARK INTER + INTRA:         -10.271
REMARK INTER:                  -9.672
REMARK INTRA:                  -0.599
REMARK UNBOUND:                -0.353
REMARK  Name = 
REMARK  9 active torsions:
REMARK  status: ('A' for Active; 'I' for Inactive)
REMARK    1  A    between atoms: C_1  and  C_2
REMARK    2  A    between atoms: C_2  and  C_3
REMARK    3  A    between atoms: C_2  and  N_18
REMARK    4  A    between atoms: C_3  and  C_4
REMARK    5  A    between atoms: C_4  and  C_5
REMARK    6  A    between atoms: C_10  and  O_11
REMARK    7  A    between atoms: O_11  and  C_12
REMARK    8  A    between atoms: N_14  and  C_15
REMARK    9  A    between atoms: C_22  and  C_23
REMARK                            x       y       z     vdW  Elec       q    Type
REMARK                         _______ _______ _______ _____ _____    ______ ____
ROOT
ATOM      1  C   UNL     1      42.777   5.367  12.034  0.00  0.00    +0.000 C 
ATOM      2  C   UNL     1      44.046   5.177  11.196  0.00  0.00    +0.000 C 
ENDROOT
BRANCH   2   3
ATOM      3  N   UNL     1      44.179   3.773  10.793  0.00  0.00    +0.000 N 
ATOM      4  C   UNL     1      44.926   3.520   9.633  0.00  0.00    +0.000 A 
ATOM      5  C   UNL     1      45.097   2.196   9.236  0.00  0.00    +0.000 A 
ATOM      6  C   UNL     1      45.886   1.904   8.120  0.00  0.00    +0.000 A 
ATOM      7  C   UNL     1      46.495   2.939   7.412  0.00  0.00    +0.000 A 
ATOM      8  C   UNL     1      46.275   4.224   7.877  0.00  0.00    +0.000 A 
ATOM      9  N   UNL     1      45.517   4.528   8.963  0.00  0.00    +0.000 NA
ATOM     10  H   UNL     1      43.283   3.293  10.736  0.00  0.00    +0.000 HD
BRANCH   7  11
ATOM     11  C   UNL     1      47.341   2.618   6.237  0.00  0.00    +0.000 C 
ATOM     12  N   UNL     1      48.590   2.099   6.436  0.00  0.00    +0.000 N 
ATOM     13  O   UNL     1      46.939   2.815   5.098  0.00  0.00    +0.000 OA
ATOM     14  H   UNL     1      49.031   1.923   7.326  0.00  0.00    +0.000 HD
ATOM     15  H   UNL     1      49.133   1.900   5.603  0.00  0.00    +0.000 HD
ENDBRANCH   7  11
ENDBRANCH   2   3
BRANCH   2  16
ATOM     16  C   UNL     1      45.273   5.586  12.031  0.00  0.00    +0.000 C 
BRANCH  16  17
ATOM     17  C   UNL     1      45.590   7.083  11.936  0.00  0.00    +0.000 C 
BRANCH  17  18
ATOM     18  C   UNL     1      47.012   7.365  12.363  0.00  0.00    +0.000 A 
ATOM     19  C   UNL     1      48.065   7.319  11.443  0.00  0.00    +0.000 A 
ATOM     20  C   UNL     1      49.369   7.551  11.873  0.00  0.00    +0.000 A 
ATOM     21  F   UNL     1      50.370   7.498  10.985  0.00  0.00    +0.000 F 
ATOM     22  C   UNL     1      49.650   7.836  13.204  0.00  0.00    +0.000 A 
ATOM     23  C   UNL     1      48.607   7.897  14.125  0.00  0.00    +0.000 A 
ATOM     24  C   UNL     1      47.298   7.642  13.710  0.00  0.00    +0.000 A 
BRANCH  23  25
ATOM     25  O   UNL     1      48.956   8.192  15.422  0.00  0.00    +0.000 OA
BRANCH  25  26
ATOM     26  C   UNL     1      48.450   9.425  15.989  0.00  0.00    +0.000 C 
ATOM     27  C   UNL     1      49.484  10.431  16.546  0.00  0.00    +0.000 C 
ATOM     28  N   UNL     1      48.732  10.526  17.811  0.00  0.00    +0.000 NA
ATOM     29  C   UNL     1      47.906  11.732  17.826  0.00  0.00    +0.000 C 
ATOM     30  C   UNL     1      47.932   9.341  17.440  0.00  0.00    +0.000 C 
ENDBRANCH  25  26
ENDBRANCH  23  25
ENDBRANCH  17  18
ENDBRANCH  16  17
ENDBRANCH   2  16
TORSDOF 7
ENDMDL
MODEL 7
REMARK VINA RESULT:    -6.747      2.997      8.092
REMARK INTER + INTRA:          -9.861
REMARK INTER:                  -8.825
REMARK INTRA:                  -1.035
REMARK UNBOUND:                -0.353
REMARK  Name = 
REMARK  9 active torsions:
REMARK  status: ('A' for Active; 'I' for Inactive)
REMARK    1  A    between atoms: C_1  and  C_2
REMARK    2  A    between atoms: C_2  and  C_3
REMARK    3  A    between atoms: C_2  and  N_18
REMARK    4  A    between atoms: C_3  and  C_4
REMARK    5  A    between atoms: C_4  and  C_5
REMARK    6  A    between atoms: C_10  and  O_11
REMARK    7  A    between atoms: O_11  and  C_12
REMARK    8  A    between atoms: N_14  and  C_15
REMARK    9  A    between atoms: C_22  and  C_23
REMARK                            x       y       z     vdW  Elec       q    Type
REMARK                         _______ _______ _______ _____ _____    ______ ____
ROOT
ATOM      1  C   UNL     1      50.852   9.655  14.280  0.00  0.00    +0.000 C 
ATOM      2  C   UNL     1      50.164   8.290  14.385  0.00  0.00    +0.000 C 
ENDROOT
BRANCH   2   3
ATOM      3  N   UNL     1      50.813   7.476  15.417  0.00  0.00    +0.000 N 
ATOM      4  C   UNL     1      50.022   6.497  16.037  0.00  0.00    +0.000 A 
ATOM      5  C   UNL     1      50.614   5.685  17.002  0.00  0.00    +0.000 A 
ATOM      6  C   UNL     1      49.871   4.660  17.594  0.00  0.00    +0.000 A 
ATOM      7  C   UNL     1      48.545   4.458  17.217  0.00  0.00    +0.000 A 
ATOM      8  C   UNL     1      48.037   5.308  16.249  0.00  0.00    +0.000 A 
ATOM      9  N   UNL     1      48.744   6.306  15.657  0.00  0.00    +0.000 NA
ATOM     10  H   UNL     1      51.282   8.036  16.125  0.00  0.00    +0.000 HD
BRANCH   7  11
ATOM     11  C   UNL     1      47.769   3.360  17.843  0.00  0.00    +0.000 C 
ATOM     12  N   UNL     1      48.246   2.769  18.980  0.00  0.00    +0.000 N 
ATOM     13  O   UNL     1      46.714   2.974  17.355  0.00  0.00    +0.000 OA
ATOM     14  H   UNL     1      49.112   2.988  19.450  0.00  0.00    +0.000 HD
ATOM     15  H   UNL     1      47.684   2.021  19.369  0.00  0.00    +0.000 HD
ENDBRANCH   7  11
ENDBRANCH   2   3
BRANCH   2  16
ATOM     16  C   UNL     1      50.259   7.567  13.029  0.00  0.00    +0.000 C 
BRANCH  16  17
ATOM     17  C   UNL     1      49.489   8.283  11.914  0.00  0.00    +0.000 C 
BRANCH  17  18
ATOM     18  C   UNL     1      47.997   8.161  12.118  0.00  0.00    +0.000 A 
ATOM     19  C   UNL     1      47.181   9.296  12.176  0.00  0.00    +0.000 A 
ATOM     20  C   UNL     1      45.814   9.154  12.399  0.00  0.00    +0.000 A 
ATOM     21  F   UNL     1      45.043  10.247  12.459  0.00  0.00    +0.000 F 
ATOM     22  C   UNL     1      45.235   7.900  12.560  0.00  0.00    +0.000 A 
ATOM     23  C   UNL     1      46.037   6.763  12.492  0.00  0.00    +0.000 A 
ATOM     24  C   UNL     1      47.414   6.895  12.293  0.00  0.00    +0.000 A 
BRANCH  23  25
ATOM     25  O   UNL     1      45.399   5.556  12.652  0.00  0.00    +0.000 OA
BRANCH  25  26
ATOM     26  C   UNL     1      45.321   4.680  11.500  0.00  0.00    +0.000 C 
ATOM     27  C   UNL     1      44.007   4.691  10.685  0.00  0.00    +0.000 C 
ATOM     28  N   UNL     1      43.936   3.219  10.753  0.00  0.00    +0.000 NA
ATOM     29  C   UNL     1      44.424   2.625   9.510  0.00  0.00    +0.000 C 
ATOM     30  C   UNL     1      44.984   3.204  11.794  0.00  0.00    +0.000 C 
ENDBRANCH  25  26
ENDBRANCH  23  25
ENDBRANCH  17  18
ENDBRANCH  16  17
ENDBRANCH   2  16
TORSDOF 7
ENDMDL
MODEL 8
REMARK VINA RESULT:    -6.554      3.425      9.124
REMARK INTER + INTRA:          -9.590
REMARK INTER:                  -8.909
REMARK INTRA:                  -0.681
REMARK UNBOUND:                -0.353
REMARK  Name = 
REMARK  9 active torsions:
REMARK  status: ('A' for Active; 'I' for Inactive)
REMARK    1  A    between atoms: C_1  and  C_2
REMARK    2  A    between atoms: C_2  and  C_3
REMARK    3  A    between atoms: C_2  and  N_18
REMARK    4  A    between atoms: C_3  and  C_4
REMARK    5  A    between atoms: C_4  and  C_5
REMARK    6  A    between atoms: C_10  and  O_11
REMARK    7  A    between atoms: O_11  and  C_12
REMARK    8  A    between atoms: N_14  and  C_15
REMARK    9  A    between atoms: C_22  and  C_23
REMARK                            x       y       z     vdW  Elec       q    Type
REMARK                         _______ _______ _______ _____ _____    ______ ____
ROOT
ATOM      1  C   UNL     1      47.249   5.079  18.367  0.00  0.00    +0.000 C 
ATOM      2  C   UNL     1      48.184   4.439  17.336  0.00  0.00    +0.000 C 
ENDROOT
BRANCH   2   3
ATOM      3  N   UNL     1      49.580   4.754  17.657  0.00  0.00    +0.000 N 
ATOM      4  C   UNL     1      50.476   3.675  17.691  0.00  0.00    +0.000 A 
ATOM      5  C   UNL     1      51.816   3.939  17.966  0.00  0.00    +0.000 A 
ATOM      6  C   UNL     1      52.746   2.896  17.947  0.00  0.00    +0.000 A 
ATOM      7  C   UNL     1      52.326   1.599  17.657  0.00  0.00    +0.000 A 
ATOM      8  C   UNL     1      50.978   1.425  17.393  0.00  0.00    +0.000 A 
ATOM      9  N   UNL     1      50.060   2.427  17.400  0.00  0.00    +0.000 NA
ATOM     10  H   UNL     1      49.674   5.305  18.507  0.00  0.00    +0.000 HD
BRANCH   7  11
ATOM     11  C   UNL     1      53.323   0.501  17.628  0.00  0.00    +0.000 C 
ATOM     12  N   UNL     1      53.119  -0.606  18.404  0.00  0.00    +0.000 N 
ATOM     13  O   UNL     1      54.323   0.575  16.926  0.00  0.00    +0.000 OA
ATOM     14  H   UNL     1      52.349  -0.759  19.037  0.00  0.00    +0.000 HD
ATOM     15  H   UNL     1      53.829  -1.327  18.354  0.00  0.00    +0.000 HD
ENDBRANCH   7  11
ENDBRANCH   2   3
BRANCH   2  16
ATOM     16  C   UNL     1      47.847   4.985  15.936  0.00  0.00    +0.000 C 
BRANCH  16  17
ATOM     17  C   UNL     1      47.297   3.911  14.991  0.00  0.00    +0.000 C 
BRANCH  17  18
ATOM     18  C   UNL     1      46.498   4.532  13.869  0.00  0.00    +0.000 A 
ATOM     19  C   UNL     1      46.303   5.915  13.802  0.00  0.00    +0.000 A 
ATOM     20  C   UNL     1      45.533   6.456  12.775  0.00  0.00    +0.000 A 
ATOM     21  F   UNL     1      45.348   7.781  12.724  0.00  0.00    +0.000 F 
ATOM     22  C   UNL     1      44.955   5.647  11.804  0.00  0.00    +0.000 A 
ATOM     23  C   UNL     1      45.154   4.269  11.854  0.00  0.00    +0.000 A 
ATOM     24  C   UNL     1      45.904   3.713  12.894  0.00  0.00    +0.000 A 
BRANCH  23  25
ATOM     25  O   UNL     1      44.561   3.531  10.858  0.00  0.00    +0.000 OA
BRANCH  25  26
ATOM     26  C   UNL     1      45.348   3.246   9.675  0.00  0.00    +0.000 C 
ATOM     27  C   UNL     1      45.246   4.241   8.496  0.00  0.00    +0.000 C 
ATOM     28  N   UNL     1      44.984   3.130   7.562  0.00  0.00    +0.000 NA
ATOM     29  C   UNL     1      46.204   2.769   6.841  0.00  0.00    +0.000 C 
ATOM     30  C   UNL     1      44.750   2.214   8.696  0.00  0.00    +0.000 C 
ENDBRANCH  25  26
ENDBRANCH  23  25
ENDBRANCH  17  18
ENDBRANCH  16  17
ENDBRANCH   2  16
TORSDOF 7
ENDMDL
MODEL 9
REMARK VINA RESULT:    -6.406      3.713      5.521
REMARK INTER + INTRA:          -9.381
REMARK INTER:                  -8.331
REMARK INTRA:                  -1.050
REMARK UNBOUND:                -0.353
REMARK  Name = 
REMARK  9 active torsions:
REMARK  status: ('A' for Active; 'I' for Inactive)
REMARK    1  A    between atoms: C_1  and  C_2
REMARK    2  A    between atoms: C_2  and  C_3
REMARK    3  A    between atoms: C_2  and  N_18
REMARK    4  A    between atoms: C_3  and  C_4
REMARK    5  A    between atoms: C_4  and  C_5
REMARK    6  A    between atoms: C_10  and  O_11
REMARK    7  A    between atoms: O_11  and  C_12
REMARK    8  A    between atoms: N_14  and  C_15
REMARK    9  A    between atoms: C_22  and  C_23
REMARK                            x       y       z     vdW  Elec       q    Type
REMARK                         _______ _______ _______ _____ _____    ______ ____
ROOT
ATOM      1  C   UNL     1      49.996   7.919  13.038  0.00  0.00    +0.000 C 
ATOM      2  C   UNL     1      48.512   7.666  13.323  0.00  0.00    +0.000 C 
ENDROOT
BRANCH   2   3
ATOM      3  N   UNL     1      47.778   7.497  12.065  0.00  0.00    +0.000 N 
ATOM      4  C   UNL     1      46.869   6.430  12.005  0.00  0.00    +0.000 A 
ATOM      5  C   UNL     1      46.134   6.256  10.835  0.00  0.00    +0.000 A 
ATOM      6  C   UNL     1      45.176   5.241  10.763  0.00  0.00    +0.000 A 
ATOM      7  C   UNL     1      44.966   4.408  11.861  0.00  0.00    +0.000 A 
ATOM      8  C   UNL     1      45.738   4.652  12.984  0.00  0.00    +0.000 A 
ATOM      9  N   UNL     1      46.669   5.638  13.076  0.00  0.00    +0.000 NA
ATOM     10  H   UNL     1      48.389   7.474  11.252  0.00  0.00    +0.000 HD
BRANCH   7  11
ATOM     11  C   UNL     1      43.939   3.341  11.780  0.00  0.00    +0.000 C 
ATOM     12  N   UNL     1      43.904   2.373  12.744  0.00  0.00    +0.000 N 
ATOM     13  O   UNL     1      43.130   3.313  10.861  0.00  0.00    +0.000 OA
ATOM     14  H   UNL     1      44.537   2.283  13.525  0.00  0.00    +0.000 HD
ATOM     15  H   UNL     1      43.189   1.662  12.644  0.00  0.00    +0.000 HD
ENDBRANCH   7  11
ENDBRANCH   2   3
BRANCH   2  16
ATOM     16  C   UNL     1      47.931   8.865  14.096  0.00  0.00    +0.000 C 
BRANCH  16  17
ATOM     17  C   UNL     1      48.899   9.427  15.143  0.00  0.00    +0.000 C 
BRANCH  17  18
ATOM     18  C   UNL     1      48.495   9.007  16.537  0.00  0.00    +0.000 A 
ATOM     19  C   UNL     1      47.888   9.911  17.417  0.00  0.00    +0.000 A 
ATOM     20  C   UNL     1      47.556   9.504  18.706  0.00  0.00    +0.000 A 
ATOM     21  F   UNL     1      46.982  10.380  19.541  0.00  0.00    +0.000 F 
ATOM     22  C   UNL     1      47.811   8.209  19.143  0.00  0.00    +0.000 A 
ATOM     23  C   UNL     1      48.403   7.298  18.271  0.00  0.00    +0.000 A 
ATOM     24  C   UNL     1      48.762   7.702  16.982  0.00  0.00    +0.000 A 
BRANCH  23  25
ATOM     25  O   UNL     1      48.619   6.034  18.765  0.00  0.00    +0.000 OA
BRANCH  25  26
ATOM     26  C   UNL     1      48.789   4.959  17.808  0.00  0.00    +0.000 C 
ATOM     27  C   UNL     1      47.522   4.196  17.360  0.00  0.00    +0.000 C 
ATOM     28  N   UNL     1      48.177   2.907  17.653  0.00  0.00    +0.000 NA
ATOM     29  C   UNL     1      48.687   2.301  16.424  0.00  0.00    +0.000 C 
ATOM     30  C   UNL     1      49.253   3.606  18.384  0.00  0.00    +0.000 C 
ENDBRANCH  25  26
ENDBRANCH  23  25
ENDBRANCH  17  18
ENDBRANCH  16  17
ENDBRANCH   2  16
TORSDOF 7
ENDMDL
