MODEL 1
REMARK VINA RESULT:    -8.312      0.000      0.000
REMARK INTER + INTRA:         -12.265
REMARK INTER:                 -11.228
REMARK INTRA:                  -1.037
REMARK UNBOUND:                -1.037
REMARK  Name = 
REMARK  6 active torsions:
REMARK  status: ('A' for Active; 'I' for Inactive)
REMARK    1  A    between atoms: C_2  and  C_4
REMARK    2  A    between atoms: C_7  and  O_8
REMARK    3  A    between atoms: O_8  and  C_9
REMARK    4  A    between atoms: C_9  and  C_10
REMARK    5  A    between atoms: C_10  and  C_11
REMARK    6  A    between atoms: C_15  and  C_16
REMARK                            x       y       z     vdW  Elec       q    Type
REMARK                         _______ _______ _______ _____ _____    ______ ____
ROOT
ATOM      1  C   UNL     1      43.266   4.894  10.766  0.00  0.00    +0.000 C 
ENDROOT
BRANCH   1   2
ATOM      2  O   UNL     1      43.555   3.535  10.425  0.00  0.00    +0.000 OA
BRANCH   2   6
ATOM      3  C   UNL     1      46.455   2.664   7.549  0.00  0.00    +0.000 A 
ATOM      4  C   UNL     1      46.042   3.992   7.698  0.00  0.00    +0.000 A 
ATOM      5  C   UNL     1      45.071   4.325   8.651  0.00  0.00    +0.000 A 
ATOM      6  C   UNL     1      44.504   3.335   9.456  0.00  0.00    +0.000 A 
ATOM      7  C   UNL     1      44.908   2.007   9.294  0.00  0.00    +0.000 A 
ATOM      8  C   UNL     1      45.874   1.668   8.339  0.00  0.00    +0.000 A 
BRANCH   3  10
ATOM      9  N   UNL     1      47.537   3.000   5.393  0.00  0.00    +0.000 N 
ATOM     10  C   UNL     1      47.485   2.275   6.551  0.00  0.00    +0.000 C 
ATOM     11  O   UNL     1      48.285   1.373   6.767  0.00  0.00    +0.000 OA
ATOM     12  H   UNL     1      48.314   2.799   4.775  0.00  0.00    +0.000 HD
ATOM     13  H   UNL     1      47.083   3.896   5.296  0.00  0.00    +0.000 HD
ENDBRANCH   3  10
ENDBRANCH   2   6
ENDBRANCH   1   2
BRANCH   1  14
ATOM     14  C   UNL     1      43.547   5.098  12.255  0.00  0.00    +0.000 C 
BRANCH  14  15
ATOM     15  C   UNL     1      44.993   5.448  12.506  0.00  0.00    +0.000 A 
ATOM     16  C   UNL     1      45.682   6.278  11.617  0.00  0.00    +0.000 A 
ATOM     17  C   UNL     1      47.009   6.616  11.863  0.00  0.00    +0.000 A 
ATOM     18  C   UNL     1      47.652   6.143  13.009  0.00  0.00    +0.000 A 
ATOM     19  C   UNL     1      46.983   5.341  13.951  0.00  0.00    +0.000 A 
ATOM     20  C   UNL     1      45.650   4.989  13.662  0.00  0.00    +0.000 A 
BRANCH  19  21
ATOM     21  C   UNL     1      47.636   4.932  15.219  0.00  0.00    +0.000 A 
ATOM     22  C   UNL     1      48.472   5.816  15.920  0.00  0.00    +0.000 A 
ATOM     23  C   UNL     1      49.027   5.425  17.129  0.00  0.00    +0.000 A 
ATOM     24  N   UNL     1      48.812   4.223  17.699  0.00  0.00    +0.000 NA
ATOM     25  C   UNL     1      48.014   3.376  17.021  0.00  0.00    +0.000 A 
ATOM     26  C   UNL     1      47.423   3.674  15.800  0.00  0.00    +0.000 A 
ENDBRANCH  19  21
ENDBRANCH  14  15
ENDBRANCH   1  14
TORSDOF 6
ENDMDL
MODEL 2
REMARK VINA RESULT:    -8.298      2.588      4.030
REMARK INTER + INTRA:         -12.245
REMARK INTER:                 -11.186
REMARK INTRA:                  -1.060
REMARK UNBOUND:                -1.037
REMARK  Name = 
REMARK  6 active torsions:
REMARK  status: ('A' for Active; 'I' for Inactive)
REMARK    1  A    between atoms: C_2  and  C_4
REMARK    2  A    between atoms: C_7  and  O_8
REMARK    3  A    between atoms: O_8  and  C_9
REMARK    4  A    between atoms: C_9  and  C_10
REMARK    5  A    between atoms: C_10  and  C_11
REMARK    6  A    between atoms: C_15  and  C_16
REMARK                            x       y       z     vdW  Elec       q    Type
REMARK                         _______ _______ _______ _____ _____    ______ ____
ROOT
ATOM      1  C   UNL     1      43.438   3.171  11.714  0.00  0.00    +0.000 C 
ENDROOT
BRANCH   1   2
ATOM      2  O   UNL     1      43.506   3.818  10.439  0.00  0.00    +0.000 OA
BRANCH   2   6
ATOM      3  C   UNL     1      46.354   2.588   7.644  0.00  0.00    +0.000 A 
ATOM      4  C   UNL     1      45.744   1.617   8.445  0.00  0.00    +0.000 A 
ATOM      5  C   UNL     1      44.784   1.990   9.395  0.00  0.00    +0.000 A 
ATOM      6  C   UNL     1      44.432   3.332   9.553  0.00  0.00    +0.000 A 
ATOM      7  C   UNL     1      45.055   4.300   8.762  0.00  0.00    +0.000 A 
ATOM      8  C   UNL     1      46.019   3.934   7.815  0.00  0.00    +0.000 A 
BRANCH   3  10
ATOM      9  N   UNL     1      47.439   3.013   5.505  0.00  0.00    +0.000 N 
ATOM     10  C   UNL     1      47.374   2.229   6.624  0.00  0.00    +0.000 C 
ATOM     11  O   UNL     1      48.154   1.301   6.791  0.00  0.00    +0.000 OA
ATOM     12  H   UNL     1      48.211   2.827   4.875  0.00  0.00    +0.000 HD
ATOM     13  H   UNL     1      47.005   3.922   5.456  0.00  0.00    +0.000 HD
ENDBRANCH   3  10
ENDBRANCH   2   6
ENDBRANCH   1   2
BRANCH   1  14
ATOM     14  C   UNL     1      43.374   4.240  12.805  0.00  0.00    +0.000 C 
BRANCH  14  15
ATOM     15  C   UNL     1      44.680   4.986  12.930  0.00  0.00    +0.000 A 
ATOM     16  C   UNL     1      45.857   4.299  13.239  0.00  0.00    +0.000 A 
ATOM     17  C   UNL     1      47.063   4.987  13.333  0.00  0.00    +0.000 A 
ATOM     18  C   UNL     1      47.105   6.364  13.098  0.00  0.00    +0.000 A 
ATOM     19  C   UNL     1      45.951   7.086  12.742  0.00  0.00    +0.000 A 
ATOM     20  C   UNL     1      44.739   6.370  12.684  0.00  0.00    +0.000 A 
BRANCH  19  21
ATOM     21  C   UNL     1      46.020   8.524  12.387  0.00  0.00    +0.000 A 
ATOM     22  C   UNL     1      47.245   9.211  12.385  0.00  0.00    +0.000 A 
ATOM     23  C   UNL     1      47.286  10.542  11.999  0.00  0.00    +0.000 A 
ATOM     24  N   UNL     1      46.204  11.244  11.611  0.00  0.00    +0.000 NA
ATOM     25  C   UNL     1      45.030  10.584  11.621  0.00  0.00    +0.000 A 
ATOM     26  C   UNL     1      44.888   9.256  12.001  0.00  0.00    +0.000 A 
ENDBRANCH  19  21
ENDBRANCH  14  15
ENDBRANCH   1  14
TORSDOF 6
ENDMDL
MODEL 3
REMARK VINA RESULT:    -7.899      2.443      3.651
REMARK INTER + INTRA:         -11.706
REMARK INTER:                 -10.818
REMARK INTRA:                  -0.888
REMARK UNBOUND:                -1.037
REMARK  Name = 
REMARK  6 active torsions:
REMARK  status: ('A' for Active; 'I' for Inactive)
REMARK    1  A    between atoms: C_2  and  C_4
REMARK    2  A    between atoms: C_7  and  O_8
REMARK    3  A    between atoms: O_8  and  C_9
REMARK    4  A    between atoms: C_9  and  C_10
REMARK    5  A    between atoms: C_10  and  C_11
REMARK    6  A    between atoms: C_15  and  C_16
REMARK                            x       y       z     vdW  Elec       q    Type
REMARK                         _______ _______ _______ _____ _____    ______ ____
ROOT
ATOM      1  C   UNL     1      43.898   3.987  11.560  0.00  0.00    +0.000 C 
ENDROOT
BRANCH   1   2
ATOM      2  O   UNL     1      43.492   3.696  10.218  0.00  0.00    +0.000 OA
BRANCH   2   6
ATOM      3  C   UNL     1      46.535   2.584   7.583  0.00  0.00    +0.000 A 
ATOM      4  C   UNL     1      46.144   3.927   7.621  0.00  0.00    +0.000 A 
ATOM      5  C   UNL     1      45.126   4.339   8.491  0.00  0.00    +0.000 A 
ATOM      6  C   UNL     1      44.492   3.415   9.323  0.00  0.00    +0.000 A 
ATOM      7  C   UNL     1      44.875   2.072   9.271  0.00  0.00    +0.000 A 
ATOM      8  C   UNL     1      45.887   1.654   8.400  0.00  0.00    +0.000 A 
BRANCH   3  10
ATOM      9  N   UNL     1      48.027   2.972   5.697  0.00  0.00    +0.000 N 
ATOM     10  C   UNL     1      47.612   2.110   6.676  0.00  0.00    +0.000 C 
ATOM     11  O   UNL     1      48.142   1.016   6.819  0.00  0.00    +0.000 OA
ATOM     12  H   UNL     1      48.836   2.681   5.162  0.00  0.00    +0.000 HD
ATOM     13  H   UNL     1      47.807   3.956   5.715  0.00  0.00    +0.000 HD
ENDBRANCH   3  10
ENDBRANCH   2   6
ENDBRANCH   1   2
BRANCH   1  14
ATOM     14  C   UNL     1      44.206   5.480  11.667  0.00  0.00    +0.000 C 
BRANCH  14  15
ATOM     15  C   UNL     1      45.515   5.729  12.378  0.00  0.00    +0.000 A 
ATOM     16  C   UNL     1      45.903   4.914  13.444  0.00  0.00    +0.000 A 
ATOM     17  C   UNL     1      47.119   5.132  14.084  0.00  0.00    +0.000 A 
ATOM     18  C   UNL     1      47.967   6.154  13.648  0.00  0.00    +0.000 A 
ATOM     19  C   UNL     1      47.635   6.968  12.550  0.00  0.00    +0.000 A 
ATOM     20  C   UNL     1      46.384   6.745  11.941  0.00  0.00    +0.000 A 
BRANCH  19  21
ATOM     21  C   UNL     1      48.585   7.978  12.023  0.00  0.00    +0.000 A 
ATOM     22  C   UNL     1      48.191   9.313  11.834  0.00  0.00    +0.000 A 
ATOM     23  C   UNL     1      49.115  10.246  11.389  0.00  0.00    +0.000 A 
ATOM     24  N   UNL     1      50.402   9.956  11.120  0.00  0.00    +0.000 NA
ATOM     25  C   UNL     1      50.775   8.674  11.295  0.00  0.00    +0.000 A 
ATOM     26  C   UNL     1      49.919   7.669  11.727  0.00  0.00    +0.000 A 
ENDBRANCH  19  21
ENDBRANCH  14  15
ENDBRANCH   1  14
TORSDOF 6
ENDMDL
MODEL 4
REMARK VINA RESULT:    -7.484      2.244      7.520
REMARK INTER + INTRA:         -11.146
REMARK INTER:                 -10.005
REMARK INTRA:                  -1.141
REMARK UNBOUND:                -1.037
REMARK  Name = 
REMARK  6 active torsions:
REMARK  status: ('A' for Active; 'I' for Inactive)
REMARK    1  A    between atoms: C_2  and  C_4
REMARK    2  A    between atoms: C_7  and  O_8
REMARK    3  A    between atoms: O_8  and  C_9
REMARK    4  A    between atoms: C_9  and  C_10
REMARK    5  A    between atoms: C_10  and  C_11
REMARK    6  A    between atoms: C_15  and  C_16
REMARK                            x       y       z     vdW  Elec       q    Type
REMARK                         _______ _______ _______ _____ _____    ______ ____
ROOT
ATOM      1  C   UNL     1      45.383   7.224  12.459  0.00  0.00    +0.000 C 
ENDROOT
BRANCH   1   2
ATOM      2  O   UNL     1      46.744   6.781  12.481  0.00  0.00    +0.000 OA
BRANCH   2   6
ATOM      3  C   UNL     1      47.710   4.094  15.528  0.00  0.00    +0.000 A 
ATOM      4  C   UNL     1      48.118   5.426  15.659  0.00  0.00    +0.000 A 
ATOM      5  C   UNL     1      47.814   6.358  14.658  0.00  0.00    +0.000 A 
ATOM      6  C   UNL     1      47.106   5.965  13.521  0.00  0.00    +0.000 A 
ATOM      7  C   UNL     1      46.714   4.631  13.386  0.00  0.00    +0.000 A 
ATOM      8  C   UNL     1      47.020   3.695  14.381  0.00  0.00    +0.000 A 
BRANCH   3  10
ATOM      9  N   UNL     1      47.227   3.083  17.691  0.00  0.00    +0.000 N 
ATOM     10  C   UNL     1      48.012   3.079  16.571  0.00  0.00    +0.000 C 
ATOM     11  O   UNL     1      48.896   2.245  16.422  0.00  0.00    +0.000 OA
ATOM     12  H   UNL     1      47.370   2.317  18.337  0.00  0.00    +0.000 HD
ATOM     13  H   UNL     1      46.344   3.569  17.730  0.00  0.00    +0.000 HD
ENDBRANCH   3  10
ENDBRANCH   2   6
ENDBRANCH   1   2
BRANCH   1  14
ATOM     14  C   UNL     1      44.811   6.983  11.063  0.00  0.00    +0.000 C 
BRANCH  14  15
ATOM     15  C   UNL     1      44.604   5.513  10.791  0.00  0.00    +0.000 A 
ATOM     16  C   UNL     1      43.645   4.792  11.508  0.00  0.00    +0.000 A 
ATOM     17  C   UNL     1      43.442   3.442  11.241  0.00  0.00    +0.000 A 
ATOM     18  C   UNL     1      44.182   2.807  10.240  0.00  0.00    +0.000 A 
ATOM     19  C   UNL     1      45.126   3.505   9.465  0.00  0.00    +0.000 A 
ATOM     20  C   UNL     1      45.332   4.864   9.778  0.00  0.00    +0.000 A 
BRANCH  19  21
ATOM     21  C   UNL     1      45.828   2.855   8.333  0.00  0.00    +0.000 A 
ATOM     22  C   UNL     1      46.192   3.587   7.191  0.00  0.00    +0.000 A 
ATOM     23  C   UNL     1      46.895   2.964   6.170  0.00  0.00    +0.000 A 
ATOM     24  N   UNL     1      47.267   1.670   6.198  0.00  0.00    +0.000 NA
ATOM     25  C   UNL     1      46.911   0.970   7.291  0.00  0.00    +0.000 A 
ATOM     26  C   UNL     1      46.199   1.504   8.358  0.00  0.00    +0.000 A 
ENDBRANCH  19  21
ENDBRANCH  14  15
ENDBRANCH   1  14
TORSDOF 6
ENDMDL
MODEL 5
REMARK VINA RESULT:    -7.451      2.955      4.158
REMARK INTER + INTRA:         -11.102
REMARK INTER:                 -10.079
REMARK INTRA:                  -1.023
REMARK UNBOUND:                -1.037
REMARK  Name = 
REMARK  6 active torsions:
REMARK  status: ('A' for Active; 'I' for Inactive)
REMARK    1  A    between atoms: C_2  and  C_4
REMARK    2  A    between atoms: C_7  and  O_8
REMARK    3  A    between atoms: O_8  and  C_9
REMARK    4  A    between atoms: C_9  and  C_10
REMARK    5  A    between atoms: C_10  and  C_11
REMARK    6  A    between atoms: C_15  and  C_16
REMARK                            x       y       z     vdW  Elec       q    Type
REMARK                         _______ _______ _______ _____ _____    ______ ____
ROOT
ATOM      1  C   UNL     1      44.345   4.539  11.781  0.00  0.00    +0.000 C 
ENDROOT
BRANCH   1   2
ATOM      2  O   UNL     1      44.226   4.903  10.402  0.00  0.00    +0.000 OA
BRANCH   2   6
ATOM      3  C   UNL     1      46.550   2.894   7.573  0.00  0.00    +0.000 A 
ATOM      4  C   UNL     1      45.740   2.139   8.428  0.00  0.00    +0.000 A 
ATOM      5  C   UNL     1      44.947   2.776   9.391  0.00  0.00    +0.000 A 
ATOM      6  C   UNL     1      44.961   4.167   9.508  0.00  0.00    +0.000 A 
ATOM      7  C   UNL     1      45.782   4.916   8.663  0.00  0.00    +0.000 A 
ATOM      8  C   UNL     1      46.581   4.285   7.703  0.00  0.00    +0.000 A 
BRANCH   3  10
ATOM      9  N   UNL     1      47.442   2.847   5.306  0.00  0.00    +0.000 N 
ATOM     10  C   UNL     1      47.402   2.253   6.538  0.00  0.00    +0.000 C 
ATOM     11  O   UNL     1      48.076   1.260   6.782  0.00  0.00    +0.000 OA
ATOM     12  H   UNL     1      48.113   2.467   4.650  0.00  0.00    +0.000 HD
ATOM     13  H   UNL     1      47.119   3.790   5.152  0.00  0.00    +0.000 HD
ENDBRANCH   3  10
ENDBRANCH   2   6
ENDBRANCH   1   2
BRANCH   1  14
ATOM     14  C   UNL     1      45.782   4.791  12.234  0.00  0.00    +0.000 C 
BRANCH  14  15
ATOM     15  C   UNL     1      46.104   6.266  12.270  0.00  0.00    +0.000 A 
ATOM     16  C   UNL     1      45.163   7.180  12.749  0.00  0.00    +0.000 A 
ATOM     17  C   UNL     1      45.470   8.536  12.801  0.00  0.00    +0.000 A 
ATOM     18  C   UNL     1      46.729   8.986  12.394  0.00  0.00    +0.000 A 
ATOM     19  C   UNL     1      47.720   8.094  11.947  0.00  0.00    +0.000 A 
ATOM     20  C   UNL     1      47.372   6.731  11.876  0.00  0.00    +0.000 A 
BRANCH  19  21
ATOM     21  C   UNL     1      49.089   8.563  11.620  0.00  0.00    +0.000 A 
ATOM     22  C   UNL     1      50.136   7.650  11.415  0.00  0.00    +0.000 A 
ATOM     23  C   UNL     1      51.394   8.114  11.059  0.00  0.00    +0.000 A 
ATOM     24  N   UNL     1      51.691   9.416  10.888  0.00  0.00    +0.000 NA
ATOM     25  C   UNL     1      50.686  10.289  11.092  0.00  0.00    +0.000 A 
ATOM     26  C   UNL     1      49.398   9.920  11.460  0.00  0.00    +0.000 A 
ENDBRANCH  19  21
ENDBRANCH  14  15
ENDBRANCH   1  14
TORSDOF 6
ENDMDL
MODEL 6
REMARK VINA RESULT:    -6.793      3.722      7.408
REMARK INTER + INTRA:         -10.213
REMARK INTER:                  -9.365
REMARK INTRA:                  -0.848
REMARK UNBOUND:                -1.037
REMARK  Name = 
REMARK  6 active torsions:
REMARK  status: ('A' for Active; 'I' for Inactive)
REMARK    1  A    between atoms: C_2  and  C_4
REMARK    2  A    between atoms: C_7  and  O_8
REMARK    3  A    between atoms: O_8  and  C_9
REMARK    4  A    between atoms: C_9  and  C_10
REMARK    5  A    between atoms: C_10  and  C_11
REMARK    6  A    between atoms: C_15  and  C_16
REMARK                            x       y       z     vdW  Elec       q    Type
REMARK                         _______ _______ _______ _____ _____    ______ ____
ROOT
ATOM      1  C   UNL     1      44.922   6.887  12.674  0.00  0.00    +0.000 C 
ENDROOT
BRANCH   1   2
ATOM      2  O   UNL     1      45.512   8.186  12.561  0.00  0.00    +0.000 OA
BRANCH   2   6
ATOM      3  C   UNL     1      49.556   8.584  11.602  0.00  0.00    +0.000 A 
ATOM      4  C   UNL     1      49.043   7.298  11.806  0.00  0.00    +0.000 A 
ATOM      5  C   UNL     1      47.691   7.123  12.130  0.00  0.00    +0.000 A 
ATOM      6  C   UNL     1      46.848   8.228  12.256  0.00  0.00    +0.000 A 
ATOM      7  C   UNL     1      47.367   9.511  12.067  0.00  0.00    +0.000 A 
ATOM      8  C   UNL     1      48.718   9.692  11.748  0.00  0.00    +0.000 A 
BRANCH   3  10
ATOM      9  N   UNL     1      51.844   7.761  11.444  0.00  0.00    +0.000 N 
ATOM     10  C   UNL     1      50.984   8.808  11.253  0.00  0.00    +0.000 C 
ATOM     11  O   UNL     1      51.373   9.865  10.775  0.00  0.00    +0.000 OA
ATOM     12  H   UNL     1      52.786   7.890  11.096  0.00  0.00    +0.000 HD
ATOM     13  H   UNL     1      51.521   6.815  11.580  0.00  0.00    +0.000 HD
ENDBRANCH   3  10
ENDBRANCH   2   6
ENDBRANCH   1   2
BRANCH   1  14
ATOM     14  C   UNL     1      44.123   6.597  11.404  0.00  0.00    +0.000 C 
BRANCH  14  15
ATOM     15  C   UNL     1      44.152   5.131  11.049  0.00  0.00    +0.000 A 
ATOM     16  C   UNL     1      43.337   4.224  11.733  0.00  0.00    +0.000 A 
ATOM     17  C   UNL     1      43.351   2.876  11.389  0.00  0.00    +0.000 A 
ATOM     18  C   UNL     1      44.165   2.427  10.346  0.00  0.00    +0.000 A 
ATOM     19  C   UNL     1      44.967   3.312   9.603  0.00  0.00    +0.000 A 
ATOM     20  C   UNL     1      44.956   4.666   9.992  0.00  0.00    +0.000 A 
BRANCH  19  21
ATOM     21  C   UNL     1      45.744   2.849   8.428  0.00  0.00    +0.000 A 
ATOM     22  C   UNL     1      46.182   1.519   8.329  0.00  0.00    +0.000 A 
ATOM     23  C   UNL     1      46.862   1.101   7.194  0.00  0.00    +0.000 A 
ATOM     24  N   UNL     1      47.137   1.903   6.148  0.00  0.00    +0.000 NA
ATOM     25  C   UNL     1      46.721   3.180   6.249  0.00  0.00    +0.000 A 
ATOM     26  C   UNL     1      46.044   3.691   7.349  0.00  0.00    +0.000 A 
ENDBRANCH  19  21
ENDBRANCH  14  15
ENDBRANCH   1  14
TORSDOF 6
ENDMDL
MODEL 7
REMARK VINA RESULT:    -6.760      3.120      7.773
REMARK INTER + INTRA:         -10.168
REMARK INTER:                  -8.992
REMARK INTRA:                  -1.176
REMARK UNBOUND:                -1.037
REMARK  Name = 
REMARK  6 active torsions:
REMARK  status: ('A' for Active; 'I' for Inactive)
REMARK    1  A    between atoms: C_2  and  C_4
REMARK    2  A    between atoms: C_7  and  O_8
REMARK    3  A    between atoms: O_8  and  C_9
REMARK    4  A    between atoms: C_9  and  C_10
REMARK    5  A    between atoms: C_10  and  C_11
REMARK    6  A    between atoms: C_15  and  C_16
REMARK                            x       y       z     vdW  Elec       q    Type
REMARK                         _______ _______ _______ _____ _____    ______ ____
ROOT
ATOM      1  C   UNL     1      49.533   7.285  13.097  0.00  0.00    +0.000 C 
ENDROOT
BRANCH   1   2
ATOM      2  O   UNL     1      48.997   7.581  14.391  0.00  0.00    +0.000 OA
BRANCH   2   6
ATOM      3  C   UNL     1      47.898   4.402  16.865  0.00  0.00    +0.000 A 
ATOM      4  C   UNL     1      47.324   4.485  15.592  0.00  0.00    +0.000 A 
ATOM      5  C   UNL     1      47.667   5.537  14.732  0.00  0.00    +0.000 A 
ATOM      6  C   UNL     1      48.578   6.513  15.140  0.00  0.00    +0.000 A 
ATOM      7  C   UNL     1      49.137   6.435  16.418  0.00  0.00    +0.000 A 
ATOM      8  C   UNL     1      48.794   5.389  17.283  0.00  0.00    +0.000 A 
BRANCH   3  10
ATOM      9  N   UNL     1      48.366   3.142  18.897  0.00  0.00    +0.000 N 
ATOM     10  C   UNL     1      47.561   3.299  17.802  0.00  0.00    +0.000 C 
ATOM     11  O   UNL     1      46.581   2.585  17.632  0.00  0.00    +0.000 OA
ATOM     12  H   UNL     1      48.058   2.464  19.583  0.00  0.00    +0.000 HD
ATOM     13  H   UNL     1      49.006   3.859  19.203  0.00  0.00    +0.000 HD
ENDBRANCH   3  10
ENDBRANCH   2   6
ENDBRANCH   1   2
BRANCH   1  14
ATOM     14  C   UNL     1      48.865   8.196  12.068  0.00  0.00    +0.000 C 
BRANCH  14  15
ATOM     15  C   UNL     1      47.396   7.880  11.916  0.00  0.00    +0.000 A 
ATOM     16  C   UNL     1      46.432   8.826  12.273  0.00  0.00    +0.000 A 
ATOM     17  C   UNL     1      45.080   8.541  12.112  0.00  0.00    +0.000 A 
ATOM     18  C   UNL     1      44.682   7.314  11.574  0.00  0.00    +0.000 A 
ATOM     19  C   UNL     1      45.621   6.351  11.161  0.00  0.00    +0.000 A 
ATOM     20  C   UNL     1      46.981   6.655  11.364  0.00  0.00    +0.000 A 
BRANCH  19  21
ATOM     21  C   UNL     1      45.197   5.098  10.490  0.00  0.00    +0.000 A 
ATOM     22  C   UNL     1      45.500   4.863   9.139  0.00  0.00    +0.000 A 
ATOM     23  C   UNL     1      45.137   3.660   8.552  0.00  0.00    +0.000 A 
ATOM     24  N   UNL     1      44.499   2.670   9.205  0.00  0.00    +0.000 NA
ATOM     25  C   UNL     1      44.205   2.902  10.499  0.00  0.00    +0.000 A 
ATOM     26  C   UNL     1      44.518   4.077  11.169  0.00  0.00    +0.000 A 
ENDBRANCH  19  21
ENDBRANCH  14  15
ENDBRANCH   1  14
TORSDOF 6
ENDMDL
MODEL 8
REMARK VINA RESULT:    -6.387      2.935      5.457
REMARK INTER + INTRA:          -9.665
REMARK INTER:                  -8.822
REMARK INTRA:                  -0.842
REMARK UNBOUND:                -1.037
REMARK  Name = 
REMARK  6 active torsions:
REMARK  status: ('A' for Active; 'I' for Inactive)
REMARK    1  A    between atoms: C_2  and  C_4
REMARK    2  A    between atoms: C_7  and  O_8
REMARK    3  A    between atoms: O_8  and  C_9
REMARK    4  A    between atoms: C_9  and  C_10
REMARK    5  A    between atoms: C_10  and  C_11
REMARK    6  A    between atoms: C_15  and  C_16
REMARK                            x       y       z     vdW  Elec       q    Type
REMARK                         _______ _______ _______ _____ _____    ______ ____
ROOT
ATOM      1  C   UNL     1      48.538   6.564  14.226  0.00  0.00    +0.000 C 
ENDROOT
BRANCH   1   2
ATOM      2  O   UNL     1      47.329   7.131  13.712  0.00  0.00    +0.000 OA
BRANCH   2   6
ATOM      3  C   UNL     1      44.949   4.763  11.229  0.00  0.00    +0.000 A 
ATOM      4  C   UNL     1      45.010   4.449  12.591  0.00  0.00    +0.000 A 
ATOM      5  C   UNL     1      45.798   5.219  13.456  0.00  0.00    +0.000 A 
ATOM      6  C   UNL     1      46.531   6.302  12.967  0.00  0.00    +0.000 A 
ATOM      7  C   UNL     1      46.480   6.602  11.604  0.00  0.00    +0.000 A 
ATOM      8  C   UNL     1      45.699   5.833  10.734  0.00  0.00    +0.000 A 
BRANCH   3  10
ATOM      9  N   UNL     1      44.023   4.435   8.999  0.00  0.00    +0.000 N 
ATOM     10  C   UNL     1      44.121   3.971  10.282  0.00  0.00    +0.000 C 
ATOM     11  O   UNL     1      43.584   2.923  10.617  0.00  0.00    +0.000 OA
ATOM     12  H   UNL     1      43.553   3.827   8.340  0.00  0.00    +0.000 HD
ATOM     13  H   UNL     1      44.652   5.131   8.628  0.00  0.00    +0.000 HD
ENDBRANCH   3  10
ENDBRANCH   2   6
ENDBRANCH   1   2
BRANCH   1  14
ATOM     14  C   UNL     1      48.522   6.672  15.750  0.00  0.00    +0.000 C 
BRANCH  14  15
ATOM     15  C   UNL     1      48.516   5.312  16.405  0.00  0.00    +0.000 A 
ATOM     16  C   UNL     1      47.322   4.596  16.530  0.00  0.00    +0.000 A 
ATOM     17  C   UNL     1      47.323   3.333  17.115  0.00  0.00    +0.000 A 
ATOM     18  C   UNL     1      48.521   2.767  17.559  0.00  0.00    +0.000 A 
ATOM     19  C   UNL     1      49.750   3.435  17.412  0.00  0.00    +0.000 A 
ATOM     20  C   UNL     1      49.716   4.724  16.845  0.00  0.00    +0.000 A 
BRANCH  19  21
ATOM     21  C   UNL     1      51.030   2.785  17.785  0.00  0.00    +0.000 A 
ATOM     22  C   UNL     1      51.283   1.443  17.458  0.00  0.00    +0.000 A 
ATOM     23  C   UNL     1      52.509   0.878  17.773  0.00  0.00    +0.000 A 
ATOM     24  N   UNL     1      53.506   1.544  18.385  0.00  0.00    +0.000 NA
ATOM     25  C   UNL     1      53.259   2.829  18.703  0.00  0.00    +0.000 A 
ATOM     26  C   UNL     1      52.059   3.478  18.438  0.00  0.00    +0.000 A 
ENDBRANCH  19  21
ENDBRANCH  14  15
ENDBRANCH   1  14
TORSDOF 6
ENDMDL
MODEL 9
REMARK VINA RESULT:    -6.262      4.438      6.950
REMARK INTER + INTRA:          -9.496
REMARK INTER:                  -8.059
REMARK INTRA:                  -1.437
REMARK UNBOUND:                -1.037
REMARK  Name = 
REMARK  6 active torsions:
REMARK  status: ('A' for Active; 'I' for Inactive)
REMARK    1  A    between atoms: C_2  and  C_4
REMARK    2  A    between atoms: C_7  and  O_8
REMARK    3  A    between atoms: O_8  and  C_9
REMARK    4  A    between atoms: C_9  and  C_10
REMARK    5  A    between atoms: C_10  and  C_11
REMARK    6  A    between atoms: C_15  and  C_16
REMARK                            x       y       z     vdW  Elec       q    Type
REMARK                         _______ _______ _______ _____ _____    ______ ____
ROOT
ATOM      1  C   UNL     1      48.660   7.053  14.413  0.00  0.00    +0.000 C 
ENDROOT
BRANCH   1   2
ATOM      2  O   UNL     1      48.464   5.930  13.548  0.00  0.00    +0.000 OA
BRANCH   2   6
ATOM      3  C   UNL     1      44.678   5.548  11.828  0.00  0.00    +0.000 A 
ATOM      4  C   UNL     1      44.907   4.953  13.074  0.00  0.00    +0.000 A 
ATOM      5  C   UNL     1      46.164   5.058  13.683  0.00  0.00    +0.000 A 
ATOM      6  C   UNL     1      47.198   5.752  13.052  0.00  0.00    +0.000 A 
ATOM      7  C   UNL     1      46.969   6.331  11.801  0.00  0.00    +0.000 A 
ATOM      8  C   UNL     1      45.717   6.225  11.185  0.00  0.00    +0.000 A 
BRANCH   3  10
ATOM      9  N   UNL     1      42.303   6.087  11.760  0.00  0.00    +0.000 N 
ATOM     10  C   UNL     1      43.356   5.459  11.153  0.00  0.00    +0.000 C 
ATOM     11  O   UNL     1      43.218   4.890  10.079  0.00  0.00    +0.000 OA
ATOM     12  H   UNL     1      41.438   6.115  11.233  0.00  0.00    +0.000 HD
ATOM     13  H   UNL     1      42.430   6.773  12.488  0.00  0.00    +0.000 HD
ENDBRANCH   3  10
ENDBRANCH   2   6
ENDBRANCH   1   2
BRANCH   1  14
ATOM     14  C   UNL     1      49.896   7.822  13.946  0.00  0.00    +0.000 C 
BRANCH  14  15
ATOM     15  C   UNL     1      49.545   8.868  12.917  0.00  0.00    +0.000 A 
ATOM     16  C   UNL     1      50.505   9.304  11.999  0.00  0.00    +0.000 A 
ATOM     17  C   UNL     1      50.172  10.253  11.038  0.00  0.00    +0.000 A 
ATOM     18  C   UNL     1      48.871  10.759  10.973  0.00  0.00    +0.000 A 
ATOM     19  C   UNL     1      47.863  10.315  11.849  0.00  0.00    +0.000 A 
ATOM     20  C   UNL     1      48.236   9.376  12.832  0.00  0.00    +0.000 A 
BRANCH  19  21
ATOM     21  C   UNL     1      46.460  10.773  11.707  0.00  0.00    +0.000 A 
ATOM     22  C   UNL     1      45.389   9.872  11.831  0.00  0.00    +0.000 A 
ATOM     23  C   UNL     1      44.086  10.338  11.745  0.00  0.00    +0.000 A 
ATOM     24  N   UNL     1      43.763  11.630  11.548  0.00  0.00    +0.000 NA
ATOM     25  C   UNL     1      44.792  12.490  11.423  0.00  0.00    +0.000 A 
ATOM     26  C   UNL     1      46.129  12.116  11.485  0.00  0.00    +0.000 A 
ENDBRANCH  19  21
ENDBRANCH  14  15
ENDBRANCH   1  14
TORSDOF 6
ENDMDL
