MODEL 1
REMARK VINA RESULT:    -8.047      0.000      0.000
REMARK INTER + INTRA:         -10.742
REMARK INTER:                  -9.929
REMARK INTRA:                  -0.813
REMARK UNBOUND:                -0.813
REMARK  Name = 
REMARK  4 active torsions:
REMARK  status: ('A' for Active; 'I' for Inactive)
REMARK    1  A    between atoms: C_6  and  O_7
REMARK    2  A    between atoms: O_7  and  C_8
REMARK    3  A    between atoms: C_8  and  C_9
REMARK    4  A    between atoms: C_13  and  N_14
REMARK                            x       y       z     vdW  Elec       q    Type
REMARK                         _______ _______ _______ _____ _____    ______ ____
ROOT
ATOM      1  C   UNL     1      44.798   4.662  11.383  0.00  0.00    +0.000 A 
ATOM      2  C   UNL     1      44.791   3.798  12.469  0.00  0.00    +0.000 A 
ATOM      3  N   UNL     1      45.594   3.931  13.543  0.00  0.00    +0.000 NA
ATOM      4  C   UNL     1      46.446   4.987  13.531  0.00  0.00    +0.000 A 
ATOM      5  C   UNL     1      46.566   5.926  12.503  0.00  0.00    +0.000 A 
ATOM      6  C   UNL     1      45.723   5.716  11.404  0.00  0.00    +0.000 A 
ENDROOT
BRANCH   5   7
ATOM      7  N   UNL     1      47.387   7.036  12.567  0.00  0.00    +0.000 N 
ATOM      8  C   UNL     1      46.885   8.331  13.023  0.00  0.00    +0.000 C 
ATOM      9  C   UNL     1      47.442   9.414  12.094  0.00  0.00    +0.000 C 
ATOM     10  C   UNL     1      48.965   9.334  11.968  0.00  0.00    +0.000 C 
ATOM     11  C   UNL     1      49.432   7.920  11.613  0.00  0.00    +0.000 C 
ATOM     12  C   UNL     1      48.841   6.887  12.570  0.00  0.00    +0.000 C 
ENDBRANCH   5   7
BRANCH   1  13
ATOM     13  C   UNL     1      43.829   4.482  10.250  0.00  0.00    +0.000 C 
BRANCH  13  14
ATOM     14  O   UNL     1      43.970   3.167   9.720  0.00  0.00    +0.000 OA
BRANCH  14  20
ATOM     15  F   UNL     1      46.929   0.064   7.826  0.00  0.00    +0.000 F 
ATOM     16  C   UNL     1      46.480   1.324   7.875  0.00  0.00    +0.000 A 
ATOM     17  C   UNL     1      47.043   2.284   7.044  0.00  0.00    +0.000 A 
ATOM     18  C   UNL     1      46.576   3.593   7.097  0.00  0.00    +0.000 A 
ATOM     19  C   UNL     1      45.544   3.935   7.981  0.00  0.00    +0.000 A 
ATOM     20  C   UNL     1      44.979   2.965   8.816  0.00  0.00    +0.000 A 
ATOM     21  C   UNL     1      45.455   1.654   8.756  0.00  0.00    +0.000 A 
ENDBRANCH  14  20
ENDBRANCH  13  14
ENDBRANCH   1  13
TORSDOF 4
ENDMDL
MODEL 2
REMARK VINA RESULT:    -7.481      1.757      2.676
REMARK INTER + INTRA:         -10.044
REMARK INTER:                  -9.327
REMARK INTRA:                  -0.717
REMARK UNBOUND:                -0.813
REMARK  Name = 
REMARK  4 active torsions:
REMARK  status: ('A' for Active; 'I' for Inactive)
REMARK    1  A    between atoms: C_6  and  O_7
REMARK    2  A    between atoms: O_7  and  C_8
REMARK    3  A    between atoms: C_8  and  C_9
REMARK    4  A    between atoms: C_13  and  N_14
REMARK                            x       y       z     vdW  Elec       q    Type
REMARK                         _______ _______ _______ _____ _____    ______ ____
ROOT
ATOM      1  C   UNL     1      44.597   4.156  11.378  0.00  0.00    +0.000 A 
ATOM      2  C   UNL     1      44.036   5.389  11.073  0.00  0.00    +0.000 A 
ATOM      3  N   UNL     1      44.375   6.542  11.683  0.00  0.00    +0.000 NA
ATOM      4  C   UNL     1      45.326   6.457  12.647  0.00  0.00    +0.000 A 
ATOM      5  C   UNL     1      45.964   5.285  13.062  0.00  0.00    +0.000 A 
ATOM      6  C   UNL     1      45.549   4.118  12.406  0.00  0.00    +0.000 A 
ENDROOT
BRANCH   5   7
ATOM      7  N   UNL     1      46.989   5.253  13.988  0.00  0.00    +0.000 N 
ATOM      8  C   UNL     1      47.219   4.081  14.830  0.00  0.00    +0.000 C 
ATOM      9  C   UNL     1      47.508   4.564  16.254  0.00  0.00    +0.000 C 
ATOM     10  C   UNL     1      48.634   5.601  16.291  0.00  0.00    +0.000 C 
ATOM     11  C   UNL     1      48.392   6.736  15.293  0.00  0.00    +0.000 C 
ATOM     12  C   UNL     1      48.105   6.191  13.895  0.00  0.00    +0.000 C 
ENDBRANCH   5   7
BRANCH   1  13
ATOM     13  C   UNL     1      44.211   2.925  10.609  0.00  0.00    +0.000 C 
BRANCH  13  14
ATOM     14  O   UNL     1      44.194   3.230   9.217  0.00  0.00    +0.000 OA
BRANCH  14  20
ATOM     15  F   UNL     1      46.841  -0.380   7.826  0.00  0.00    +0.000 F 
ATOM     16  C   UNL     1      46.607   0.937   7.795  0.00  0.00    +0.000 A 
ATOM     17  C   UNL     1      47.441   1.762   7.052  0.00  0.00    +0.000 A 
ATOM     18  C   UNL     1      47.198   3.133   7.022  0.00  0.00    +0.000 A 
ATOM     19  C   UNL     1      46.117   3.669   7.734  0.00  0.00    +0.000 A 
ATOM     20  C   UNL     1      45.279   2.834   8.480  0.00  0.00    +0.000 A 
ATOM     21  C   UNL     1      45.532   1.462   8.505  0.00  0.00    +0.000 A 
ENDBRANCH  14  20
ENDBRANCH  13  14
ENDBRANCH   1  13
TORSDOF 4
ENDMDL
MODEL 3
REMARK VINA RESULT:    -7.090      2.756      6.343
REMARK INTER + INTRA:          -9.561
REMARK INTER:                  -8.796
REMARK INTRA:                  -0.765
REMARK UNBOUND:                -0.813
REMARK  Name = 
REMARK  4 active torsions:
REMARK  status: ('A' for Active; 'I' for Inactive)
REMARK    1  A    between atoms: C_6  and  O_7
REMARK    2  A    between atoms: O_7  and  C_8
REMARK    3  A    between atoms: C_8  and  C_9
REMARK    4  A    between atoms: C_13  and  N_14
REMARK                            x       y       z     vdW  Elec       q    Type
REMARK                         _______ _______ _______ _____ _____    ______ ____
ROOT
ATOM      1  C   UNL     1      44.461   5.207  12.100  0.00  0.00    +0.000 A 
ATOM      2  C   UNL     1      43.844   4.265  12.912  0.00  0.00    +0.000 A 
ATOM      3  N   UNL     1      43.600   2.993  12.538  0.00  0.00    +0.000 NA
ATOM      4  C   UNL     1      43.998   2.646  11.289  0.00  0.00    +0.000 A 
ATOM      5  C   UNL     1      44.619   3.491  10.365  0.00  0.00    +0.000 A 
ATOM      6  C   UNL     1      44.820   4.806  10.805  0.00  0.00    +0.000 A 
ENDROOT
BRANCH   5   7
ATOM      7  N   UNL     1      45.085   3.076   9.133  0.00  0.00    +0.000 N 
ATOM      8  C   UNL     1      45.115   1.661   8.766  0.00  0.00    +0.000 C 
ATOM      9  C   UNL     1      46.448   1.376   8.068  0.00  0.00    +0.000 C 
ATOM     10  C   UNL     1      46.705   2.338   6.905  0.00  0.00    +0.000 C 
ATOM     11  C   UNL     1      46.532   3.799   7.328  0.00  0.00    +0.000 C 
ATOM     12  C   UNL     1      45.188   4.018   8.020  0.00  0.00    +0.000 C 
ENDBRANCH   5   7
BRANCH   1  13
ATOM     13  C   UNL     1      44.754   6.589  12.611  0.00  0.00    +0.000 C 
BRANCH  13  14
ATOM     14  O   UNL     1      46.075   6.620  13.143  0.00  0.00    +0.000 OA
BRANCH  14  20
ATOM     15  F   UNL     1      50.168   7.536  11.049  0.00  0.00    +0.000 F 
ATOM     16  C   UNL     1      49.035   8.005  11.586  0.00  0.00    +0.000 A 
ATOM     17  C   UNL     1      48.808   9.374  11.617  0.00  0.00    +0.000 A 
ATOM     18  C   UNL     1      47.630   9.860  12.177  0.00  0.00    +0.000 A 
ATOM     19  C   UNL     1      46.683   8.971  12.701  0.00  0.00    +0.000 A 
ATOM     20  C   UNL     1      46.915   7.591  12.667  0.00  0.00    +0.000 A 
ATOM     21  C   UNL     1      48.100   7.114  12.105  0.00  0.00    +0.000 A 
ENDBRANCH  14  20
ENDBRANCH  13  14
ENDBRANCH   1  13
TORSDOF 4
ENDMDL
MODEL 4
REMARK VINA RESULT:    -7.047      3.258      6.750
REMARK INTER + INTRA:          -9.508
REMARK INTER:                  -8.897
REMARK INTRA:                  -0.611
REMARK UNBOUND:                -0.813
REMARK  Name = 
REMARK  4 active torsions:
REMARK  status: ('A' for Active; 'I' for Inactive)
REMARK    1  A    between atoms: C_6  and  O_7
REMARK    2  A    between atoms: O_7  and  C_8
REMARK    3  A    between atoms: C_8  and  C_9
REMARK    4  A    between atoms: C_13  and  N_14
REMARK                            x       y       z     vdW  Elec       q    Type
REMARK                         _______ _______ _______ _____ _____    ______ ____
ROOT
ATOM      1  C   UNL     1      44.878   5.020  12.232  0.00  0.00    +0.000 A 
ATOM      2  C   UNL     1      43.900   4.265  12.865  0.00  0.00    +0.000 A 
ATOM      3  N   UNL     1      43.312   3.183  12.318  0.00  0.00    +0.000 NA
ATOM      4  C   UNL     1      43.727   2.836  11.074  0.00  0.00    +0.000 A 
ATOM      5  C   UNL     1      44.692   3.509  10.318  0.00  0.00    +0.000 A 
ATOM      6  C   UNL     1      45.245   4.640  10.933  0.00  0.00    +0.000 A 
ENDROOT
BRANCH   5   7
ATOM      7  N   UNL     1      45.147   3.074   9.089  0.00  0.00    +0.000 N 
ATOM      8  C   UNL     1      45.149   1.656   8.733  0.00  0.00    +0.000 C 
ATOM      9  C   UNL     1      46.475   1.339   8.036  0.00  0.00    +0.000 C 
ATOM     10  C   UNL     1      46.749   2.285   6.865  0.00  0.00    +0.000 C 
ATOM     11  C   UNL     1      46.606   3.753   7.276  0.00  0.00    +0.000 C 
ATOM     12  C   UNL     1      45.268   4.005   7.969  0.00  0.00    +0.000 C 
ENDBRANCH   5   7
BRANCH   1  13
ATOM     13  C   UNL     1      45.530   6.178  12.932  0.00  0.00    +0.000 C 
BRANCH  13  14
ATOM     14  O   UNL     1      46.938   5.962  12.978  0.00  0.00    +0.000 OA
BRANCH  14  20
ATOM     15  F   UNL     1      47.162   3.278  16.814  0.00  0.00    +0.000 F 
ATOM     16  C   UNL     1      47.577   4.373  16.166  0.00  0.00    +0.000 A 
ATOM     17  C   UNL     1      48.505   5.213  16.768  0.00  0.00    +0.000 A 
ATOM     18  C   UNL     1      48.936   6.352  16.093  0.00  0.00    +0.000 A 
ATOM     19  C   UNL     1      48.437   6.643  14.817  0.00  0.00    +0.000 A 
ATOM     20  C   UNL     1      47.502   5.793  14.215  0.00  0.00    +0.000 A 
ATOM     21  C   UNL     1      47.076   4.655  14.899  0.00  0.00    +0.000 A 
ENDBRANCH  14  20
ENDBRANCH  13  14
ENDBRANCH   1  13
TORSDOF 4
ENDMDL
MODEL 5
REMARK VINA RESULT:    -6.758      3.872      7.321
REMARK INTER + INTRA:          -9.152
REMARK INTER:                  -8.604
REMARK INTRA:                  -0.547
REMARK UNBOUND:                -0.813
REMARK  Name = 
REMARK  4 active torsions:
REMARK  status: ('A' for Active; 'I' for Inactive)
REMARK    1  A    between atoms: C_6  and  O_7
REMARK    2  A    between atoms: O_7  and  C_8
REMARK    3  A    between atoms: C_8  and  C_9
REMARK    4  A    between atoms: C_13  and  N_14
REMARK                            x       y       z     vdW  Elec       q    Type
REMARK                         _______ _______ _______ _____ _____    ______ ____
ROOT
ATOM      1  C   UNL     1      45.328   4.722  12.926  0.00  0.00    +0.000 A 
ATOM      2  C   UNL     1      43.982   4.839  13.242  0.00  0.00    +0.000 A 
ATOM      3  N   UNL     1      42.979   4.545  12.391  0.00  0.00    +0.000 NA
ATOM      4  C   UNL     1      43.344   4.108  11.159  0.00  0.00    +0.000 A 
ATOM      5  C   UNL     1      44.656   3.953  10.704  0.00  0.00    +0.000 A 
ATOM      6  C   UNL     1      45.651   4.300  11.628  0.00  0.00    +0.000 A 
ENDROOT
BRANCH   5   7
ATOM      7  N   UNL     1      44.987   3.425   9.471  0.00  0.00    +0.000 N 
ATOM      8  C   UNL     1      44.784   2.009   9.169  0.00  0.00    +0.000 C 
ATOM      9  C   UNL     1      46.018   1.497   8.421  0.00  0.00    +0.000 C 
ATOM     10  C   UNL     1      46.352   2.363   7.204  0.00  0.00    +0.000 C 
ATOM     11  C   UNL     1      46.424   3.849   7.566  0.00  0.00    +0.000 C 
ATOM     12  C   UNL     1      45.168   4.297   8.312  0.00  0.00    +0.000 C 
ENDBRANCH   5   7
BRANCH   1  13
ATOM     13  C   UNL     1      46.387   5.010  13.951  0.00  0.00    +0.000 C 
BRANCH  13  14
ATOM     14  O   UNL     1      46.527   3.880  14.808  0.00  0.00    +0.000 OA
BRANCH  14  20
ATOM     15  F   UNL     1      49.543   6.673  17.062  0.00  0.00    +0.000 F 
ATOM     16  C   UNL     1      48.906   5.498  17.006  0.00  0.00    +0.000 A 
ATOM     17  C   UNL     1      49.127   4.552  17.998  0.00  0.00    +0.000 A 
ATOM     18  C   UNL     1      48.464   3.329  17.938  0.00  0.00    +0.000 A 
ATOM     19  C   UNL     1      47.581   3.061  16.884  0.00  0.00    +0.000 A 
ATOM     20  C   UNL     1      47.361   4.017  15.887  0.00  0.00    +0.000 A 
ATOM     21  C   UNL     1      48.030   5.239  15.955  0.00  0.00    +0.000 A 
ENDBRANCH  14  20
ENDBRANCH  13  14
ENDBRANCH   1  13
TORSDOF 4
ENDMDL
MODEL 6
REMARK VINA RESULT:    -6.292      2.809      3.765
REMARK INTER + INTRA:          -8.576
REMARK INTER:                  -7.868
REMARK INTRA:                  -0.708
REMARK UNBOUND:                -0.813
REMARK  Name = 
REMARK  4 active torsions:
REMARK  status: ('A' for Active; 'I' for Inactive)
REMARK    1  A    between atoms: C_6  and  O_7
REMARK    2  A    between atoms: O_7  and  C_8
REMARK    3  A    between atoms: C_8  and  C_9
REMARK    4  A    between atoms: C_13  and  N_14
REMARK                            x       y       z     vdW  Elec       q    Type
REMARK                         _______ _______ _______ _____ _____    ______ ____
ROOT
ATOM      1  C   UNL     1      45.260   6.333  12.024  0.00  0.00    +0.000 A 
ATOM      2  C   UNL     1      46.290   6.637  12.904  0.00  0.00    +0.000 A 
ATOM      3  N   UNL     1      46.677   7.892  13.207  0.00  0.00    +0.000 NA
ATOM      4  C   UNL     1      45.995   8.895  12.599  0.00  0.00    +0.000 A 
ATOM      5  C   UNL     1      44.948   8.735  11.687  0.00  0.00    +0.000 A 
ATOM      6  C   UNL     1      44.613   7.406  11.395  0.00  0.00    +0.000 A 
ENDROOT
BRANCH   5   7
ATOM      7  N   UNL     1      44.224   9.784  11.155  0.00  0.00    +0.000 N 
ATOM      8  C   UNL     1      44.867  11.039  10.770  0.00  0.00    +0.000 C 
ATOM      9  C   UNL     1      43.983  12.195  11.246  0.00  0.00    +0.000 C 
ATOM     10  C   UNL     1      42.539  12.050  10.763  0.00  0.00    +0.000 C 
ATOM     11  C   UNL     1      41.968  10.667  11.085  0.00  0.00    +0.000 C 
ATOM     12  C   UNL     1      42.894   9.558  10.590  0.00  0.00    +0.000 C 
ENDBRANCH   5   7
BRANCH   1  13
ATOM     13  C   UNL     1      44.848   4.909  11.785  0.00  0.00    +0.000 C 
BRANCH  13  14
ATOM     14  O   UNL     1      44.248   4.807  10.496  0.00  0.00    +0.000 OA
BRANCH  14  20
ATOM     15  F   UNL     1      45.447   0.698   8.584  0.00  0.00    +0.000 F 
ATOM     16  C   UNL     1      45.558   2.032   8.576  0.00  0.00    +0.000 A 
ATOM     17  C   UNL     1      46.360   2.646   7.623  0.00  0.00    +0.000 A 
ATOM     18  C   UNL     1      46.474   4.033   7.616  0.00  0.00    +0.000 A 
ATOM     19  C   UNL     1      45.782   4.799   8.563  0.00  0.00    +0.000 A 
ATOM     20  C   UNL     1      44.974   4.177   9.520  0.00  0.00    +0.000 A 
ATOM     21  C   UNL     1      44.866   2.786   9.520  0.00  0.00    +0.000 A 
ENDBRANCH  14  20
ENDBRANCH  13  14
ENDBRANCH   1  13
TORSDOF 4
ENDMDL
MODEL 7
REMARK VINA RESULT:    -6.057      1.794      2.762
REMARK INTER + INTRA:          -8.287
REMARK INTER:                  -7.481
REMARK INTRA:                  -0.806
REMARK UNBOUND:                -0.813
REMARK  Name = 
REMARK  4 active torsions:
REMARK  status: ('A' for Active; 'I' for Inactive)
REMARK    1  A    between atoms: C_6  and  O_7
REMARK    2  A    between atoms: O_7  and  C_8
REMARK    3  A    between atoms: C_8  and  C_9
REMARK    4  A    between atoms: C_13  and  N_14
REMARK                            x       y       z     vdW  Elec       q    Type
REMARK                         _______ _______ _______ _____ _____    ______ ____
ROOT
ATOM      1  C   UNL     1      46.120   6.209  12.594  0.00  0.00    +0.000 A 
ATOM      2  C   UNL     1      47.009   5.338  13.208  0.00  0.00    +0.000 A 
ATOM      3  N   UNL     1      48.294   5.640  13.479  0.00  0.00    +0.000 NA
ATOM      4  C   UNL     1      48.710   6.880  13.119  0.00  0.00    +0.000 A 
ATOM      5  C   UNL     1      47.929   7.851  12.487  0.00  0.00    +0.000 A 
ATOM      6  C   UNL     1      46.610   7.465  12.210  0.00  0.00    +0.000 A 
ENDROOT
BRANCH   5   7
ATOM      7  N   UNL     1      48.366   9.132  12.213  0.00  0.00    +0.000 N 
ATOM      8  C   UNL     1      47.440  10.262  12.173  0.00  0.00    +0.000 C 
ATOM      9  C   UNL     1      47.796  11.131  10.963  0.00  0.00    +0.000 C 
ATOM     10  C   UNL     1      49.275  11.524  10.954  0.00  0.00    +0.000 C 
ATOM     11  C   UNL     1      50.187  10.307  11.127  0.00  0.00    +0.000 C 
ATOM     12  C   UNL     1      49.780   9.480  12.345  0.00  0.00    +0.000 C 
ENDBRANCH   5   7
BRANCH   1  13
ATOM     13  C   UNL     1      44.685   5.821  12.382  0.00  0.00    +0.000 C 
BRANCH  13  14
ATOM     14  O   UNL     1      44.384   5.888  10.991  0.00  0.00    +0.000 OA
BRANCH  14  20
ATOM     15  F   UNL     1      46.657   4.116   7.294  0.00  0.00    +0.000 F 
ATOM     16  C   UNL     1      45.834   3.910   8.328  0.00  0.00    +0.000 A 
ATOM     17  C   UNL     1      45.327   2.637   8.556  0.00  0.00    +0.000 A 
ATOM     18  C   UNL     1      44.470   2.424   9.632  0.00  0.00    +0.000 A 
ATOM     19  C   UNL     1      44.126   3.488  10.476  0.00  0.00    +0.000 A 
ATOM     20  C   UNL     1      44.640   4.768  10.244  0.00  0.00    +0.000 A 
ATOM     21  C   UNL     1      45.498   4.972   9.162  0.00  0.00    +0.000 A 
ENDBRANCH  14  20
ENDBRANCH  13  14
ENDBRANCH   1  13
TORSDOF 4
ENDMDL
MODEL 8
REMARK VINA RESULT:    -6.043      3.515      7.009
REMARK INTER + INTRA:          -8.269
REMARK INTER:                  -7.611
REMARK INTRA:                  -0.658
REMARK UNBOUND:                -0.813
REMARK  Name = 
REMARK  4 active torsions:
REMARK  status: ('A' for Active; 'I' for Inactive)
REMARK    1  A    between atoms: C_6  and  O_7
REMARK    2  A    between atoms: O_7  and  C_8
REMARK    3  A    between atoms: C_8  and  C_9
REMARK    4  A    between atoms: C_13  and  N_14
REMARK                            x       y       z     vdW  Elec       q    Type
REMARK                         _______ _______ _______ _____ _____    ______ ____
ROOT
ATOM      1  C   UNL     1      45.838   6.201  12.571  0.00  0.00    +0.000 A 
ATOM      2  C   UNL     1      45.591   5.349  13.640  0.00  0.00    +0.000 A 
ATOM      3  N   UNL     1      45.229   4.058  13.506  0.00  0.00    +0.000 NA
ATOM      4  C   UNL     1      45.112   3.594  12.236  0.00  0.00    +0.000 A 
ATOM      5  C   UNL     1      45.320   4.339  11.073  0.00  0.00    +0.000 A 
ATOM      6  C   UNL     1      45.667   5.681  11.280  0.00  0.00    +0.000 A 
ENDROOT
BRANCH   5   7
ATOM      7  N   UNL     1      45.273   3.807   9.799  0.00  0.00    +0.000 N 
ATOM      8  C   UNL     1      44.654   2.509   9.536  0.00  0.00    +0.000 C 
ATOM      9  C   UNL     1      45.555   1.735   8.571  0.00  0.00    +0.000 C 
ATOM     10  C   UNL     1      45.882   2.546   7.315  0.00  0.00    +0.000 C 
ATOM     11  C   UNL     1      46.407   3.942   7.661  0.00  0.00    +0.000 C 
ATOM     12  C   UNL     1      45.468   4.661   8.628  0.00  0.00    +0.000 C 
ENDBRANCH   5   7
BRANCH   1  13
ATOM     13  C   UNL     1      46.296   7.612  12.802  0.00  0.00    +0.000 C 
BRANCH  13  14
ATOM     14  O   UNL     1      45.161   8.472  12.836  0.00  0.00    +0.000 OA
BRANCH  14  20
ATOM     15  F   UNL     1      48.023  11.777  11.145  0.00  0.00    +0.000 F 
ATOM     16  C   UNL     1      46.773  11.323  11.294  0.00  0.00    +0.000 A 
ATOM     17  C   UNL     1      45.715  12.045  10.758  0.00  0.00    +0.000 A 
ATOM     18  C   UNL     1      44.415  11.571  10.914  0.00  0.00    +0.000 A 
ATOM     19  C   UNL     1      44.182  10.375  11.605  0.00  0.00    +0.000 A 
ATOM     20  C   UNL     1      45.252   9.650  12.142  0.00  0.00    +0.000 A 
ATOM     21  C   UNL     1      46.551  10.133  11.981  0.00  0.00    +0.000 A 
ENDBRANCH  14  20
ENDBRANCH  13  14
ENDBRANCH   1  13
TORSDOF 4
ENDMDL
MODEL 9
REMARK VINA RESULT:    -5.967      3.864      7.421
REMARK INTER + INTRA:          -8.175
REMARK INTER:                  -7.392
REMARK INTRA:                  -0.783
REMARK UNBOUND:                -0.813
REMARK  Name = 
REMARK  4 active torsions:
REMARK  status: ('A' for Active; 'I' for Inactive)
REMARK    1  A    between atoms: C_6  and  O_7
REMARK    2  A    between atoms: O_7  and  C_8
REMARK    3  A    between atoms: C_8  and  C_9
REMARK    4  A    between atoms: C_13  and  N_14
REMARK                            x       y       z     vdW  Elec       q    Type
REMARK                         _______ _______ _______ _____ _____    ______ ____
ROOT
ATOM      1  C   UNL     1      47.717   7.513  13.661  0.00  0.00    +0.000 A 
ATOM      2  C   UNL     1      46.960   8.675  13.599  0.00  0.00    +0.000 A 
ATOM      3  N   UNL     1      45.778   8.771  12.958  0.00  0.00    +0.000 NA
ATOM      4  C   UNL     1      45.330   7.644  12.349  0.00  0.00    +0.000 A 
ATOM      5  C   UNL     1      45.992   6.414  12.322  0.00  0.00    +0.000 A 
ATOM      6  C   UNL     1      47.226   6.387  12.984  0.00  0.00    +0.000 A 
ENDROOT
BRANCH   5   7
ATOM      7  N   UNL     1      45.462   5.267  11.763  0.00  0.00    +0.000 N 
ATOM      8  C   UNL     1      45.221   5.160  10.325  0.00  0.00    +0.000 C 
ATOM      9  C   UNL     1      43.856   4.498  10.116  0.00  0.00    +0.000 C 
ATOM     10  C   UNL     1      43.737   3.176  10.878  0.00  0.00    +0.000 C 
ATOM     11  C   UNL     1      44.126   3.332  12.350  0.00  0.00    +0.000 C 
ATOM     12  C   UNL     1      45.492   4.001  12.493  0.00  0.00    +0.000 C 
ENDBRANCH   5   7
BRANCH   1  13
ATOM     13  C   UNL     1      48.996   7.469  14.448  0.00  0.00    +0.000 C 
BRANCH  13  14
ATOM     14  O   UNL     1      49.163   6.163  14.992  0.00  0.00    +0.000 OA
BRANCH  14  20
ATOM     15  F   UNL     1      46.687   3.156  17.600  0.00  0.00    +0.000 F 
ATOM     16  C   UNL     1      47.317   4.334  17.512  0.00  0.00    +0.000 A 
ATOM     17  C   UNL     1      47.345   5.179  18.613  0.00  0.00    +0.000 A 
ATOM     18  C   UNL     1      47.999   6.404  18.519  0.00  0.00    +0.000 A 
ATOM     19  C   UNL     1      48.625   6.775  17.322  0.00  0.00    +0.000 A 
ATOM     20  C   UNL     1      48.594   5.920  16.215  0.00  0.00    +0.000 A 
ATOM     21  C   UNL     1      47.935   4.695  16.318  0.00  0.00    +0.000 A 
ENDBRANCH  14  20
ENDBRANCH  13  14
ENDBRANCH   1  13
TORSDOF 4
ENDMDL
