MODEL 1
REMARK VINA RESULT:    -7.633      0.000      0.000
REMARK INTER + INTRA:         -11.500
REMARK INTER:                 -10.310
REMARK INTRA:                  -1.190
REMARK UNBOUND:                -1.190
REMARK  Name = 
REMARK  7 active torsions:
REMARK  status: ('A' for Active; 'I' for Inactive)
REMARK    1  A    between atoms: C_1  and  N_2
REMARK    2  A    between atoms: N_2  and  C_3
REMARK    3  A    between atoms: C_3  and  C_4
REMARK    4  A    between atoms: C_7  and  C_8
REMARK    5  A    between atoms: C_8  and  C_9
REMARK    6  A    between atoms: C_9  and  C_10
REMARK    7  A    between atoms: C_18  and  C_20
REMARK                            x       y       z     vdW  Elec       q    Type
REMARK                         _______ _______ _______ _____ _____    ______ ____
ROOT
ATOM      1  C   UNL     1      46.242   8.482  12.337  0.00  0.00    +0.000 C 
ATOM      2  N   UNL     1      46.012   7.049  12.173  0.00  0.00    +0.000 N 
ATOM      3  C   UNL     1      44.745   6.660  11.717  0.00  0.00    +0.000 C 
ATOM      4  O   UNL     1      43.880   7.488  11.445  0.00  0.00    +0.000 OA
ENDROOT
BRANCH   3   5
ATOM      5  C   UNL     1      44.436   5.228  11.588  0.00  0.00    +0.000 A 
ATOM      6  C   UNL     1      43.708   4.491  12.507  0.00  0.00    +0.000 A 
ATOM      7  S   UNL     1      43.457   2.869  12.039  0.00  0.00    +0.000 S 
ATOM      8  C   UNL     1      44.180   3.142  10.523  0.00  0.00    +0.000 A 
ATOM      9  N   UNL     1      44.194   2.176   9.568  0.00  0.00    +0.000 NA
ATOM     10  C   UNL     1      44.701   2.557   8.441  0.00  0.00    +0.000 A 
ATOM     11  N   UNL     1      45.238   3.794   8.201  0.00  0.00    +0.000 N 
ATOM     12  C   UNL     1      45.388   4.746   9.187  0.00  0.00    +0.000 A 
ATOM     13  O   UNL     1      46.105   5.724   9.016  0.00  0.00    +0.000 OA
ATOM     14  C   UNL     1      44.702   4.418  10.424  0.00  0.00    +0.000 A 
ATOM     15  H   UNL     1      45.688   3.999   7.322  0.00  0.00    +0.000 HD
ENDBRANCH   3   5
BRANCH   2  16
ATOM     16  C   UNL     1      47.131   6.119  12.375  0.00  0.00    +0.000 C 
BRANCH  16  17
ATOM     17  C   UNL     1      47.458   5.721  13.791  0.00  0.00    +0.000 A 
ATOM     18  C   UNL     1      46.862   4.606  14.364  0.00  0.00    +0.000 A 
ATOM     19  C   UNL     1      47.196   4.265  15.668  0.00  0.00    +0.000 A 
ATOM     20  C   UNL     1      48.139   5.019  16.374  0.00  0.00    +0.000 A 
ATOM     21  C   UNL     1      48.667   6.132  15.727  0.00  0.00    +0.000 A 
ATOM     22  N   UNL     1      48.353   6.492  14.463  0.00  0.00    +0.000 NA
BRANCH  20  23
ATOM     23  C   UNL     1      48.559   4.702  17.789  0.00  0.00    +0.000 C 
BRANCH  23  24
ATOM     24  C   UNL     1      50.053   4.928  18.050  0.00  0.00    +0.000 C 
BRANCH  24  25
ATOM     25  C   UNL     1      50.874   3.679  17.895  0.00  0.00    +0.000 A 
ATOM     26  C   UNL     1      52.203   3.643  18.325  0.00  0.00    +0.000 A 
ATOM     27  C   UNL     1      52.907   2.457  18.204  0.00  0.00    +0.000 A 
ATOM     28  N   UNL     1      52.388   1.326  17.682  0.00  0.00    +0.000 NA
ATOM     29  C   UNL     1      51.107   1.386  17.259  0.00  0.00    +0.000 A 
ATOM     30  C   UNL     1      50.321   2.523  17.338  0.00  0.00    +0.000 A 
ENDBRANCH  24  25
ENDBRANCH  23  24
ENDBRANCH  20  23
ENDBRANCH  16  17
ENDBRANCH   2  16
TORSDOF 6
ENDMDL
MODEL 2
REMARK VINA RESULT:    -7.560      3.717      8.598
REMARK INTER + INTRA:         -11.402
REMARK INTER:                 -10.375
REMARK INTRA:                  -1.027
REMARK UNBOUND:                -1.190
REMARK  Name = 
REMARK  7 active torsions:
REMARK  status: ('A' for Active; 'I' for Inactive)
REMARK    1  A    between atoms: C_1  and  N_2
REMARK    2  A    between atoms: N_2  and  C_3
REMARK    3  A    between atoms: C_3  and  C_4
REMARK    4  A    between atoms: C_7  and  C_8
REMARK    5  A    between atoms: C_8  and  C_9
REMARK    6  A    between atoms: C_9  and  C_10
REMARK    7  A    between atoms: C_18  and  C_20
REMARK                            x       y       z     vdW  Elec       q    Type
REMARK                         _______ _______ _______ _____ _____    ______ ____
ROOT
ATOM      1  C   UNL     1      49.550   7.738  12.885  0.00  0.00    +0.000 C 
ATOM      2  N   UNL     1      48.729   7.227  13.979  0.00  0.00    +0.000 N 
ATOM      3  C   UNL     1      49.403   6.796  15.130  0.00  0.00    +0.000 C 
ATOM      4  O   UNL     1      50.626   6.871  15.221  0.00  0.00    +0.000 OA
ENDROOT
BRANCH   3   5
ATOM      5  C   UNL     1      48.633   6.219  16.241  0.00  0.00    +0.000 A 
ATOM      6  C   UNL     1      48.137   4.926  16.270  0.00  0.00    +0.000 A 
ATOM      7  S   UNL     1      47.346   4.530  17.730  0.00  0.00    +0.000 S 
ATOM      8  C   UNL     1      47.777   6.020  18.427  0.00  0.00    +0.000 A 
ATOM      9  N   UNL     1      47.503   6.291  19.730  0.00  0.00    +0.000 NA
ATOM     10  C   UNL     1      47.964   7.427  20.140  0.00  0.00    +0.000 A 
ATOM     11  N   UNL     1      48.627   8.334  19.355  0.00  0.00    +0.000 N 
ATOM     12  C   UNL     1      48.784   8.169  17.995  0.00  0.00    +0.000 A 
ATOM     13  O   UNL     1      49.133   9.102  17.283  0.00  0.00    +0.000 OA
ATOM     14  C   UNL     1      48.415   6.847  17.521  0.00  0.00    +0.000 A 
ATOM     15  H   UNL     1      48.892   9.236  19.720  0.00  0.00    +0.000 HD
ENDBRANCH   3   5
BRANCH   2  16
ATOM     16  C   UNL     1      47.265   7.299  13.866  0.00  0.00    +0.000 C 
BRANCH  16  17
ATOM     17  C   UNL     1      46.597   6.374  12.883  0.00  0.00    +0.000 A 
ATOM     18  C   UNL     1      46.471   6.737  11.550  0.00  0.00    +0.000 A 
ATOM     19  C   UNL     1      45.858   5.853  10.671  0.00  0.00    +0.000 A 
ATOM     20  C   UNL     1      45.407   4.608  11.123  0.00  0.00    +0.000 A 
ATOM     21  C   UNL     1      45.557   4.341  12.480  0.00  0.00    +0.000 A 
ATOM     22  N   UNL     1      46.140   5.185  13.359  0.00  0.00    +0.000 NA
BRANCH  20  23
ATOM     23  C   UNL     1      44.743   3.593  10.226  0.00  0.00    +0.000 C 
BRANCH  23  24
ATOM     24  C   UNL     1      44.921   3.885   8.731  0.00  0.00    +0.000 C 
BRANCH  24  25
ATOM     25  C   UNL     1      45.924   2.984   8.069  0.00  0.00    +0.000 A 
ATOM     26  C   UNL     1      45.952   1.617   8.358  0.00  0.00    +0.000 A 
ATOM     27  C   UNL     1      46.863   0.817   7.691  0.00  0.00    +0.000 A 
ATOM     28  N   UNL     1      47.741   1.281   6.776  0.00  0.00    +0.000 NA
ATOM     29  C   UNL     1      47.707   2.607   6.521  0.00  0.00    +0.000 A 
ATOM     30  C   UNL     1      46.834   3.488   7.136  0.00  0.00    +0.000 A 
ENDBRANCH  24  25
ENDBRANCH  23  24
ENDBRANCH  20  23
ENDBRANCH  16  17
ENDBRANCH   2  16
TORSDOF 6
ENDMDL
MODEL 3
REMARK VINA RESULT:    -7.203      3.809      8.392
REMARK INTER + INTRA:         -10.920
REMARK INTER:                  -9.747
REMARK INTRA:                  -1.173
REMARK UNBOUND:                -1.190
REMARK  Name = 
REMARK  7 active torsions:
REMARK  status: ('A' for Active; 'I' for Inactive)
REMARK    1  A    between atoms: C_1  and  N_2
REMARK    2  A    between atoms: N_2  and  C_3
REMARK    3  A    between atoms: C_3  and  C_4
REMARK    4  A    between atoms: C_7  and  C_8
REMARK    5  A    between atoms: C_8  and  C_9
REMARK    6  A    between atoms: C_9  and  C_10
REMARK    7  A    between atoms: C_18  and  C_20
REMARK                            x       y       z     vdW  Elec       q    Type
REMARK                         _______ _______ _______ _____ _____    ______ ____
ROOT
ATOM      1  C   UNL     1      49.604   7.424  12.585  0.00  0.00    +0.000 C 
ATOM      2  N   UNL     1      48.952   7.699  13.861  0.00  0.00    +0.000 N 
ATOM      3  C   UNL     1      49.788   7.936  14.962  0.00  0.00    +0.000 C 
ATOM      4  O   UNL     1      51.010   7.936  14.848  0.00  0.00    +0.000 OA
ENDROOT
BRANCH   3   5
ATOM      5  C   UNL     1      49.188   8.162  16.285  0.00  0.00    +0.000 A 
ATOM      6  C   UNL     1      48.980   9.407  16.855  0.00  0.00    +0.000 A 
ATOM      7  S   UNL     1      48.198   9.343  18.370  0.00  0.00    +0.000 S 
ATOM      8  C   UNL     1      47.973   7.662  18.241  0.00  0.00    +0.000 A 
ATOM      9  N   UNL     1      47.256   6.976  19.168  0.00  0.00    +0.000 NA
ATOM     10  C   UNL     1      47.101   5.722  18.893  0.00  0.00    +0.000 A 
ATOM     11  N   UNL     1      47.637   5.086  17.804  0.00  0.00    +0.000 N 
ATOM     12  C   UNL     1      48.500   5.709  16.927  0.00  0.00    +0.000 A 
ATOM     13  O   UNL     1      49.169   5.059  16.132  0.00  0.00    +0.000 OA
ATOM     14  C   UNL     1      48.585   7.146  17.113  0.00  0.00    +0.000 A 
ATOM     15  H   UNL     1      47.541   4.089  17.690  0.00  0.00    +0.000 HD
ENDBRANCH   3   5
BRANCH   2  16
ATOM     16  C   UNL     1      47.488   7.828  13.902  0.00  0.00    +0.000 C 
BRANCH  16  17
ATOM     17  C   UNL     1      46.681   6.842  13.099  0.00  0.00    +0.000 A 
ATOM     18  C   UNL     1      46.083   7.228  11.907  0.00  0.00    +0.000 A 
ATOM     19  C   UNL     1      45.355   6.289  11.189  0.00  0.00    +0.000 A 
ATOM     20  C   UNL     1      45.256   4.971  11.650  0.00  0.00    +0.000 A 
ATOM     21  C   UNL     1      45.870   4.682  12.865  0.00  0.00    +0.000 A 
ATOM     22  N   UNL     1      46.576   5.579  13.588  0.00  0.00    +0.000 NA
BRANCH  20  23
ATOM     23  C   UNL     1      44.493   3.894  10.919  0.00  0.00    +0.000 C 
BRANCH  23  24
ATOM     24  C   UNL     1      44.373   4.143   9.410  0.00  0.00    +0.000 C 
BRANCH  24  25
ATOM     25  C   UNL     1      45.326   3.312   8.598  0.00  0.00    +0.000 A 
ATOM     26  C   UNL     1      46.143   3.906   7.632  0.00  0.00    +0.000 A 
ATOM     27  C   UNL     1      47.038   3.109   6.940  0.00  0.00    +0.000 A 
ATOM     28  N   UNL     1      47.165   1.779   7.135  0.00  0.00    +0.000 NA
ATOM     29  C   UNL     1      46.356   1.223   8.062  0.00  0.00    +0.000 A 
ATOM     30  C   UNL     1      45.430   1.935   8.805  0.00  0.00    +0.000 A 
ENDBRANCH  24  25
ENDBRANCH  23  24
ENDBRANCH  20  23
ENDBRANCH  16  17
ENDBRANCH   2  16
TORSDOF 6
ENDMDL
MODEL 4
REMARK VINA RESULT:    -7.172      2.112      3.334
REMARK INTER + INTRA:         -10.878
REMARK INTER:                  -9.625
REMARK INTRA:                  -1.253
REMARK UNBOUND:                -1.190
REMARK  Name = 
REMARK  7 active torsions:
REMARK  status: ('A' for Active; 'I' for Inactive)
REMARK    1  A    between atoms: C_1  and  N_2
REMARK    2  A    between atoms: N_2  and  C_3
REMARK    3  A    between atoms: C_3  and  C_4
REMARK    4  A    between atoms: C_7  and  C_8
REMARK    5  A    between atoms: C_8  and  C_9
REMARK    6  A    between atoms: C_9  and  C_10
REMARK    7  A    between atoms: C_18  and  C_20
REMARK                            x       y       z     vdW  Elec       q    Type
REMARK                         _______ _______ _______ _____ _____    ______ ____
ROOT
ATOM      1  C   UNL     1      46.230   8.505  12.257  0.00  0.00    +0.000 C 
ATOM      2  N   UNL     1      46.033   7.067  12.102  0.00  0.00    +0.000 N 
ATOM      3  C   UNL     1      44.779   6.646  11.637  0.00  0.00    +0.000 C 
ATOM      4  O   UNL     1      43.899   7.452  11.351  0.00  0.00    +0.000 OA
ENDROOT
BRANCH   3   5
ATOM      5  C   UNL     1      44.503   5.207  11.516  0.00  0.00    +0.000 A 
ATOM      6  C   UNL     1      43.781   4.461  12.434  0.00  0.00    +0.000 A 
ATOM      7  S   UNL     1      43.572   2.830  11.976  0.00  0.00    +0.000 S 
ATOM      8  C   UNL     1      44.304   3.107  10.465  0.00  0.00    +0.000 A 
ATOM      9  N   UNL     1      44.349   2.135   9.518  0.00  0.00    +0.000 NA
ATOM     10  C   UNL     1      44.860   2.517   8.394  0.00  0.00    +0.000 A 
ATOM     11  N   UNL     1      45.373   3.764   8.149  0.00  0.00    +0.000 N 
ATOM     12  C   UNL     1      45.491   4.727   9.129  0.00  0.00    +0.000 A 
ATOM     13  O   UNL     1      46.189   5.719   8.958  0.00  0.00    +0.000 OA
ATOM     14  C   UNL     1      44.799   4.394  10.362  0.00  0.00    +0.000 A 
ATOM     15  H   UNL     1      45.828   3.972   7.274  0.00  0.00    +0.000 HD
ENDBRANCH   3   5
BRANCH   2  16
ATOM     16  C   UNL     1      47.171   6.162  12.322  0.00  0.00    +0.000 C 
BRANCH  16  17
ATOM     17  C   UNL     1      47.530   5.831  13.747  0.00  0.00    +0.000 A 
ATOM     18  C   UNL     1      46.923   4.765  14.396  0.00  0.00    +0.000 A 
ATOM     19  C   UNL     1      47.288   4.484  15.706  0.00  0.00    +0.000 A 
ATOM     20  C   UNL     1      48.272   5.248  16.343  0.00  0.00    +0.000 A 
ATOM     21  C   UNL     1      48.809   6.310  15.621  0.00  0.00    +0.000 A 
ATOM     22  N   UNL     1      48.466   6.611  14.350  0.00  0.00    +0.000 NA
BRANCH  20  23
ATOM     23  C   UNL     1      48.727   4.995  17.759  0.00  0.00    +0.000 C 
BRANCH  23  24
ATOM     24  C   UNL     1      47.581   4.966  18.777  0.00  0.00    +0.000 C 
BRANCH  24  25
ATOM     25  C   UNL     1      47.545   6.181  19.659  0.00  0.00    +0.000 A 
ATOM     26  C   UNL     1      47.324   6.056  21.034  0.00  0.00    +0.000 A 
ATOM     27  C   UNL     1      47.345   7.198  21.815  0.00  0.00    +0.000 A 
ATOM     28  N   UNL     1      47.557   8.438  21.326  0.00  0.00    +0.000 NA
ATOM     29  C   UNL     1      47.755   8.539  19.994  0.00  0.00    +0.000 A 
ATOM     30  C   UNL     1      47.752   7.457  19.130  0.00  0.00    +0.000 A 
ENDBRANCH  24  25
ENDBRANCH  23  24
ENDBRANCH  20  23
ENDBRANCH  16  17
ENDBRANCH   2  16
TORSDOF 6
ENDMDL
MODEL 5
REMARK VINA RESULT:    -7.105      1.512      2.382
REMARK INTER + INTRA:         -10.787
REMARK INTER:                  -9.569
REMARK INTRA:                  -1.218
REMARK UNBOUND:                -1.190
REMARK  Name = 
REMARK  7 active torsions:
REMARK  status: ('A' for Active; 'I' for Inactive)
REMARK    1  A    between atoms: C_1  and  N_2
REMARK    2  A    between atoms: N_2  and  C_3
REMARK    3  A    between atoms: C_3  and  C_4
REMARK    4  A    between atoms: C_7  and  C_8
REMARK    5  A    between atoms: C_8  and  C_9
REMARK    6  A    between atoms: C_9  and  C_10
REMARK    7  A    between atoms: C_18  and  C_20
REMARK                            x       y       z     vdW  Elec       q    Type
REMARK                         _______ _______ _______ _____ _____    ______ ____
ROOT
ATOM      1  C   UNL     1      46.261   8.944  12.892  0.00  0.00    +0.000 C 
ATOM      2  N   UNL     1      46.204   7.642  12.235  0.00  0.00    +0.000 N 
ATOM      3  C   UNL     1      45.080   7.383  11.438  0.00  0.00    +0.000 C 
ATOM      4  O   UNL     1      44.199   8.224  11.282  0.00  0.00    +0.000 OA
ENDROOT
BRANCH   3   5
ATOM      5  C   UNL     1      44.940   6.067  10.798  0.00  0.00    +0.000 A 
ATOM      6  C   UNL     1      45.532   5.706   9.597  0.00  0.00    +0.000 A 
ATOM      7  S   UNL     1      45.239   4.085   9.152  0.00  0.00    +0.000 S 
ATOM      8  C   UNL     1      44.444   3.770  10.622  0.00  0.00    +0.000 A 
ATOM      9  N   UNL     1      44.031   2.517  10.943  0.00  0.00    +0.000 NA
ATOM     10  C   UNL     1      43.520   2.417  12.126  0.00  0.00    +0.000 A 
ATOM     11  N   UNL     1      43.340   3.462  12.994  0.00  0.00    +0.000 N 
ATOM     12  C   UNL     1      43.598   4.771  12.647  0.00  0.00    +0.000 A 
ATOM     13  O   UNL     1      43.181   5.698  13.330  0.00  0.00    +0.000 OA
ATOM     14  C   UNL     1      44.308   4.913  11.388  0.00  0.00    +0.000 A 
ATOM     15  H   UNL     1      42.863   3.327  13.872  0.00  0.00    +0.000 HD
ENDBRANCH   3   5
BRANCH   2  16
ATOM     16  C   UNL     1      47.357   6.736  12.343  0.00  0.00    +0.000 C 
BRANCH  16  17
ATOM     17  C   UNL     1      47.550   6.010  13.649  0.00  0.00    +0.000 A 
ATOM     18  C   UNL     1      48.341   6.558  14.648  0.00  0.00    +0.000 A 
ATOM     19  C   UNL     1      48.487   5.864  15.842  0.00  0.00    +0.000 A 
ATOM     20  C   UNL     1      47.821   4.650  16.037  0.00  0.00    +0.000 A 
ATOM     21  C   UNL     1      47.068   4.167  14.972  0.00  0.00    +0.000 A 
ATOM     22  N   UNL     1      46.916   4.816  13.796  0.00  0.00    +0.000 NA
BRANCH  20  23
ATOM     23  C   UNL     1      47.923   3.846  17.310  0.00  0.00    +0.000 C 
BRANCH  23  24
ATOM     24  C   UNL     1      48.695   2.531  17.146  0.00  0.00    +0.000 C 
BRANCH  24  25
ATOM     25  C   UNL     1      50.149   2.652  17.507  0.00  0.00    +0.000 A 
ATOM     26  C   UNL     1      50.641   3.819  18.098  0.00  0.00    +0.000 A 
ATOM     27  C   UNL     1      51.977   3.868  18.455  0.00  0.00    +0.000 A 
ATOM     28  N   UNL     1      52.845   2.853  18.258  0.00  0.00    +0.000 NA
ATOM     29  C   UNL     1      52.353   1.740  17.673  0.00  0.00    +0.000 A 
ATOM     30  C   UNL     1      51.033   1.595  17.280  0.00  0.00    +0.000 A 
ENDBRANCH  24  25
ENDBRANCH  23  24
ENDBRANCH  20  23
ENDBRANCH  16  17
ENDBRANCH   2  16
TORSDOF 6
ENDMDL
MODEL 6
REMARK VINA RESULT:    -6.941      4.627      8.433
REMARK INTER + INTRA:         -10.566
REMARK INTER:                  -9.447
REMARK INTRA:                  -1.120
REMARK UNBOUND:                -1.190
REMARK  Name = 
REMARK  7 active torsions:
REMARK  status: ('A' for Active; 'I' for Inactive)
REMARK    1  A    between atoms: C_1  and  N_2
REMARK    2  A    between atoms: N_2  and  C_3
REMARK    3  A    between atoms: C_3  and  C_4
REMARK    4  A    between atoms: C_7  and  C_8
REMARK    5  A    between atoms: C_8  and  C_9
REMARK    6  A    between atoms: C_9  and  C_10
REMARK    7  A    between atoms: C_18  and  C_20
REMARK                            x       y       z     vdW  Elec       q    Type
REMARK                         _______ _______ _______ _____ _____    ______ ____
ROOT
ATOM      1  C   UNL     1      45.502   9.160  12.895  0.00  0.00    +0.000 C 
ATOM      2  N   UNL     1      46.866   8.641  12.894  0.00  0.00    +0.000 N 
ATOM      3  C   UNL     1      47.897   9.568  12.692  0.00  0.00    +0.000 C 
ATOM      4  O   UNL     1      47.662  10.765  12.549  0.00  0.00    +0.000 OA
ENDROOT
BRANCH   3   5
ATOM      5  C   UNL     1      49.287   9.094  12.624  0.00  0.00    +0.000 A 
ATOM      6  C   UNL     1      49.984   8.856  11.451  0.00  0.00    +0.000 A 
ATOM      7  S   UNL     1      51.604   8.381  11.702  0.00  0.00    +0.000 S 
ATOM      8  C   UNL     1      51.470   8.630  13.379  0.00  0.00    +0.000 A 
ATOM      9  N   UNL     1      52.550   8.511  14.195  0.00  0.00    +0.000 NA
ATOM     10  C   UNL     1      52.313   8.811  15.429  0.00  0.00    +0.000 A 
ATOM     11  N   UNL     1      51.089   9.170  15.929  0.00  0.00    +0.000 N 
ATOM     12  C   UNL     1      49.938   9.147  15.169  0.00  0.00    +0.000 A 
ATOM     13  O   UNL     1      48.833   9.206  15.695  0.00  0.00    +0.000 OA
ATOM     14  C   UNL     1      50.180   8.960  13.750  0.00  0.00    +0.000 A 
ATOM     15  H   UNL     1      50.957   9.316  16.918  0.00  0.00    +0.000 HD
ENDBRANCH   3   5
BRANCH   2  16
ATOM     16  C   UNL     1      47.090   7.224  13.216  0.00  0.00    +0.000 C 
BRANCH  16  17
ATOM     17  C   UNL     1      46.397   6.198  12.358  0.00  0.00    +0.000 A 
ATOM     18  C   UNL     1      46.188   6.437  11.007  0.00  0.00    +0.000 A 
ATOM     19  C   UNL     1      45.555   5.463  10.246  0.00  0.00    +0.000 A 
ATOM     20  C   UNL     1      45.166   4.253  10.831  0.00  0.00    +0.000 A 
ATOM     21  C   UNL     1      45.397   4.112  12.196  0.00  0.00    +0.000 A 
ATOM     22  N   UNL     1      46.001   5.046  12.962  0.00  0.00    +0.000 NA
BRANCH  20  23
ATOM     23  C   UNL     1      44.484   3.146  10.066  0.00  0.00    +0.000 C 
BRANCH  23  24
ATOM     24  C   UNL     1      44.571   3.307   8.543  0.00  0.00    +0.000 C 
BRANCH  24  25
ATOM     25  C   UNL     1      45.763   2.616   7.944  0.00  0.00    +0.000 A 
ATOM     26  C   UNL     1      46.692   3.330   7.183  0.00  0.00    +0.000 A 
ATOM     27  C   UNL     1      47.798   2.660   6.689  0.00  0.00    +0.000 A 
ATOM     28  N   UNL     1      48.032   1.347   6.890  0.00  0.00    +0.000 NA
ATOM     29  C   UNL     1      47.115   0.672   7.615  0.00  0.00    +0.000 A 
ATOM     30  C   UNL     1      45.978   1.251   8.151  0.00  0.00    +0.000 A 
ENDBRANCH  24  25
ENDBRANCH  23  24
ENDBRANCH  20  23
ENDBRANCH  16  17
ENDBRANCH   2  16
TORSDOF 6
ENDMDL
MODEL 7
REMARK VINA RESULT:    -6.914      3.239      8.393
REMARK INTER + INTRA:         -10.529
REMARK INTER:                  -9.491
REMARK INTRA:                  -1.038
REMARK UNBOUND:                -1.190
REMARK  Name = 
REMARK  7 active torsions:
REMARK  status: ('A' for Active; 'I' for Inactive)
REMARK    1  A    between atoms: C_1  and  N_2
REMARK    2  A    between atoms: N_2  and  C_3
REMARK    3  A    between atoms: C_3  and  C_4
REMARK    4  A    between atoms: C_7  and  C_8
REMARK    5  A    between atoms: C_8  and  C_9
REMARK    6  A    between atoms: C_9  and  C_10
REMARK    7  A    between atoms: C_18  and  C_20
REMARK                            x       y       z     vdW  Elec       q    Type
REMARK                         _______ _______ _______ _____ _____    ______ ____
ROOT
ATOM      1  C   UNL     1      47.144   8.762  13.830  0.00  0.00    +0.000 C 
ATOM      2  N   UNL     1      48.238   7.877  14.221  0.00  0.00    +0.000 N 
ATOM      3  C   UNL     1      48.830   8.114  15.469  0.00  0.00    +0.000 C 
ATOM      4  O   UNL     1      48.429   9.009  16.208  0.00  0.00    +0.000 OA
ENDROOT
BRANCH   3   5
ATOM      5  C   UNL     1      49.973   7.291  15.891  0.00  0.00    +0.000 A 
ATOM      6  C   UNL     1      51.301   7.670  15.783  0.00  0.00    +0.000 A 
ATOM      7  S   UNL     1      52.392   6.527  16.426  0.00  0.00    +0.000 S 
ATOM      8  C   UNL     1      51.118   5.562  17.008  0.00  0.00    +0.000 A 
ATOM      9  N   UNL     1      51.360   4.464  17.769  0.00  0.00    +0.000 NA
ATOM     10  C   UNL     1      50.294   3.880  18.207  0.00  0.00    +0.000 A 
ATOM     11  N   UNL     1      49.012   4.266  17.913  0.00  0.00    +0.000 N 
ATOM     12  C   UNL     1      48.723   5.274  17.018  0.00  0.00    +0.000 A 
ATOM     13  O   UNL     1      47.592   5.417  16.572  0.00  0.00    +0.000 OA
ATOM     14  C   UNL     1      49.884   6.049  16.618  0.00  0.00    +0.000 A 
ATOM     15  H   UNL     1      48.224   3.719  18.225  0.00  0.00    +0.000 HD
ENDBRANCH   3   5
BRANCH   2  16
ATOM     16  C   UNL     1      48.575   6.735  13.358  0.00  0.00    +0.000 C 
BRANCH  16  17
ATOM     17  C   UNL     1      47.436   6.008  12.692  0.00  0.00    +0.000 A 
ATOM     18  C   UNL     1      46.903   4.861  13.264  0.00  0.00    +0.000 A 
ATOM     19  C   UNL     1      45.847   4.224  12.626  0.00  0.00    +0.000 A 
ATOM     20  C   UNL     1      45.316   4.751  11.444  0.00  0.00    +0.000 A 
ATOM     21  C   UNL     1      45.929   5.891  10.933  0.00  0.00    +0.000 A 
ATOM     22  N   UNL     1      46.963   6.526  11.528  0.00  0.00    +0.000 NA
BRANCH  20  23
ATOM     23  C   UNL     1      44.164   4.120  10.702  0.00  0.00    +0.000 C 
BRANCH  23  24
ATOM     24  C   UNL     1      44.250   4.286   9.180  0.00  0.00    +0.000 C 
BRANCH  24  25
ATOM     25  C   UNL     1      45.275   3.387   8.546  0.00  0.00    +0.000 A 
ATOM     26  C   UNL     1      45.281   2.015   8.814  0.00  0.00    +0.000 A 
ATOM     27  C   UNL     1      46.214   1.220   8.173  0.00  0.00    +0.000 A 
ATOM     28  N   UNL     1      47.134   1.692   7.305  0.00  0.00    +0.000 NA
ATOM     29  C   UNL     1      47.120   3.021   7.071  0.00  0.00    +0.000 A 
ATOM     30  C   UNL     1      46.227   3.899   7.662  0.00  0.00    +0.000 A 
ENDBRANCH  24  25
ENDBRANCH  23  24
ENDBRANCH  20  23
ENDBRANCH  16  17
ENDBRANCH   2  16
TORSDOF 6
ENDMDL
MODEL 8
REMARK VINA RESULT:    -6.800      3.103      8.256
REMARK INTER + INTRA:         -10.375
REMARK INTER:                  -9.328
REMARK INTRA:                  -1.047
REMARK UNBOUND:                -1.190
REMARK  Name = 
REMARK  7 active torsions:
REMARK  status: ('A' for Active; 'I' for Inactive)
REMARK    1  A    between atoms: C_1  and  N_2
REMARK    2  A    between atoms: N_2  and  C_3
REMARK    3  A    between atoms: C_3  and  C_4
REMARK    4  A    between atoms: C_7  and  C_8
REMARK    5  A    between atoms: C_8  and  C_9
REMARK    6  A    between atoms: C_9  and  C_10
REMARK    7  A    between atoms: C_18  and  C_20
REMARK                            x       y       z     vdW  Elec       q    Type
REMARK                         _______ _______ _______ _____ _____    ______ ____
ROOT
ATOM      1  C   UNL     1      49.233   8.960  16.668  0.00  0.00    +0.000 C 
ATOM      2  N   UNL     1      49.123   7.510  16.542  0.00  0.00    +0.000 N 
ATOM      3  C   UNL     1      48.586   6.818  17.636  0.00  0.00    +0.000 C 
ATOM      4  O   UNL     1      48.203   7.409  18.641  0.00  0.00    +0.000 OA
ENDROOT
BRANCH   3   5
ATOM      5  C   UNL     1      48.504   5.350  17.589  0.00  0.00    +0.000 A 
ATOM      6  C   UNL     1      47.354   4.632  17.305  0.00  0.00    +0.000 A 
ATOM      7  S   UNL     1      47.597   2.944  17.255  0.00  0.00    +0.000 S 
ATOM      8  C   UNL     1      49.276   3.128  17.457  0.00  0.00    +0.000 A 
ATOM      9  N   UNL     1      50.112   2.060  17.391  0.00  0.00    +0.000 NA
ATOM     10  C   UNL     1      51.365   2.365  17.479  0.00  0.00    +0.000 A 
ATOM     11  N   UNL     1      51.852   3.631  17.675  0.00  0.00    +0.000 N 
ATOM     12  C   UNL     1      51.034   4.716  17.906  0.00  0.00    +0.000 A 
ATOM     13  O   UNL     1      51.489   5.767  18.342  0.00  0.00    +0.000 OA
ATOM     14  C   UNL     1      49.627   4.448  17.671  0.00  0.00    +0.000 A 
ATOM     15  H   UNL     1      52.838   3.789  17.812  0.00  0.00    +0.000 HD
ENDBRANCH   3   5
BRANCH   2  16
ATOM     16  C   UNL     1      49.463   6.877  15.259  0.00  0.00    +0.000 C 
BRANCH  16  17
ATOM     17  C   UNL     1      48.389   6.825  14.204  0.00  0.00    +0.000 A 
ATOM     18  C   UNL     1      48.049   7.966  13.490  0.00  0.00    +0.000 A 
ATOM     19  C   UNL     1      47.061   7.877  12.518  0.00  0.00    +0.000 A 
ATOM     20  C   UNL     1      46.446   6.650  12.248  0.00  0.00    +0.000 A 
ATOM     21  C   UNL     1      46.836   5.566  13.028  0.00  0.00    +0.000 A 
ATOM     22  N   UNL     1      47.787   5.626  13.987  0.00  0.00    +0.000 NA
BRANCH  20  23
ATOM     23  C   UNL     1      45.375   6.474  11.200  0.00  0.00    +0.000 C 
BRANCH  23  24
ATOM     24  C   UNL     1      44.625   5.141  11.306  0.00  0.00    +0.000 C 
BRANCH  24  25
ATOM     25  C   UNL     1      44.901   4.215  10.156  0.00  0.00    +0.000 A 
ATOM     26  C   UNL     1      45.493   4.694   8.983  0.00  0.00    +0.000 A 
ATOM     27  C   UNL     1      45.770   3.796   7.968  0.00  0.00    +0.000 A 
ATOM     28  N   UNL     1      45.494   2.477   8.035  0.00  0.00    +0.000 NA
ATOM     29  C   UNL     1      44.910   2.037   9.170  0.00  0.00    +0.000 A 
ATOM     30  C   UNL     1      44.593   2.855  10.241  0.00  0.00    +0.000 A 
ENDBRANCH  24  25
ENDBRANCH  23  24
ENDBRANCH  20  23
ENDBRANCH  16  17
ENDBRANCH   2  16
TORSDOF 6
ENDMDL
MODEL 9
REMARK VINA RESULT:    -6.734      4.061      9.152
REMARK INTER + INTRA:         -10.286
REMARK INTER:                  -9.225
REMARK INTRA:                  -1.061
REMARK UNBOUND:                -1.190
REMARK  Name = 
REMARK  7 active torsions:
REMARK  status: ('A' for Active; 'I' for Inactive)
REMARK    1  A    between atoms: C_1  and  N_2
REMARK    2  A    between atoms: N_2  and  C_3
REMARK    3  A    between atoms: C_3  and  C_4
REMARK    4  A    between atoms: C_7  and  C_8
REMARK    5  A    between atoms: C_8  and  C_9
REMARK    6  A    between atoms: C_9  and  C_10
REMARK    7  A    between atoms: C_18  and  C_20
REMARK                            x       y       z     vdW  Elec       q    Type
REMARK                         _______ _______ _______ _____ _____    ______ ____
ROOT
ATOM      1  C   UNL     1      48.845   2.289  16.290  0.00  0.00    +0.000 C 
ATOM      2  N   UNL     1      48.589   3.647  16.759  0.00  0.00    +0.000 N 
ATOM      3  C   UNL     1      49.671   4.338  17.320  0.00  0.00    +0.000 C 
ATOM      4  O   UNL     1      50.787   3.832  17.389  0.00  0.00    +0.000 OA
ENDROOT
BRANCH   3   5
ATOM      5  C   UNL     1      49.460   5.689  17.862  0.00  0.00    +0.000 A 
ATOM      6  C   UNL     1      49.746   6.864  17.186  0.00  0.00    +0.000 A 
ATOM      7  S   UNL     1      49.322   8.271  18.053  0.00  0.00    +0.000 S 
ATOM      8  C   UNL     1      48.601   7.354  19.291  0.00  0.00    +0.000 A 
ATOM      9  N   UNL     1      47.933   7.952  20.311  0.00  0.00    +0.000 NA
ATOM     10  C   UNL     1      47.368   7.125  21.128  0.00  0.00    +0.000 A 
ATOM     11  N   UNL     1      47.452   5.760  21.045  0.00  0.00    +0.000 N 
ATOM     12  C   UNL     1      48.250   5.117  20.122  0.00  0.00    +0.000 A 
ATOM     13  O   UNL     1      48.517   3.927  20.240  0.00  0.00    +0.000 OA
ATOM     14  C   UNL     1      48.782   5.997  19.097  0.00  0.00    +0.000 A 
ATOM     15  H   UNL     1      47.052   5.174  21.762  0.00  0.00    +0.000 HD
ENDBRANCH   3   5
BRANCH   2  16
ATOM     16  C   UNL     1      47.270   4.250  16.516  0.00  0.00    +0.000 C 
BRANCH  16  17
ATOM     17  C   UNL     1      46.986   4.766  15.129  0.00  0.00    +0.000 A 
ATOM     18  C   UNL     1      47.757   5.785  14.587  0.00  0.00    +0.000 A 
ATOM     19  C   UNL     1      47.472   6.228  13.302  0.00  0.00    +0.000 A 
ATOM     20  C   UNL     1      46.445   5.632  12.563  0.00  0.00    +0.000 A 
ATOM     21  C   UNL     1      45.712   4.633  13.196  0.00  0.00    +0.000 A 
ATOM     22  N   UNL     1      45.961   4.189  14.448  0.00  0.00    +0.000 NA
BRANCH  20  23
ATOM     23  C   UNL     1      46.086   6.051  11.158  0.00  0.00    +0.000 C 
BRANCH  23  24
ATOM     24  C   UNL     1      44.858   5.325  10.596  0.00  0.00    +0.000 C 
BRANCH  24  25
ATOM     25  C   UNL     1      45.210   4.255   9.603  0.00  0.00    +0.000 A 
ATOM     26  C   UNL     1      45.837   4.580   8.397  0.00  0.00    +0.000 A 
ATOM     27  C   UNL     1      46.183   3.557   7.532  0.00  0.00    +0.000 A 
ATOM     28  N   UNL     1      45.942   2.252   7.779  0.00  0.00    +0.000 NA
ATOM     29  C   UNL     1      45.322   1.959   8.942  0.00  0.00    +0.000 A 
ATOM     30  C   UNL     1      44.937   2.911   9.871  0.00  0.00    +0.000 A 
ENDBRANCH  24  25
ENDBRANCH  23  24
ENDBRANCH  20  23
ENDBRANCH  16  17
ENDBRANCH   2  16
TORSDOF 6
ENDMDL
