MODEL 1
REMARK VINA RESULT:    -8.395      0.000      0.000
REMARK INTER + INTRA:         -13.993
REMARK INTER:                 -12.811
REMARK INTRA:                  -1.182
REMARK UNBOUND:                -1.182
REMARK  Name = 
REMARK  10 active torsions:
REMARK  status: ('A' for Active; 'I' for Inactive)
REMARK    1  A    between atoms: C_1  and  C_2
REMARK    2  A    between atoms: C_2  and  C_3
REMARK    3  A    between atoms: C_3  and  C_4
REMARK    4  A    between atoms: C_4  and  N_5
REMARK    5  A    between atoms: C_4  and  C_13
REMARK    6  A    between atoms: N_5  and  C_6
REMARK    7  A    between atoms: C_6  and  C_7
REMARK    8  A    between atoms: C_16  and  C_17
REMARK    9  A    between atoms: C_17  and  N_18
REMARK   10  A    between atoms: C_19  and  C_21
REMARK                            x       y       z     vdW  Elec       q    Type
REMARK                         _______ _______ _______ _____ _____    ______ ____
ROOT
ATOM      1  C   UNL     1      45.913   4.386  12.700  0.00  0.00    +0.000 A 
ATOM      2  C   UNL     1      46.323   5.643  12.253  0.00  0.00    +0.000 A 
ATOM      3  C   UNL     1      47.125   6.438  13.068  0.00  0.00    +0.000 A 
ATOM      4  C   UNL     1      47.553   5.952  14.300  0.00  0.00    +0.000 A 
ATOM      5  C   UNL     1      47.116   4.687  14.669  0.00  0.00    +0.000 A 
ATOM      6  N   UNL     1      46.308   3.908  13.910  0.00  0.00    +0.000 NA
ENDROOT
BRANCH   1   7
ATOM      7  C   UNL     1      45.034   3.452  11.840  0.00  0.00    +0.000 C 
BRANCH   7   8
ATOM      8  N   UNL     1      45.065   3.796  10.386  0.00  0.00    +0.000 NA
ATOM      9  H   UNL     1      46.004   4.109  10.146  0.00  0.00    +0.000 HD
BRANCH   8  10
ATOM     10  C   UNL     1      44.751   2.601   9.575  0.00  0.00    +0.000 C 
BRANCH  10  11
ATOM     11  C   UNL     1      45.635   2.357   8.376  0.00  0.00    +0.000 A 
ATOM     12  C   UNL     1      45.937   3.422   7.509  0.00  0.00    +0.000 A 
ATOM     13  C   UNL     1      46.856   3.256   6.480  0.00  0.00    +0.000 A 
ATOM     14  C   UNL     1      47.469   2.025   6.348  0.00  0.00    +0.000 A 
ATOM     15  N   UNL     1      47.203   0.970   7.150  0.00  0.00    +0.000 NA
ATOM     16  C   UNL     1      46.302   1.162   8.148  0.00  0.00    +0.000 A 
ENDBRANCH  10  11
ENDBRANCH   8  10
ENDBRANCH   7   8
BRANCH   7  17
ATOM     17  C   UNL     1      43.593   3.414  12.414  0.00  0.00    +0.000 C 
BRANCH  17  19
ATOM     18  C   UNL     1      42.386   5.522  11.836  0.00  0.00    +0.000 C 
ATOM     19  C   UNL     1      43.025   4.720  12.969  0.00  0.00    +0.000 C 
ENDBRANCH  17  19
ENDBRANCH   7  17
ENDBRANCH   1   7
BRANCH   4  20
ATOM     20  C   UNL     1      48.389   6.784  15.222  0.00  0.00    +0.000 C 
BRANCH  20  21
ATOM     21  N   UNL     1      49.464   6.002  15.775  0.00  0.00    +0.000 N 
ATOM     22  C   UNL     1      49.604   5.836  17.128  0.00  0.00    +0.000 C 
ATOM     23  O   UNL     1      48.789   6.298  17.924  0.00  0.00    +0.000 OA
ATOM     24  H   UNL     1      50.246   5.785  15.165  0.00  0.00    +0.000 HD
BRANCH  22  25
ATOM     25  C   UNL     1      50.745   5.029  17.576  0.00  0.00    +0.000 A 
ATOM     26  C   UNL     1      51.843   5.657  18.147  0.00  0.00    +0.000 A 
ATOM     27  S   UNL     1      53.067   4.578  18.644  0.00  0.00    +0.000 S 
ATOM     28  C   UNL     1      52.193   3.236  18.070  0.00  0.00    +0.000 A 
ATOM     29  N   UNL     1      52.704   1.979  18.161  0.00  0.00    +0.000 NA
ATOM     30  C   UNL     1      51.950   1.058  17.658  0.00  0.00    +0.000 A 
ATOM     31  N   UNL     1      50.727   1.281  17.081  0.00  0.00    +0.000 N 
ATOM     32  C   UNL     1      50.161   2.528  16.990  0.00  0.00    +0.000 A 
ATOM     33  O   UNL     1      49.044   2.690  16.507  0.00  0.00    +0.000 OA
ATOM     34  C   UNL     1      50.974   3.603  17.527  0.00  0.00    +0.000 A 
ATOM     35  H   UNL     1      50.185   0.513  16.710  0.00  0.00    +0.000 HD
ENDBRANCH  22  25
ENDBRANCH  20  21
ENDBRANCH   4  20
TORSDOF 9
ENDMDL
MODEL 2
REMARK VINA RESULT:    -8.174      2.426      3.494
REMARK INTER + INTRA:         -13.656
REMARK INTER:                 -12.449
REMARK INTRA:                  -1.208
REMARK UNBOUND:                -1.182
REMARK  Name = 
REMARK  10 active torsions:
REMARK  status: ('A' for Active; 'I' for Inactive)
REMARK    1  A    between atoms: C_1  and  C_2
REMARK    2  A    between atoms: C_2  and  C_3
REMARK    3  A    between atoms: C_3  and  C_4
REMARK    4  A    between atoms: C_4  and  N_5
REMARK    5  A    between atoms: C_4  and  C_13
REMARK    6  A    between atoms: N_5  and  C_6
REMARK    7  A    between atoms: C_6  and  C_7
REMARK    8  A    between atoms: C_16  and  C_17
REMARK    9  A    between atoms: C_17  and  N_18
REMARK   10  A    between atoms: C_19  and  C_21
REMARK                            x       y       z     vdW  Elec       q    Type
REMARK                         _______ _______ _______ _____ _____    ______ ____
ROOT
ATOM      1  C   UNL     1      45.660   4.393  12.242  0.00  0.00    +0.000 A 
ATOM      2  C   UNL     1      46.070   5.605  11.683  0.00  0.00    +0.000 A 
ATOM      3  C   UNL     1      46.945   6.428  12.388  0.00  0.00    +0.000 A 
ATOM      4  C   UNL     1      47.442   6.012  13.621  0.00  0.00    +0.000 A 
ATOM      5  C   UNL     1      46.998   4.789  14.102  0.00  0.00    +0.000 A 
ATOM      6  N   UNL     1      46.122   3.986  13.453  0.00  0.00    +0.000 NA
ENDROOT
BRANCH   1   7
ATOM      7  C   UNL     1      44.701   3.431  11.506  0.00  0.00    +0.000 C 
BRANCH   7   8
ATOM      8  N   UNL     1      44.713   3.614  10.023  0.00  0.00    +0.000 NA
ATOM      9  H   UNL     1      45.532   4.165   9.771  0.00  0.00    +0.000 HD
BRANCH   8  10
ATOM     10  C   UNL     1      44.809   2.302   9.350  0.00  0.00    +0.000 C 
BRANCH  10  11
ATOM     11  C   UNL     1      45.740   2.227   8.164  0.00  0.00    +0.000 A 
ATOM     12  C   UNL     1      45.916   3.358   7.348  0.00  0.00    +0.000 A 
ATOM     13  C   UNL     1      46.868   3.357   6.335  0.00  0.00    +0.000 A 
ATOM     14  C   UNL     1      47.640   2.223   6.170  0.00  0.00    +0.000 A 
ATOM     15  N   UNL     1      47.499   1.109   6.922  0.00  0.00    +0.000 NA
ATOM     16  C   UNL     1      46.562   1.139   7.905  0.00  0.00    +0.000 A 
ENDBRANCH  10  11
ENDBRANCH   8  10
ENDBRANCH   7   8
BRANCH   7  17
ATOM     17  C   UNL     1      43.277   3.547  12.110  0.00  0.00    +0.000 C 
BRANCH  17  19
ATOM     18  C   UNL     1      42.296   5.819  11.780  0.00  0.00    +0.000 C 
ATOM     19  C   UNL     1      42.913   4.862  12.800  0.00  0.00    +0.000 C 
ENDBRANCH  17  19
ENDBRANCH   7  17
ENDBRANCH   1   7
BRANCH   4  20
ATOM     20  C   UNL     1      48.359   6.879  14.427  0.00  0.00    +0.000 C 
BRANCH  20  21
ATOM     21  N   UNL     1      48.192   6.621  15.834  0.00  0.00    +0.000 N 
ATOM     22  C   UNL     1      49.237   6.195  16.611  0.00  0.00    +0.000 C 
ATOM     23  O   UNL     1      50.371   6.068  16.156  0.00  0.00    +0.000 OA
ATOM     24  H   UNL     1      47.243   6.525  16.182  0.00  0.00    +0.000 HD
BRANCH  22  25
ATOM     25  C   UNL     1      48.944   5.952  18.028  0.00  0.00    +0.000 A 
ATOM     26  C   UNL     1      49.205   4.703  18.575  0.00  0.00    +0.000 A 
ATOM     27  S   UNL     1      48.843   4.595  20.238  0.00  0.00    +0.000 S 
ATOM     28  C   UNL     1      48.278   6.199  20.276  0.00  0.00    +0.000 A 
ATOM     29  N   UNL     1      47.783   6.738  21.421  0.00  0.00    +0.000 NA
ATOM     30  C   UNL     1      47.360   7.953  21.301  0.00  0.00    +0.000 A 
ATOM     31  N   UNL     1      47.396   8.680  20.140  0.00  0.00    +0.000 N 
ATOM     32  C   UNL     1      47.910   8.185  18.966  0.00  0.00    +0.000 A 
ATOM     33  O   UNL     1      47.969   8.876  17.953  0.00  0.00    +0.000 OA
ATOM     34  C   UNL     1      48.386   6.817  19.042  0.00  0.00    +0.000 A 
ATOM     35  H   UNL     1      47.052   9.630  20.114  0.00  0.00    +0.000 HD
ENDBRANCH  22  25
ENDBRANCH  20  21
ENDBRANCH   4  20
TORSDOF 9
ENDMDL
MODEL 3
REMARK VINA RESULT:    -8.143      2.170      2.666
REMARK INTER + INTRA:         -13.610
REMARK INTER:                 -12.372
REMARK INTRA:                  -1.238
REMARK UNBOUND:                -1.182
REMARK  Name = 
REMARK  10 active torsions:
REMARK  status: ('A' for Active; 'I' for Inactive)
REMARK    1  A    between atoms: C_1  and  C_2
REMARK    2  A    between atoms: C_2  and  C_3
REMARK    3  A    between atoms: C_3  and  C_4
REMARK    4  A    between atoms: C_4  and  N_5
REMARK    5  A    between atoms: C_4  and  C_13
REMARK    6  A    between atoms: N_5  and  C_6
REMARK    7  A    between atoms: C_6  and  C_7
REMARK    8  A    between atoms: C_16  and  C_17
REMARK    9  A    between atoms: C_17  and  N_18
REMARK   10  A    between atoms: C_19  and  C_21
REMARK                            x       y       z     vdW  Elec       q    Type
REMARK                         _______ _______ _______ _____ _____    ______ ____
ROOT
ATOM      1  C   UNL     1      45.612   4.316  12.129  0.00  0.00    +0.000 A 
ATOM      2  C   UNL     1      46.013   5.494  11.496  0.00  0.00    +0.000 A 
ATOM      3  C   UNL     1      46.908   6.349  12.133  0.00  0.00    +0.000 A 
ATOM      4  C   UNL     1      47.434   5.999  13.374  0.00  0.00    +0.000 A 
ATOM      5  C   UNL     1      46.998   4.806  13.932  0.00  0.00    +0.000 A 
ATOM      6  N   UNL     1      46.103   3.972  13.349  0.00  0.00    +0.000 NA
ENDROOT
BRANCH   1   7
ATOM      7  C   UNL     1      44.632   3.320  11.471  0.00  0.00    +0.000 C 
BRANCH   7   8
ATOM      8  N   UNL     1      44.566   3.461   9.985  0.00  0.00    +0.000 NA
ATOM      9  H   UNL     1      45.277   4.129   9.690  0.00  0.00    +0.000 HD
BRANCH   8  10
ATOM     10  C   UNL     1      44.851   2.162   9.339  0.00  0.00    +0.000 C 
BRANCH  10  11
ATOM     11  C   UNL     1      45.824   2.190   8.185  0.00  0.00    +0.000 A 
ATOM     12  C   UNL     1      46.032   3.391   7.482  0.00  0.00    +0.000 A 
ATOM     13  C   UNL     1      47.020   3.477   6.509  0.00  0.00    +0.000 A 
ATOM     14  C   UNL     1      47.794   2.358   6.268  0.00  0.00    +0.000 A 
ATOM     15  N   UNL     1      47.624   1.180   6.909  0.00  0.00    +0.000 NA
ATOM     16  C   UNL     1      46.652   1.126   7.857  0.00  0.00    +0.000 A 
ENDBRANCH  10  11
ENDBRANCH   8  10
ENDBRANCH   7   8
BRANCH   7  17
ATOM     17  C   UNL     1      43.239   3.434  12.144  0.00  0.00    +0.000 C 
BRANCH  17  19
ATOM     18  C   UNL     1      42.303   5.707  11.709  0.00  0.00    +0.000 C 
ATOM     19  C   UNL     1      42.874   4.776  12.778  0.00  0.00    +0.000 C 
ENDBRANCH  17  19
ENDBRANCH   7  17
ENDBRANCH   1   7
BRANCH   4  20
ATOM     20  C   UNL     1      48.374   6.904  14.109  0.00  0.00    +0.000 C 
BRANCH  20  21
ATOM     21  N   UNL     1      48.200   6.765  15.532  0.00  0.00    +0.000 N 
ATOM     22  C   UNL     1      48.839   7.596  16.414  0.00  0.00    +0.000 C 
ATOM     23  O   UNL     1      49.543   8.528  16.030  0.00  0.00    +0.000 OA
ATOM     24  H   UNL     1      47.795   5.898  15.871  0.00  0.00    +0.000 HD
BRANCH  22  25
ATOM     25  C   UNL     1      48.596   7.351  17.840  0.00  0.00    +0.000 A 
ATOM     26  C   UNL     1      48.192   8.400  18.654  0.00  0.00    +0.000 A 
ATOM     27  S   UNL     1      47.919   7.943  20.275  0.00  0.00    +0.000 S 
ATOM     28  C   UNL     1      48.379   6.335  19.956  0.00  0.00    +0.000 A 
ATOM     29  N   UNL     1      48.399   5.405  20.948  0.00  0.00    +0.000 NA
ATOM     30  C   UNL     1      48.797   4.235  20.574  0.00  0.00    +0.000 A 
ATOM     31  N   UNL     1      49.168   3.909  19.296  0.00  0.00    +0.000 N 
ATOM     32  C   UNL     1      49.140   4.808  18.258  0.00  0.00    +0.000 A 
ATOM     33  O   UNL     1      49.436   4.474  17.115  0.00  0.00    +0.000 OA
ATOM     34  C   UNL     1      48.714   6.144  18.627  0.00  0.00    +0.000 A 
ATOM     35  H   UNL     1      49.467   2.970  19.069  0.00  0.00    +0.000 HD
ENDBRANCH  22  25
ENDBRANCH  20  21
ENDBRANCH   4  20
TORSDOF 9
ENDMDL
MODEL 4
REMARK VINA RESULT:    -7.834      2.530      2.969
REMARK INTER + INTRA:         -13.138
REMARK INTER:                 -11.632
REMARK INTRA:                  -1.506
REMARK UNBOUND:                -1.182
REMARK  Name = 
REMARK  10 active torsions:
REMARK  status: ('A' for Active; 'I' for Inactive)
REMARK    1  A    between atoms: C_1  and  C_2
REMARK    2  A    between atoms: C_2  and  C_3
REMARK    3  A    between atoms: C_3  and  C_4
REMARK    4  A    between atoms: C_4  and  N_5
REMARK    5  A    between atoms: C_4  and  C_13
REMARK    6  A    between atoms: N_5  and  C_6
REMARK    7  A    between atoms: C_6  and  C_7
REMARK    8  A    between atoms: C_16  and  C_17
REMARK    9  A    between atoms: C_17  and  N_18
REMARK   10  A    between atoms: C_19  and  C_21
REMARK                            x       y       z     vdW  Elec       q    Type
REMARK                         _______ _______ _______ _____ _____    ______ ____
ROOT
ATOM      1  C   UNL     1      45.815   6.222  11.644  0.00  0.00    +0.000 A 
ATOM      2  C   UNL     1      47.095   5.951  12.131  0.00  0.00    +0.000 A 
ATOM      3  C   UNL     1      47.725   6.872  12.964  0.00  0.00    +0.000 A 
ATOM      4  C   UNL     1      47.054   8.031  13.344  0.00  0.00    +0.000 A 
ATOM      5  C   UNL     1      45.779   8.222  12.830  0.00  0.00    +0.000 A 
ATOM      6  N   UNL     1      45.157   7.359  11.991  0.00  0.00    +0.000 NA
ENDROOT
BRANCH   1   7
ATOM      7  C   UNL     1      45.058   5.236  10.726  0.00  0.00    +0.000 C 
BRANCH   7   8
ATOM      8  N   UNL     1      45.478   5.330   9.295  0.00  0.00    +0.000 NA
ATOM      9  H   UNL     1      46.479   5.149   9.238  0.00  0.00    +0.000 HD
BRANCH   8  10
ATOM     10  C   UNL     1      44.774   4.308   8.492  0.00  0.00    +0.000 C 
BRANCH  10  11
ATOM     11  C   UNL     1      45.622   3.179   7.958  0.00  0.00    +0.000 A 
ATOM     12  C   UNL     1      46.578   3.441   6.961  0.00  0.00    +0.000 A 
ATOM     13  C   UNL     1      47.462   2.450   6.553  0.00  0.00    +0.000 A 
ATOM     14  C   UNL     1      47.381   1.214   7.165  0.00  0.00    +0.000 A 
ATOM     15  N   UNL     1      46.473   0.912   8.120  0.00  0.00    +0.000 NA
ATOM     16  C   UNL     1      45.623   1.901   8.500  0.00  0.00    +0.000 A 
ENDBRANCH  10  11
ENDBRANCH   8  10
ENDBRANCH   7   8
BRANCH   7  17
ATOM     17  C   UNL     1      43.529   5.416  10.914  0.00  0.00    +0.000 C 
BRANCH  17  19
ATOM     18  C   UNL     1      43.582   3.113  11.876  0.00  0.00    +0.000 C 
ATOM     19  C   UNL     1      42.816   4.435  11.843  0.00  0.00    +0.000 C 
ENDBRANCH  17  19
ENDBRANCH   7  17
ENDBRANCH   1   7
BRANCH   4  20
ATOM     20  C   UNL     1      47.705   9.063  14.212  0.00  0.00    +0.000 C 
BRANCH  20  21
ATOM     21  N   UNL     1      47.923   8.546  15.538  0.00  0.00    +0.000 N 
ATOM     22  C   UNL     1      49.183   8.440  16.065  0.00  0.00    +0.000 C 
ATOM     23  O   UNL     1      50.174   8.832  15.455  0.00  0.00    +0.000 OA
ATOM     24  H   UNL     1      47.158   8.040  15.973  0.00  0.00    +0.000 HD
BRANCH  22  25
ATOM     25  C   UNL     1      49.282   7.886  17.420  0.00  0.00    +0.000 A 
ATOM     26  C   UNL     1      49.679   8.707  18.467  0.00  0.00    +0.000 A 
ATOM     27  S   UNL     1      49.710   7.921  19.980  0.00  0.00    +0.000 S 
ATOM     28  C   UNL     1      49.241   6.441  19.283  0.00  0.00    +0.000 A 
ATOM     29  N   UNL     1      49.109   5.322  20.043  0.00  0.00    +0.000 NA
ATOM     30  C   UNL     1      48.779   4.262  19.381  0.00  0.00    +0.000 A 
ATOM     31  N   UNL     1      48.560   4.225  18.029  0.00  0.00    +0.000 N 
ATOM     32  C   UNL     1      48.657   5.335  17.226  0.00  0.00    +0.000 A 
ATOM     33  O   UNL     1      48.412   5.278  16.025  0.00  0.00    +0.000 OA
ATOM     34  C   UNL     1      49.041   6.550  17.918  0.00  0.00    +0.000 A 
ATOM     35  H   UNL     1      48.300   3.361  17.572  0.00  0.00    +0.000 HD
ENDBRANCH  22  25
ENDBRANCH  20  21
ENDBRANCH   4  20
TORSDOF 9
ENDMDL
MODEL 5
REMARK VINA RESULT:    -7.441      4.104      5.050
REMARK INTER + INTRA:         -12.539
REMARK INTER:                 -11.028
REMARK INTRA:                  -1.511
REMARK UNBOUND:                -1.182
REMARK  Name = 
REMARK  10 active torsions:
REMARK  status: ('A' for Active; 'I' for Inactive)
REMARK    1  A    between atoms: C_1  and  C_2
REMARK    2  A    between atoms: C_2  and  C_3
REMARK    3  A    between atoms: C_3  and  C_4
REMARK    4  A    between atoms: C_4  and  N_5
REMARK    5  A    between atoms: C_4  and  C_13
REMARK    6  A    between atoms: N_5  and  C_6
REMARK    7  A    between atoms: C_6  and  C_7
REMARK    8  A    between atoms: C_16  and  C_17
REMARK    9  A    between atoms: C_17  and  N_18
REMARK   10  A    between atoms: C_19  and  C_21
REMARK                            x       y       z     vdW  Elec       q    Type
REMARK                         _______ _______ _______ _____ _____    ______ ____
ROOT
ATOM      1  C   UNL     1      46.176   5.801  11.818  0.00  0.00    +0.000 A 
ATOM      2  C   UNL     1      46.824   6.997  11.507  0.00  0.00    +0.000 A 
ATOM      3  C   UNL     1      47.791   7.503  12.373  0.00  0.00    +0.000 A 
ATOM      4  C   UNL     1      48.139   6.786  13.514  0.00  0.00    +0.000 A 
ATOM      5  C   UNL     1      47.459   5.598  13.747  0.00  0.00    +0.000 A 
ATOM      6  N   UNL     1      46.492   5.101  12.940  0.00  0.00    +0.000 NA
ENDROOT
BRANCH   1   7
ATOM      7  C   UNL     1      45.104   5.182  10.894  0.00  0.00    +0.000 C 
BRANCH   7   8
ATOM      8  N   UNL     1      45.447   5.292   9.444  0.00  0.00    +0.000 NA
ATOM      9  H   UNL     1      46.450   5.150   9.336  0.00  0.00    +0.000 HD
BRANCH   8  10
ATOM     10  C   UNL     1      44.743   4.245   8.675  0.00  0.00    +0.000 C 
BRANCH  10  11
ATOM     11  C   UNL     1      45.608   3.166   8.069  0.00  0.00    +0.000 A 
ATOM     12  C   UNL     1      46.560   3.508   7.092  0.00  0.00    +0.000 A 
ATOM     13  C   UNL     1      47.460   2.559   6.621  0.00  0.00    +0.000 A 
ATOM     14  C   UNL     1      47.399   1.285   7.152  0.00  0.00    +0.000 A 
ATOM     15  N   UNL     1      46.495   0.908   8.084  0.00  0.00    +0.000 NA
ATOM     16  C   UNL     1      45.630   1.856   8.527  0.00  0.00    +0.000 A 
ENDBRANCH  10  11
ENDBRANCH   8  10
ENDBRANCH   7   8
BRANCH   7  17
ATOM     17  C   UNL     1      43.714   5.786  11.227  0.00  0.00    +0.000 C 
BRANCH  17  19
ATOM     18  C   UNL     1      43.240   3.534  12.196  0.00  0.00    +0.000 C 
ATOM     19  C   UNL     1      42.822   5.004  12.191  0.00  0.00    +0.000 C 
ENDBRANCH  17  19
ENDBRANCH   7  17
ENDBRANCH   1   7
BRANCH   4  20
ATOM     20  C   UNL     1      49.149   7.307  14.489  0.00  0.00    +0.000 C 
BRANCH  20  21
ATOM     21  N   UNL     1      50.427   7.479  13.849  0.00  0.00    +0.000 N 
ATOM     22  C   UNL     1      51.001   8.717  13.720  0.00  0.00    +0.000 C 
ATOM     23  O   UNL     1      50.478   9.724  14.192  0.00  0.00    +0.000 OA
ATOM     24  H   UNL     1      50.775   6.710  13.285  0.00  0.00    +0.000 HD
BRANCH  22  25
ATOM     25  C   UNL     1      52.299   8.771  13.038  0.00  0.00    +0.000 A 
ATOM     26  C   UNL     1      53.385   9.349  13.680  0.00  0.00    +0.000 A 
ATOM     27  S   UNL     1      54.825   9.301  12.769  0.00  0.00    +0.000 S 
ATOM     28  C   UNL     1      54.038   8.547  11.462  0.00  0.00    +0.000 A 
ATOM     29  N   UNL     1      54.711   8.248  10.319  0.00  0.00    +0.000 NA
ATOM     30  C   UNL     1      53.985   7.708   9.397  0.00  0.00    +0.000 A 
ATOM     31  N   UNL     1      52.649   7.432   9.519  0.00  0.00    +0.000 N 
ATOM     32  C   UNL     1      51.934   7.693  10.663  0.00  0.00    +0.000 A 
ATOM     33  O   UNL     1      50.747   7.393  10.757  0.00  0.00    +0.000 OA
ATOM     34  C   UNL     1      52.699   8.315  11.726  0.00  0.00    +0.000 A 
ATOM     35  H   UNL     1      52.139   7.003   8.759  0.00  0.00    +0.000 HD
ENDBRANCH  22  25
ENDBRANCH  20  21
ENDBRANCH   4  20
TORSDOF 9
ENDMDL
MODEL 6
REMARK VINA RESULT:    -7.386      2.273      2.969
REMARK INTER + INTRA:         -12.454
REMARK INTER:                 -11.267
REMARK INTRA:                  -1.188
REMARK UNBOUND:                -1.182
REMARK  Name = 
REMARK  10 active torsions:
REMARK  status: ('A' for Active; 'I' for Inactive)
REMARK    1  A    between atoms: C_1  and  C_2
REMARK    2  A    between atoms: C_2  and  C_3
REMARK    3  A    between atoms: C_3  and  C_4
REMARK    4  A    between atoms: C_4  and  N_5
REMARK    5  A    between atoms: C_4  and  C_13
REMARK    6  A    between atoms: N_5  and  C_6
REMARK    7  A    between atoms: C_6  and  C_7
REMARK    8  A    between atoms: C_16  and  C_17
REMARK    9  A    between atoms: C_17  and  N_18
REMARK   10  A    between atoms: C_19  and  C_21
REMARK                            x       y       z     vdW  Elec       q    Type
REMARK                         _______ _______ _______ _____ _____    ______ ____
ROOT
ATOM      1  C   UNL     1      45.596   4.602  11.857  0.00  0.00    +0.000 A 
ATOM      2  C   UNL     1      45.870   5.704  11.045  0.00  0.00    +0.000 A 
ATOM      3  C   UNL     1      46.701   6.718  11.516  0.00  0.00    +0.000 A 
ATOM      4  C   UNL     1      47.290   6.600  12.772  0.00  0.00    +0.000 A 
ATOM      5  C   UNL     1      46.980   5.468  13.513  0.00  0.00    +0.000 A 
ATOM      6  N   UNL     1      46.149   4.484  13.093  0.00  0.00    +0.000 NA
ENDROOT
BRANCH   1   7
ATOM      7  C   UNL     1      44.693   3.439  11.388  0.00  0.00    +0.000 C 
BRANCH   7   8
ATOM      8  N   UNL     1      44.528   3.389   9.904  0.00  0.00    +0.000 NA
ATOM      9  H   UNL     1      45.082   4.138   9.490  0.00  0.00    +0.000 HD
BRANCH   8  10
ATOM     10  C   UNL     1      45.025   2.099   9.381  0.00  0.00    +0.000 C 
BRANCH  10  11
ATOM     11  C   UNL     1      45.933   2.172   8.177  0.00  0.00    +0.000 A 
ATOM     12  C   UNL     1      46.084   3.393   7.496  0.00  0.00    +0.000 A 
ATOM     13  C   UNL     1      47.017   3.520   6.473  0.00  0.00    +0.000 A 
ATOM     14  C   UNL     1      47.794   2.420   6.162  0.00  0.00    +0.000 A 
ATOM     15  N   UNL     1      47.677   1.224   6.781  0.00  0.00    +0.000 NA
ATOM     16  C   UNL     1      46.759   1.131   7.778  0.00  0.00    +0.000 A 
ENDBRANCH  10  11
ENDBRANCH   8  10
ENDBRANCH   7   8
BRANCH   7  17
ATOM     17  C   UNL     1      43.337   3.495  12.139  0.00  0.00    +0.000 C 
BRANCH  17  19
ATOM     18  C   UNL     1      42.240   5.708  11.778  0.00  0.00    +0.000 C 
ATOM     19  C   UNL     1      42.953   4.820  12.796  0.00  0.00    +0.000 C 
ENDBRANCH  17  19
ENDBRANCH   7  17
ENDBRANCH   1   7
BRANCH   4  20
ATOM     20  C   UNL     1      48.163   7.680  13.331  0.00  0.00    +0.000 C 
BRANCH  20  21
ATOM     21  N   UNL     1      49.254   7.113  14.080  0.00  0.00    +0.000 N 
ATOM     22  C   UNL     1      49.399   7.350  15.422  0.00  0.00    +0.000 C 
ATOM     23  O   UNL     1      48.578   8.010  16.054  0.00  0.00    +0.000 OA
ATOM     24  H   UNL     1      50.038   6.741  13.554  0.00  0.00    +0.000 HD
BRANCH  22  25
ATOM     25  C   UNL     1      50.557   6.730  16.076  0.00  0.00    +0.000 A 
ATOM     26  C   UNL     1      50.354   5.784  17.072  0.00  0.00    +0.000 A 
ATOM     27  S   UNL     1      51.798   5.135  17.705  0.00  0.00    +0.000 S 
ATOM     28  C   UNL     1      52.749   6.131  16.705  0.00  0.00    +0.000 A 
ATOM     29  N   UNL     1      54.107   6.094  16.771  0.00  0.00    +0.000 NA
ATOM     30  C   UNL     1      54.703   6.924  15.980  0.00  0.00    +0.000 A 
ATOM     31  N   UNL     1      54.062   7.780  15.122  0.00  0.00    +0.000 N 
ATOM     32  C   UNL     1      52.695   7.833  15.003  0.00  0.00    +0.000 A 
ATOM     33  O   UNL     1      52.152   8.579  14.194  0.00  0.00    +0.000 OA
ATOM     34  C   UNL     1      51.975   6.931  15.882  0.00  0.00    +0.000 A 
ATOM     35  H   UNL     1      54.589   8.402  14.525  0.00  0.00    +0.000 HD
ENDBRANCH  22  25
ENDBRANCH  20  21
ENDBRANCH   4  20
TORSDOF 9
ENDMDL
MODEL 7
REMARK VINA RESULT:    -7.229      2.185      2.698
REMARK INTER + INTRA:         -12.214
REMARK INTER:                 -10.828
REMARK INTRA:                  -1.386
REMARK UNBOUND:                -1.182
REMARK  Name = 
REMARK  10 active torsions:
REMARK  status: ('A' for Active; 'I' for Inactive)
REMARK    1  A    between atoms: C_1  and  C_2
REMARK    2  A    between atoms: C_2  and  C_3
REMARK    3  A    between atoms: C_3  and  C_4
REMARK    4  A    between atoms: C_4  and  N_5
REMARK    5  A    between atoms: C_4  and  C_13
REMARK    6  A    between atoms: N_5  and  C_6
REMARK    7  A    between atoms: C_6  and  C_7
REMARK    8  A    between atoms: C_16  and  C_17
REMARK    9  A    between atoms: C_17  and  N_18
REMARK   10  A    between atoms: C_19  and  C_21
REMARK                            x       y       z     vdW  Elec       q    Type
REMARK                         _______ _______ _______ _____ _____    ______ ____
ROOT
ATOM      1  C   UNL     1      46.413   6.002  11.821  0.00  0.00    +0.000 A 
ATOM      2  C   UNL     1      46.704   5.721  13.157  0.00  0.00    +0.000 A 
ATOM      3  C   UNL     1      47.825   6.292  13.754  0.00  0.00    +0.000 A 
ATOM      4  C   UNL     1      48.618   7.177  13.029  0.00  0.00    +0.000 A 
ATOM      5  C   UNL     1      48.256   7.417  11.710  0.00  0.00    +0.000 A 
ATOM      6  N   UNL     1      47.191   6.849  11.096  0.00  0.00    +0.000 NA
ENDROOT
BRANCH   1   7
ATOM      7  C   UNL     1      45.178   5.411  11.105  0.00  0.00    +0.000 C 
BRANCH   7   8
ATOM      8  N   UNL     1      45.327   5.372   9.619  0.00  0.00    +0.000 NA
ATOM      9  H   UNL     1      46.318   5.300   9.394  0.00  0.00    +0.000 HD
BRANCH   8  10
ATOM     10  C   UNL     1      44.637   4.186   9.071  0.00  0.00    +0.000 C 
BRANCH  10  11
ATOM     11  C   UNL     1      45.501   3.192   8.335  0.00  0.00    +0.000 A 
ATOM     12  C   UNL     1      46.425   3.650   7.379  0.00  0.00    +0.000 A 
ATOM     13  C   UNL     1      47.327   2.771   6.790  0.00  0.00    +0.000 A 
ATOM     14  C   UNL     1      47.294   1.447   7.183  0.00  0.00    +0.000 A 
ATOM     15  N   UNL     1      46.418   0.958   8.089  0.00  0.00    +0.000 NA
ATOM     16  C   UNL     1      45.551   1.841   8.650  0.00  0.00    +0.000 A 
ENDBRANCH  10  11
ENDBRANCH   8  10
ENDBRANCH   7   8
BRANCH   7  17
ATOM     17  C   UNL     1      43.900   6.165  11.559  0.00  0.00    +0.000 C 
BRANCH  17  19
ATOM     18  C   UNL     1      43.203   4.225  12.967  0.00  0.00    +0.000 C 
ATOM     19  C   UNL     1      42.713   5.319  12.019  0.00  0.00    +0.000 C 
ENDBRANCH  17  19
ENDBRANCH   7  17
ENDBRANCH   1   7
BRANCH   4  20
ATOM     20  C   UNL     1      49.850   7.788  13.620  0.00  0.00    +0.000 C 
BRANCH  20  21
ATOM     21  N   UNL     1      50.266   7.058  14.789  0.00  0.00    +0.000 N 
ATOM     22  C   UNL     1      51.090   7.621  15.728  0.00  0.00    +0.000 C 
ATOM     23  O   UNL     1      51.465   8.787  15.642  0.00  0.00    +0.000 OA
ATOM     24  H   UNL     1      50.138   6.051  14.781  0.00  0.00    +0.000 HD
BRANCH  22  25
ATOM     25  C   UNL     1      51.458   6.776  16.870  0.00  0.00    +0.000 A 
ATOM     26  C   UNL     1      52.778   6.380  17.030  0.00  0.00    +0.000 A 
ATOM     27  S   UNL     1      53.045   5.433  18.423  0.00  0.00    +0.000 S 
ATOM     28  C   UNL     1      51.394   5.476  18.836  0.00  0.00    +0.000 A 
ATOM     29  N   UNL     1      50.931   4.820  19.933  0.00  0.00    +0.000 NA
ATOM     30  C   UNL     1      49.655   4.910  20.110  0.00  0.00    +0.000 A 
ATOM     31  N   UNL     1      48.802   5.606  19.294  0.00  0.00    +0.000 N 
ATOM     32  C   UNL     1      49.228   6.304  18.190  0.00  0.00    +0.000 A 
ATOM     33  O   UNL     1      48.445   6.954  17.504  0.00  0.00    +0.000 OA
ATOM     34  C   UNL     1      50.654   6.223  17.936  0.00  0.00    +0.000 A 
ATOM     35  H   UNL     1      47.811   5.640  19.492  0.00  0.00    +0.000 HD
ENDBRANCH  22  25
ENDBRANCH  20  21
ENDBRANCH   4  20
TORSDOF 9
ENDMDL
MODEL 8
REMARK VINA RESULT:    -7.158      3.687      8.884
REMARK INTER + INTRA:         -12.107
REMARK INTER:                 -10.209
REMARK INTRA:                  -1.897
REMARK UNBOUND:                -1.182
REMARK  Name = 
REMARK  10 active torsions:
REMARK  status: ('A' for Active; 'I' for Inactive)
REMARK    1  A    between atoms: C_1  and  C_2
REMARK    2  A    between atoms: C_2  and  C_3
REMARK    3  A    between atoms: C_3  and  C_4
REMARK    4  A    between atoms: C_4  and  N_5
REMARK    5  A    between atoms: C_4  and  C_13
REMARK    6  A    between atoms: N_5  and  C_6
REMARK    7  A    between atoms: C_6  and  C_7
REMARK    8  A    between atoms: C_16  and  C_17
REMARK    9  A    between atoms: C_17  and  N_18
REMARK   10  A    between atoms: C_19  and  C_21
REMARK                            x       y       z     vdW  Elec       q    Type
REMARK                         _______ _______ _______ _____ _____    ______ ____
ROOT
ATOM      1  C   UNL     1      48.961   8.156  15.937  0.00  0.00    +0.000 A 
ATOM      2  C   UNL     1      49.564   7.185  15.136  0.00  0.00    +0.000 A 
ATOM      3  C   UNL     1      49.185   7.060  13.802  0.00  0.00    +0.000 A 
ATOM      4  C   UNL     1      48.246   7.937  13.265  0.00  0.00    +0.000 A 
ATOM      5  C   UNL     1      47.703   8.884  14.122  0.00  0.00    +0.000 A 
ATOM      6  N   UNL     1      48.029   9.005  15.431  0.00  0.00    +0.000 NA
ENDROOT
BRANCH   1   7
ATOM      7  C   UNL     1      49.346   8.353  17.421  0.00  0.00    +0.000 C 
BRANCH   7   8
ATOM      8  N   UNL     1      50.201   7.251  17.955  0.00  0.00    +0.000 NA
ATOM      9  H   UNL     1      50.918   7.657  18.553  0.00  0.00    +0.000 HD
BRANCH   8  10
ATOM     10  C   UNL     1      49.386   6.324  18.768  0.00  0.00    +0.000 C 
BRANCH  10  11
ATOM     11  C   UNL     1      48.929   5.060  18.082  0.00  0.00    +0.000 A 
ATOM     12  C   UNL     1      47.566   4.891  17.777  0.00  0.00    +0.000 A 
ATOM     13  C   UNL     1      47.141   3.802  17.024  0.00  0.00    +0.000 A 
ATOM     14  C   UNL     1      48.096   2.908  16.578  0.00  0.00    +0.000 A 
ATOM     15  N   UNL     1      49.414   3.024  16.854  0.00  0.00    +0.000 NA
ATOM     16  C   UNL     1      49.800   4.099  17.589  0.00  0.00    +0.000 A 
ENDBRANCH  10  11
ENDBRANCH   8  10
ENDBRANCH   7   8
BRANCH   7  17
ATOM     17  C   UNL     1      48.065   8.579  18.267  0.00  0.00    +0.000 C 
BRANCH  17  19
ATOM     18  C   UNL     1      46.975   9.638  20.249  0.00  0.00    +0.000 C 
ATOM     19  C   UNL     1      48.018   9.828  19.147  0.00  0.00    +0.000 C 
ENDBRANCH  17  19
ENDBRANCH   7  17
ENDBRANCH   1   7
BRANCH   4  20
ATOM     20  C   UNL     1      47.786   7.818  11.845  0.00  0.00    +0.000 C 
BRANCH  20  21
ATOM     21  N   UNL     1      47.049   6.596  11.653  0.00  0.00    +0.000 N 
ATOM     22  C   UNL     1      45.684   6.561  11.758  0.00  0.00    +0.000 C 
ATOM     23  O   UNL     1      45.025   7.577  11.965  0.00  0.00    +0.000 OA
ATOM     24  H   UNL     1      47.572   5.726  11.681  0.00  0.00    +0.000 HD
BRANCH  22  25
ATOM     25  C   UNL     1      45.043   5.257  11.554  0.00  0.00    +0.000 A 
ATOM     26  C   UNL     1      44.361   4.659  12.605  0.00  0.00    +0.000 A 
ATOM     27  S   UNL     1      43.646   3.166  12.196  0.00  0.00    +0.000 S 
ATOM     28  C   UNL     1      44.263   3.241  10.612  0.00  0.00    +0.000 A 
ATOM     29  N   UNL     1      44.037   2.235   9.726  0.00  0.00    +0.000 NA
ATOM     30  C   UNL     1      44.589   2.406   8.571  0.00  0.00    +0.000 A 
ATOM     31  N   UNL     1      45.338   3.499   8.220  0.00  0.00    +0.000 N 
ATOM     32  C   UNL     1      45.571   4.550   9.072  0.00  0.00    +0.000 A 
ATOM     33  O   UNL     1      46.210   5.535   8.714  0.00  0.00    +0.000 OA
ATOM     34  C   UNL     1      44.985   4.401  10.391  0.00  0.00    +0.000 A 
ATOM     35  H   UNL     1      45.740   3.573   7.295  0.00  0.00    +0.000 HD
ENDBRANCH  22  25
ENDBRANCH  20  21
ENDBRANCH   4  20
TORSDOF 9
ENDMDL
MODEL 9
REMARK VINA RESULT:    -6.959      3.548      8.657
REMARK INTER + INTRA:         -11.803
REMARK INTER:                 -10.315
REMARK INTRA:                  -1.488
REMARK UNBOUND:                -1.182
REMARK  Name = 
REMARK  10 active torsions:
REMARK  status: ('A' for Active; 'I' for Inactive)
REMARK    1  A    between atoms: C_1  and  C_2
REMARK    2  A    between atoms: C_2  and  C_3
REMARK    3  A    between atoms: C_3  and  C_4
REMARK    4  A    between atoms: C_4  and  N_5
REMARK    5  A    between atoms: C_4  and  C_13
REMARK    6  A    between atoms: N_5  and  C_6
REMARK    7  A    between atoms: C_6  and  C_7
REMARK    8  A    between atoms: C_16  and  C_17
REMARK    9  A    between atoms: C_17  and  N_18
REMARK   10  A    between atoms: C_19  and  C_21
REMARK                            x       y       z     vdW  Elec       q    Type
REMARK                         _______ _______ _______ _____ _____    ______ ____
ROOT
ATOM      1  C   UNL     1      48.625   7.374  16.319  0.00  0.00    +0.000 A 
ATOM      2  C   UNL     1      48.483   8.673  15.830  0.00  0.00    +0.000 A 
ATOM      3  C   UNL     1      48.391   8.887  14.457  0.00  0.00    +0.000 A 
ATOM      4  C   UNL     1      48.390   7.800  13.587  0.00  0.00    +0.000 A 
ATOM      5  C   UNL     1      48.520   6.539  14.150  0.00  0.00    +0.000 A 
ATOM      6  N   UNL     1      48.646   6.305  15.479  0.00  0.00    +0.000 NA
ENDROOT
BRANCH   1   7
ATOM      7  C   UNL     1      48.720   7.069  17.830  0.00  0.00    +0.000 C 
BRANCH   7   8
ATOM      8  N   UNL     1      47.688   6.093  18.296  0.00  0.00    +0.000 NA
ATOM      9  H   UNL     1      47.202   5.722  17.482  0.00  0.00    +0.000 HD
BRANCH   8  10
ATOM     10  C   UNL     1      48.335   4.970  19.005  0.00  0.00    +0.000 C 
BRANCH  10  11
ATOM     11  C   UNL     1      49.118   4.003  18.150  0.00  0.00    +0.000 A 
ATOM     12  C   UNL     1      50.509   3.889  18.329  0.00  0.00    +0.000 A 
ATOM     13  C   UNL     1      51.229   2.911  17.653  0.00  0.00    +0.000 A 
ATOM     14  C   UNL     1      50.537   2.053  16.821  0.00  0.00    +0.000 A 
ATOM     15  N   UNL     1      49.204   2.130  16.610  0.00  0.00    +0.000 NA
ATOM     16  C   UNL     1      48.526   3.095  17.285  0.00  0.00    +0.000 A 
ENDBRANCH  10  11
ENDBRANCH   8  10
ENDBRANCH   7   8
BRANCH   7  17
ATOM     17  C   UNL     1      48.694   8.395  18.634  0.00  0.00    +0.000 C 
BRANCH  17  19
ATOM     18  C   UNL     1      47.506   8.659  20.815  0.00  0.00    +0.000 C 
ATOM     19  C   UNL     1      47.374   8.788  19.297  0.00  0.00    +0.000 C 
ENDBRANCH  17  19
ENDBRANCH   7  17
ENDBRANCH   1   7
BRANCH   4  20
ATOM     20  C   UNL     1      48.326   7.986  12.103  0.00  0.00    +0.000 C 
BRANCH  20  21
ATOM     21  N   UNL     1      47.617   6.895  11.486  0.00  0.00    +0.000 N 
ATOM     22  C   UNL     1      46.249   6.881  11.417  0.00  0.00    +0.000 C 
ATOM     23  O   UNL     1      45.571   7.820  11.827  0.00  0.00    +0.000 OA
ATOM     24  H   UNL     1      48.132   6.035  11.326  0.00  0.00    +0.000 HD
BRANCH  22  25
ATOM     25  C   UNL     1      45.637   5.710  10.778  0.00  0.00    +0.000 A 
ATOM     26  C   UNL     1      45.784   5.523   9.411  0.00  0.00    +0.000 A 
ATOM     27  S   UNL     1      45.044   4.100   8.831  0.00  0.00    +0.000 S 
ATOM     28  C   UNL     1      44.457   3.708  10.379  0.00  0.00    +0.000 A 
ATOM     29  N   UNL     1      43.698   2.598  10.578  0.00  0.00    +0.000 NA
ATOM     30  C   UNL     1      43.294   2.438  11.795  0.00  0.00    +0.000 A 
ATOM     31  N   UNL     1      43.588   3.284  12.831  0.00  0.00    +0.000 N 
ATOM     32  C   UNL     1      44.372   4.402  12.683  0.00  0.00    +0.000 A 
ATOM     33  O   UNL     1      44.654   5.117  13.640  0.00  0.00    +0.000 OA
ATOM     34  C   UNL     1      44.841   4.637  11.331  0.00  0.00    +0.000 A 
ATOM     35  H   UNL     1      43.243   3.098  13.763  0.00  0.00    +0.000 HD
ENDBRANCH  22  25
ENDBRANCH  20  21
ENDBRANCH   4  20
TORSDOF 9
ENDMDL
