MODEL 1
REMARK VINA RESULT:    -8.784      0.000      0.000
REMARK INTER + INTRA:         -12.949
REMARK INTER:                 -11.866
REMARK INTRA:                  -1.083
REMARK UNBOUND:                -1.083
REMARK  Name = 
REMARK  7 active torsions:
REMARK  status: ('A' for Active; 'I' for Inactive)
REMARK    1  A    between atoms: C_1  and  C_2
REMARK    2  A    between atoms: C_2  and  C_3
REMARK    3  A    between atoms: C_2  and  C_13
REMARK    4  A    between atoms: C_3  and  C_4
REMARK    5  A    between atoms: C_7  and  C_8
REMARK    6  A    between atoms: C_17  and  O_18
REMARK    7  A    between atoms: O_18  and  C_19
REMARK                            x       y       z     vdW  Elec       q    Type
REMARK                         _______ _______ _______ _____ _____    ______ ____
ROOT
ATOM      1  C   UNL     1      42.476   5.672  11.703  0.00  0.00    +0.000 C 
ATOM      2  C   UNL     1      43.813   5.228  11.083  0.00  0.00    +0.000 C 
ENDROOT
BRANCH   2   3
ATOM      3  C   UNL     1      45.022   5.425  12.003  0.00  0.00    +0.000 A 
ATOM      4  C   UNL     1      46.004   6.370  11.670  0.00  0.00    +0.000 A 
ATOM      5  C   UNL     1      47.206   6.442  12.368  0.00  0.00    +0.000 A 
ATOM      6  C   UNL     1      47.407   5.644  13.486  0.00  0.00    +0.000 A 
ATOM      7  C   UNL     1      46.380   4.825  13.950  0.00  0.00    +0.000 A 
ATOM      8  C   UNL     1      45.207   4.694  13.195  0.00  0.00    +0.000 A 
BRANCH   7   9
ATOM      9  O   UNL     1      46.457   4.096  15.113  0.00  0.00    +0.000 OA
BRANCH   9  10
ATOM     10  C   UNL     1      47.747   4.137  15.751  0.00  0.00    +0.000 C 
ATOM     11  C   UNL     1      48.105   2.784  16.325  0.00  0.00    +0.000 C 
ATOM     12  C   UNL     1      47.546   2.831  17.730  0.00  0.00    +0.000 C 
ATOM     13  O   UNL     1      47.543   4.199  18.145  0.00  0.00    +0.000 OA
ATOM     14  C   UNL     1      47.697   5.030  16.986  0.00  0.00    +0.000 C 
ENDBRANCH   9  10
ENDBRANCH   7   9
ENDBRANCH   2   3
BRANCH   2  15
ATOM     15  C   UNL     1      43.679   3.782  10.489  0.00  0.00    +0.000 C 
BRANCH  15  16
ATOM     16  C   UNL     1      44.658   3.393   9.394  0.00  0.00    +0.000 A 
ATOM     17  C   UNL     1      45.004   2.055   9.184  0.00  0.00    +0.000 A 
ATOM     18  C   UNL     1      45.983   1.708   8.252  0.00  0.00    +0.000 A 
ATOM     19  C   UNL     1      46.596   2.688   7.472  0.00  0.00    +0.000 A 
ATOM     20  C   UNL     1      46.232   4.028   7.635  0.00  0.00    +0.000 A 
ATOM     21  C   UNL     1      45.263   4.373   8.588  0.00  0.00    +0.000 A 
BRANCH  19  22
ATOM     22  C   UNL     1      47.647   2.256   6.516  0.00  0.00    +0.000 C 
ATOM     23  N   UNL     1      47.713   2.910   5.314  0.00  0.00    +0.000 N 
ATOM     24  O   UNL     1      48.398   1.319   6.754  0.00  0.00    +0.000 OA
ATOM     25  H   UNL     1      46.957   3.485   4.976  0.00  0.00    +0.000 HD
ATOM     26  H   UNL     1      48.341   2.504   4.630  0.00  0.00    +0.000 HD
ENDBRANCH  19  22
ENDBRANCH  15  16
ENDBRANCH   2  15
TORSDOF 6
ENDMDL
MODEL 2
REMARK VINA RESULT:    -8.189      2.194      3.611
REMARK INTER + INTRA:         -12.144
REMARK INTER:                 -10.865
REMARK INTRA:                  -1.279
REMARK UNBOUND:                -1.083
REMARK  Name = 
REMARK  7 active torsions:
REMARK  status: ('A' for Active; 'I' for Inactive)
REMARK    1  A    between atoms: C_1  and  C_2
REMARK    2  A    between atoms: C_2  and  C_3
REMARK    3  A    between atoms: C_2  and  C_13
REMARK    4  A    between atoms: C_3  and  C_4
REMARK    5  A    between atoms: C_7  and  C_8
REMARK    6  A    between atoms: C_17  and  O_18
REMARK    7  A    between atoms: O_18  and  C_19
REMARK                            x       y       z     vdW  Elec       q    Type
REMARK                         _______ _______ _______ _____ _____    ______ ____
ROOT
ATOM      1  C   UNL     1      42.640   5.738  11.737  0.00  0.00    +0.000 C 
ATOM      2  C   UNL     1      43.923   5.249  11.041  0.00  0.00    +0.000 C 
ENDROOT
BRANCH   2   3
ATOM      3  C   UNL     1      45.166   5.274  11.936  0.00  0.00    +0.000 A 
ATOM      4  C   UNL     1      45.535   4.122  12.649  0.00  0.00    +0.000 A 
ATOM      5  C   UNL     1      46.534   4.159  13.616  0.00  0.00    +0.000 A 
ATOM      6  C   UNL     1      47.263   5.324  13.816  0.00  0.00    +0.000 A 
ATOM      7  C   UNL     1      47.044   6.431  12.999  0.00  0.00    +0.000 A 
ATOM      8  C   UNL     1      45.981   6.415  12.087  0.00  0.00    +0.000 A 
BRANCH   7   9
ATOM      9  O   UNL     1      47.802   7.577  13.055  0.00  0.00    +0.000 OA
BRANCH   9  10
ATOM     10  C   UNL     1      48.442   7.921  11.813  0.00  0.00    +0.000 C 
ATOM     11  C   UNL     1      49.901   7.521  11.832  0.00  0.00    +0.000 C 
ATOM     12  C   UNL     1      50.601   8.740  12.389  0.00  0.00    +0.000 C 
ATOM     13  O   UNL     1      49.814   9.882  12.045  0.00  0.00    +0.000 OA
ATOM     14  C   UNL     1      48.507   9.436  11.655  0.00  0.00    +0.000 C 
ENDBRANCH   9  10
ENDBRANCH   7   9
ENDBRANCH   2   3
BRANCH   2  15
ATOM     15  C   UNL     1      43.663   3.874  10.331  0.00  0.00    +0.000 C 
BRANCH  15  16
ATOM     16  C   UNL     1      44.659   3.448   9.266  0.00  0.00    +0.000 A 
ATOM     17  C   UNL     1      45.064   2.115   9.156  0.00  0.00    +0.000 A 
ATOM     18  C   UNL     1      46.059   1.743   8.251  0.00  0.00    +0.000 A 
ATOM     19  C   UNL     1      46.629   2.688   7.398  0.00  0.00    +0.000 A 
ATOM     20  C   UNL     1      46.204   4.019   7.461  0.00  0.00    +0.000 A 
ATOM     21  C   UNL     1      45.221   4.392   8.388  0.00  0.00    +0.000 A 
BRANCH  19  22
ATOM     22  C   UNL     1      47.699   2.232   6.474  0.00  0.00    +0.000 C 
ATOM     23  N   UNL     1      47.908   2.970   5.340  0.00  0.00    +0.000 N 
ATOM     24  O   UNL     1      48.341   1.211   6.676  0.00  0.00    +0.000 OA
ATOM     25  H   UNL     1      47.234   3.642   5.006  0.00  0.00    +0.000 HD
ATOM     26  H   UNL     1      48.541   2.561   4.663  0.00  0.00    +0.000 HD
ENDBRANCH  19  22
ENDBRANCH  15  16
ENDBRANCH   2  15
TORSDOF 6
ENDMDL
MODEL 3
REMARK VINA RESULT:    -7.992      2.414      4.128
REMARK INTER + INTRA:         -11.879
REMARK INTER:                 -10.882
REMARK INTRA:                  -0.996
REMARK UNBOUND:                -1.083
REMARK  Name = 
REMARK  7 active torsions:
REMARK  status: ('A' for Active; 'I' for Inactive)
REMARK    1  A    between atoms: C_1  and  C_2
REMARK    2  A    between atoms: C_2  and  C_3
REMARK    3  A    between atoms: C_2  and  C_13
REMARK    4  A    between atoms: C_3  and  C_4
REMARK    5  A    between atoms: C_7  and  C_8
REMARK    6  A    between atoms: C_17  and  O_18
REMARK    7  A    between atoms: O_18  and  C_19
REMARK                            x       y       z     vdW  Elec       q    Type
REMARK                         _______ _______ _______ _____ _____    ______ ____
ROOT
ATOM      1  C   UNL     1      43.522   2.866  12.257  0.00  0.00    +0.000 C 
ATOM      2  C   UNL     1      43.855   4.270  11.721  0.00  0.00    +0.000 C 
ENDROOT
BRANCH   2   3
ATOM      3  C   UNL     1      45.202   4.817  12.202  0.00  0.00    +0.000 A 
ATOM      4  C   UNL     1      45.975   4.070  13.106  0.00  0.00    +0.000 A 
ATOM      5  C   UNL     1      47.102   4.613  13.715  0.00  0.00    +0.000 A 
ATOM      6  C   UNL     1      47.546   5.878  13.351  0.00  0.00    +0.000 A 
ATOM      7  C   UNL     1      46.906   6.571  12.326  0.00  0.00    +0.000 A 
ATOM      8  C   UNL     1      45.724   6.057  11.778  0.00  0.00    +0.000 A 
BRANCH   7   9
ATOM      9  O   UNL     1      47.354   7.772  11.827  0.00  0.00    +0.000 OA
BRANCH   9  10
ATOM     10  C   UNL     1      47.139   8.892  12.704  0.00  0.00    +0.000 C 
ATOM     11  C   UNL     1      45.661   9.108  12.948  0.00  0.00    +0.000 C 
ATOM     12  C   UNL     1      45.249  10.052  11.841  0.00  0.00    +0.000 C 
ATOM     13  O   UNL     1      46.396  10.830  11.490  0.00  0.00    +0.000 OA
ATOM     14  C   UNL     1      47.564  10.187  12.020  0.00  0.00    +0.000 C 
ENDBRANCH   9  10
ENDBRANCH   7   9
ENDBRANCH   2   3
BRANCH   2  15
ATOM     15  C   UNL     1      43.655   4.316  10.165  0.00  0.00    +0.000 C 
BRANCH  15  16
ATOM     16  C   UNL     1      44.739   3.681   9.311  0.00  0.00    +0.000 A 
ATOM     17  C   UNL     1      45.507   4.454   8.437  0.00  0.00    +0.000 A 
ATOM     18  C   UNL     1      46.427   3.857   7.574  0.00  0.00    +0.000 A 
ATOM     19  C   UNL     1      46.636   2.478   7.609  0.00  0.00    +0.000 A 
ATOM     20  C   UNL     1      45.910   1.692   8.509  0.00  0.00    +0.000 A 
ATOM     21  C   UNL     1      44.971   2.295   9.357  0.00  0.00    +0.000 A 
BRANCH  19  22
ATOM     22  C   UNL     1      47.612   1.901   6.649  0.00  0.00    +0.000 C 
ATOM     23  N   UNL     1      48.708   2.659   6.332  0.00  0.00    +0.000 N 
ATOM     24  O   UNL     1      47.433   0.816   6.113  0.00  0.00    +0.000 OA
ATOM     25  H   UNL     1      48.752   3.647   6.533  0.00  0.00    +0.000 HD
ATOM     26  H   UNL     1      49.279   2.306   5.574  0.00  0.00    +0.000 HD
ENDBRANCH  19  22
ENDBRANCH  15  16
ENDBRANCH   2  15
TORSDOF 6
ENDMDL
MODEL 4
REMARK VINA RESULT:    -7.925      3.460      5.512
REMARK INTER + INTRA:         -11.788
REMARK INTER:                 -10.680
REMARK INTRA:                  -1.108
REMARK UNBOUND:                -1.083
REMARK  Name = 
REMARK  7 active torsions:
REMARK  status: ('A' for Active; 'I' for Inactive)
REMARK    1  A    between atoms: C_1  and  C_2
REMARK    2  A    between atoms: C_2  and  C_3
REMARK    3  A    between atoms: C_2  and  C_13
REMARK    4  A    between atoms: C_3  and  C_4
REMARK    5  A    between atoms: C_7  and  C_8
REMARK    6  A    between atoms: C_17  and  O_18
REMARK    7  A    between atoms: O_18  and  C_19
REMARK                            x       y       z     vdW  Elec       q    Type
REMARK                         _______ _______ _______ _____ _____    ______ ____
ROOT
ATOM      1  C   UNL     1      45.203   3.723  12.349  0.00  0.00    +0.000 C 
ATOM      2  C   UNL     1      44.365   4.891  11.801  0.00  0.00    +0.000 C 
ENDROOT
BRANCH   2   3
ATOM      3  C   UNL     1      45.089   6.241  11.821  0.00  0.00    +0.000 A 
ATOM      4  C   UNL     1      46.480   6.282  12.006  0.00  0.00    +0.000 A 
ATOM      5  C   UNL     1      47.145   7.485  12.224  0.00  0.00    +0.000 A 
ATOM      6  C   UNL     1      46.450   8.685  12.152  0.00  0.00    +0.000 A 
ATOM      7  C   UNL     1      45.105   8.689  11.791  0.00  0.00    +0.000 A 
ATOM      8  C   UNL     1      44.423   7.473  11.657  0.00  0.00    +0.000 A 
BRANCH   7   9
ATOM      9  O   UNL     1      44.379   9.838  11.583  0.00  0.00    +0.000 OA
BRANCH   9  10
ATOM     10  C   UNL     1      43.406   9.739  10.527  0.00  0.00    +0.000 C 
ATOM     11  C   UNL     1      43.792  10.617   9.358  0.00  0.00    +0.000 C 
ATOM     12  C   UNL     1      43.134  11.942   9.672  0.00  0.00    +0.000 C 
ATOM     13  O   UNL     1      41.976  11.670  10.464  0.00  0.00    +0.000 OA
ATOM     14  C   UNL     1      42.077  10.334  10.977  0.00  0.00    +0.000 C 
ENDBRANCH   9  10
ENDBRANCH   7   9
ENDBRANCH   2   3
BRANCH   2  15
ATOM     15  C   UNL     1      43.745   4.508  10.411  0.00  0.00    +0.000 C 
BRANCH  15  16
ATOM     16  C   UNL     1      44.656   3.802   9.421  0.00  0.00    +0.000 A 
ATOM     17  C   UNL     1      44.711   2.407   9.367  0.00  0.00    +0.000 A 
ATOM     18  C   UNL     1      45.625   1.759   8.535  0.00  0.00    +0.000 A 
ATOM     19  C   UNL     1      46.465   2.495   7.699  0.00  0.00    +0.000 A 
ATOM     20  C   UNL     1      46.394   3.892   7.705  0.00  0.00    +0.000 A 
ATOM     21  C   UNL     1      45.489   4.537   8.560  0.00  0.00    +0.000 A 
BRANCH  19  22
ATOM     22  C   UNL     1      47.431   1.747   6.855  0.00  0.00    +0.000 C 
ATOM     23  N   UNL     1      48.501   2.442   6.356  0.00  0.00    +0.000 N 
ATOM     24  O   UNL     1      47.265   0.570   6.563  0.00  0.00    +0.000 OA
ATOM     25  H   UNL     1      48.527   3.450   6.344  0.00  0.00    +0.000 HD
ATOM     26  H   UNL     1      49.063   1.947   5.673  0.00  0.00    +0.000 HD
ENDBRANCH  19  22
ENDBRANCH  15  16
ENDBRANCH   2  15
TORSDOF 6
ENDMDL
MODEL 5
REMARK VINA RESULT:    -7.599      1.868      2.687
REMARK INTER + INTRA:         -11.348
REMARK INTER:                 -10.379
REMARK INTRA:                  -0.969
REMARK UNBOUND:                -1.083
REMARK  Name = 
REMARK  7 active torsions:
REMARK  status: ('A' for Active; 'I' for Inactive)
REMARK    1  A    between atoms: C_1  and  C_2
REMARK    2  A    between atoms: C_2  and  C_3
REMARK    3  A    between atoms: C_2  and  C_13
REMARK    4  A    between atoms: C_3  and  C_4
REMARK    5  A    between atoms: C_7  and  C_8
REMARK    6  A    between atoms: C_17  and  O_18
REMARK    7  A    between atoms: O_18  and  C_19
REMARK                            x       y       z     vdW  Elec       q    Type
REMARK                         _______ _______ _______ _____ _____    ______ ____
ROOT
ATOM      1  C   UNL     1      45.226   3.120  12.456  0.00  0.00    +0.000 C 
ATOM      2  C   UNL     1      44.571   4.439  12.010  0.00  0.00    +0.000 C 
ENDROOT
BRANCH   2   3
ATOM      3  C   UNL     1      45.445   5.676  12.236  0.00  0.00    +0.000 A 
ATOM      4  C   UNL     1      44.994   6.936  11.810  0.00  0.00    +0.000 A 
ATOM      5  C   UNL     1      45.833   8.045  11.819  0.00  0.00    +0.000 A 
ATOM      6  C   UNL     1      47.110   7.946  12.357  0.00  0.00    +0.000 A 
ATOM      7  C   UNL     1      47.523   6.756  12.952  0.00  0.00    +0.000 A 
ATOM      8  C   UNL     1      46.707   5.621  12.863  0.00  0.00    +0.000 A 
BRANCH   7   9
ATOM      9  O   UNL     1      48.722   6.614  13.609  0.00  0.00    +0.000 OA
BRANCH   9  10
ATOM     10  C   UNL     1      48.758   7.224  14.912  0.00  0.00    +0.000 C 
ATOM     11  C   UNL     1      50.020   8.040  15.088  0.00  0.00    +0.000 C 
ATOM     12  C   UNL     1      51.010   7.049  15.660  0.00  0.00    +0.000 C 
ATOM     13  O   UNL     1      50.265   6.068  16.385  0.00  0.00    +0.000 OA
ATOM     14  C   UNL     1      48.888   6.156  15.992  0.00  0.00    +0.000 C 
ENDBRANCH   9  10
ENDBRANCH   7   9
ENDBRANCH   2   3
BRANCH   2  15
ATOM     15  C   UNL     1      44.011   4.298  10.551  0.00  0.00    +0.000 C 
BRANCH  15  16
ATOM     16  C   UNL     1      44.964   3.764   9.495  0.00  0.00    +0.000 A 
ATOM     17  C   UNL     1      45.673   4.635   8.664  0.00  0.00    +0.000 A 
ATOM     18  C   UNL     1      46.464   4.146   7.624  0.00  0.00    +0.000 A 
ATOM     19  C   UNL     1      46.605   2.771   7.429  0.00  0.00    +0.000 A 
ATOM     20  C   UNL     1      45.940   1.882   8.279  0.00  0.00    +0.000 A 
ATOM     21  C   UNL     1      45.129   2.381   9.308  0.00  0.00    +0.000 A 
BRANCH  19  22
ATOM     22  C   UNL     1      47.442   2.314   6.290  0.00  0.00    +0.000 C 
ATOM     23  N   UNL     1      47.378   3.040   5.131  0.00  0.00    +0.000 N 
ATOM     24  O   UNL     1      48.127   1.302   6.352  0.00  0.00    +0.000 OA
ATOM     25  H   UNL     1      46.637   3.701   4.952  0.00  0.00    +0.000 HD
ATOM     26  H   UNL     1      47.846   2.628   4.332  0.00  0.00    +0.000 HD
ENDBRANCH  19  22
ENDBRANCH  15  16
ENDBRANCH   2  15
TORSDOF 6
ENDMDL
MODEL 6
REMARK VINA RESULT:    -7.019      3.045      8.050
REMARK INTER + INTRA:         -10.564
REMARK INTER:                  -9.792
REMARK INTRA:                  -0.773
REMARK UNBOUND:                -1.083
REMARK  Name = 
REMARK  7 active torsions:
REMARK  status: ('A' for Active; 'I' for Inactive)
REMARK    1  A    between atoms: C_1  and  C_2
REMARK    2  A    between atoms: C_2  and  C_3
REMARK    3  A    between atoms: C_2  and  C_13
REMARK    4  A    between atoms: C_3  and  C_4
REMARK    5  A    between atoms: C_7  and  C_8
REMARK    6  A    between atoms: C_17  and  O_18
REMARK    7  A    between atoms: O_18  and  C_19
REMARK                            x       y       z     vdW  Elec       q    Type
REMARK                         _______ _______ _______ _____ _____    ______ ____
ROOT
ATOM      1  C   UNL     1      45.271   8.243  11.688  0.00  0.00    +0.000 C 
ATOM      2  C   UNL     1      45.657   6.781  11.977  0.00  0.00    +0.000 C 
ENDROOT
BRANCH   2   3
ATOM      3  C   UNL     1      45.197   5.792  10.902  0.00  0.00    +0.000 A 
ATOM      4  C   UNL     1      43.982   5.105  11.062  0.00  0.00    +0.000 A 
ATOM      5  C   UNL     1      43.624   4.062  10.214  0.00  0.00    +0.000 A 
ATOM      6  C   UNL     1      44.422   3.753   9.119  0.00  0.00    +0.000 A 
ATOM      7  C   UNL     1      45.539   4.533   8.830  0.00  0.00    +0.000 A 
ATOM      8  C   UNL     1      45.940   5.525   9.734  0.00  0.00    +0.000 A 
BRANCH   7   9
ATOM      9  O   UNL     1      46.309   4.366   7.704  0.00  0.00    +0.000 OA
BRANCH   9  10
ATOM     10  C   UNL     1      46.024   3.165   6.965  0.00  0.00    +0.000 C 
ATOM     11  C   UNL     1      46.677   1.966   7.616  0.00  0.00    +0.000 C 
ATOM     12  C   UNL     1      48.038   1.899   6.960  0.00  0.00    +0.000 C 
ATOM     13  O   UNL     1      47.914   2.467   5.655  0.00  0.00    +0.000 OA
ATOM     14  C   UNL     1      46.692   3.215   5.595  0.00  0.00    +0.000 C 
ENDBRANCH   9  10
ENDBRANCH   7   9
ENDBRANCH   2   3
BRANCH   2  15
ATOM     15  C   UNL     1      47.182   6.686  12.336  0.00  0.00    +0.000 C 
BRANCH  15  16
ATOM     16  C   UNL     1      47.536   6.083  13.684  0.00  0.00    +0.000 A 
ATOM     17  C   UNL     1      46.947   4.891  14.114  0.00  0.00    +0.000 A 
ATOM     18  C   UNL     1      47.189   4.395  15.395  0.00  0.00    +0.000 A 
ATOM     19  C   UNL     1      48.070   5.053  16.253  0.00  0.00    +0.000 A 
ATOM     20  C   UNL     1      48.705   6.223  15.826  0.00  0.00    +0.000 A 
ATOM     21  C   UNL     1      48.441   6.729  14.545  0.00  0.00    +0.000 A 
BRANCH  19  22
ATOM     22  C   UNL     1      48.267   4.487  17.612  0.00  0.00    +0.000 C 
ATOM     23  N   UNL     1      47.165   4.387  18.419  0.00  0.00    +0.000 N 
ATOM     24  O   UNL     1      49.372   4.166  18.029  0.00  0.00    +0.000 OA
ATOM     25  H   UNL     1      46.309   4.882  18.220  0.00  0.00    +0.000 HD
ATOM     26  H   UNL     1      47.351   4.132  19.382  0.00  0.00    +0.000 HD
ENDBRANCH  19  22
ENDBRANCH  15  16
ENDBRANCH   2  15
TORSDOF 6
ENDMDL
MODEL 7
REMARK VINA RESULT:    -6.710      2.853      4.434
REMARK INTER + INTRA:         -10.146
REMARK INTER:                  -8.940
REMARK INTRA:                  -1.206
REMARK UNBOUND:                -1.083
REMARK  Name = 
REMARK  7 active torsions:
REMARK  status: ('A' for Active; 'I' for Inactive)
REMARK    1  A    between atoms: C_1  and  C_2
REMARK    2  A    between atoms: C_2  and  C_3
REMARK    3  A    between atoms: C_2  and  C_13
REMARK    4  A    between atoms: C_3  and  C_4
REMARK    5  A    between atoms: C_7  and  C_8
REMARK    6  A    between atoms: C_17  and  O_18
REMARK    7  A    between atoms: O_18  and  C_19
REMARK                            x       y       z     vdW  Elec       q    Type
REMARK                         _______ _______ _______ _____ _____    ______ ____
ROOT
ATOM      1  C   UNL     1      48.421   9.348  11.888  0.00  0.00    +0.000 C 
ATOM      2  C   UNL     1      47.820   8.061  12.481  0.00  0.00    +0.000 C 
ENDROOT
BRANCH   2   3
ATOM      3  C   UNL     1      48.134   7.855  13.966  0.00  0.00    +0.000 A 
ATOM      4  C   UNL     1      48.079   8.945  14.849  0.00  0.00    +0.000 A 
ATOM      5  C   UNL     1      48.544   8.842  16.156  0.00  0.00    +0.000 A 
ATOM      6  C   UNL     1      48.972   7.615  16.645  0.00  0.00    +0.000 A 
ATOM      7  C   UNL     1      48.869   6.475  15.851  0.00  0.00    +0.000 A 
ATOM      8  C   UNL     1      48.482   6.601  14.510  0.00  0.00    +0.000 A 
BRANCH   7   9
ATOM      9  O   UNL     1      49.159   5.209  16.300  0.00  0.00    +0.000 OA
BRANCH   9  10
ATOM     10  C   UNL     1      48.552   4.876  17.562  0.00  0.00    +0.000 C 
ATOM     11  C   UNL     1      49.002   3.510  18.031  0.00  0.00    +0.000 C 
ATOM     12  C   UNL     1      47.980   2.570  17.430  0.00  0.00    +0.000 C 
ATOM     13  O   UNL     1      46.759   3.299  17.286  0.00  0.00    +0.000 OA
ATOM     14  C   UNL     1      47.047   4.700  17.393  0.00  0.00    +0.000 C 
ENDBRANCH   9  10
ENDBRANCH   7   9
ENDBRANCH   2   3
BRANCH   2  15
ATOM     15  C   UNL     1      46.296   7.959  12.121  0.00  0.00    +0.000 C 
BRANCH  15  16
ATOM     16  C   UNL     1      45.741   6.570  11.859  0.00  0.00    +0.000 A 
ATOM     17  C   UNL     1      45.788   6.009  10.580  0.00  0.00    +0.000 A 
ATOM     18  C   UNL     1      45.182   4.780  10.316  0.00  0.00    +0.000 A 
ATOM     19  C   UNL     1      44.564   4.061  11.340  0.00  0.00    +0.000 A 
ATOM     20  C   UNL     1      44.546   4.584  12.637  0.00  0.00    +0.000 A 
ATOM     21  C   UNL     1      45.137   5.830  12.891  0.00  0.00    +0.000 A 
BRANCH  19  22
ATOM     22  C   UNL     1      43.918   2.771  10.989  0.00  0.00    +0.000 C 
ATOM     23  N   UNL     1      44.417   2.089   9.912  0.00  0.00    +0.000 N 
ATOM     24  O   UNL     1      42.943   2.346  11.595  0.00  0.00    +0.000 OA
ATOM     25  H   UNL     1      45.023   2.526   9.235  0.00  0.00    +0.000 HD
ATOM     26  H   UNL     1      43.872   1.289   9.611  0.00  0.00    +0.000 HD
ENDBRANCH  19  22
ENDBRANCH  15  16
ENDBRANCH   2  15
TORSDOF 6
ENDMDL
MODEL 8
REMARK VINA RESULT:    -6.141      3.699      7.592
REMARK INTER + INTRA:          -9.378
REMARK INTER:                  -8.341
REMARK INTRA:                  -1.036
REMARK UNBOUND:                -1.083
REMARK  Name = 
REMARK  7 active torsions:
REMARK  status: ('A' for Active; 'I' for Inactive)
REMARK    1  A    between atoms: C_1  and  C_2
REMARK    2  A    between atoms: C_2  and  C_3
REMARK    3  A    between atoms: C_2  and  C_13
REMARK    4  A    between atoms: C_3  and  C_4
REMARK    5  A    between atoms: C_7  and  C_8
REMARK    6  A    between atoms: C_17  and  O_18
REMARK    7  A    between atoms: O_18  and  C_19
REMARK                            x       y       z     vdW  Elec       q    Type
REMARK                         _______ _______ _______ _____ _____    ______ ____
ROOT
ATOM      1  C   UNL     1      48.292  10.077  13.168  0.00  0.00    +0.000 C 
ATOM      2  C   UNL     1      47.491   8.785  13.406  0.00  0.00    +0.000 C 
ENDROOT
BRANCH   2   3
ATOM      3  C   UNL     1      46.255   8.645  12.512  0.00  0.00    +0.000 A 
ATOM      4  C   UNL     1      45.623   9.794  12.011  0.00  0.00    +0.000 A 
ATOM      5  C   UNL     1      44.395   9.720  11.363  0.00  0.00    +0.000 A 
ATOM      6  C   UNL     1      43.821   8.482  11.103  0.00  0.00    +0.000 A 
ATOM      7  C   UNL     1      44.509   7.315  11.426  0.00  0.00    +0.000 A 
ATOM      8  C   UNL     1      45.703   7.397  12.154  0.00  0.00    +0.000 A 
BRANCH   7   9
ATOM      9  O   UNL     1      44.064   6.056  11.097  0.00  0.00    +0.000 OA
BRANCH   9  10
ATOM     10  C   UNL     1      45.115   5.102  10.862  0.00  0.00    +0.000 C 
ATOM     11  C   UNL     1      45.468   5.042   9.392  0.00  0.00    +0.000 C 
ATOM     12  C   UNL     1      44.545   3.976   8.845  0.00  0.00    +0.000 C 
ATOM     13  O   UNL     1      44.259   3.067   9.911  0.00  0.00    +0.000 OA
ATOM     14  C   UNL     1      44.619   3.689  11.152  0.00  0.00    +0.000 C 
ENDBRANCH   9  10
ENDBRANCH   7   9
ENDBRANCH   2   3
BRANCH   2  15
ATOM     15  C   UNL     1      48.450   7.543  13.386  0.00  0.00    +0.000 C 
BRANCH  15  16
ATOM     16  C   UNL     1      48.249   6.498  14.470  0.00  0.00    +0.000 A 
ATOM     17  C   UNL     1      47.425   5.390  14.254  0.00  0.00    +0.000 A 
ATOM     18  C   UNL     1      47.154   4.489  15.285  0.00  0.00    +0.000 A 
ATOM     19  C   UNL     1      47.747   4.649  16.537  0.00  0.00    +0.000 A 
ATOM     20  C   UNL     1      48.611   5.726  16.761  0.00  0.00    +0.000 A 
ATOM     21  C   UNL     1      48.861   6.640  15.728  0.00  0.00    +0.000 A 
BRANCH  19  22
ATOM     22  C   UNL     1      47.400   3.669  17.598  0.00  0.00    +0.000 C 
ATOM     23  N   UNL     1      48.129   3.710  18.757  0.00  0.00    +0.000 N 
ATOM     24  O   UNL     1      46.535   2.817  17.440  0.00  0.00    +0.000 OA
ATOM     25  H   UNL     1      49.009   4.199  18.819  0.00  0.00    +0.000 HD
ATOM     26  H   UNL     1      47.968   2.945  19.402  0.00  0.00    +0.000 HD
ENDBRANCH  19  22
ENDBRANCH  15  16
ENDBRANCH   2  15
TORSDOF 6
ENDMDL
MODEL 9
REMARK VINA RESULT:    -6.129      4.195      8.653
REMARK INTER + INTRA:          -9.362
REMARK INTER:                  -8.418
REMARK INTRA:                  -0.943
REMARK UNBOUND:                -1.083
REMARK  Name = 
REMARK  7 active torsions:
REMARK  status: ('A' for Active; 'I' for Inactive)
REMARK    1  A    between atoms: C_1  and  C_2
REMARK    2  A    between atoms: C_2  and  C_3
REMARK    3  A    between atoms: C_2  and  C_13
REMARK    4  A    between atoms: C_3  and  C_4
REMARK    5  A    between atoms: C_7  and  C_8
REMARK    6  A    between atoms: C_17  and  O_18
REMARK    7  A    between atoms: O_18  and  C_19
REMARK                            x       y       z     vdW  Elec       q    Type
REMARK                         _______ _______ _______ _____ _____    ______ ____
ROOT
ATOM      1  C   UNL     1      47.160   4.851  18.049  0.00  0.00    +0.000 C 
ATOM      2  C   UNL     1      48.217   4.545  16.973  0.00  0.00    +0.000 C 
ENDROOT
BRANCH   2   3
ATOM      3  C   UNL     1      47.914   5.170  15.608  0.00  0.00    +0.000 A 
ATOM      4  C   UNL     1      48.571   6.348  15.219  0.00  0.00    +0.000 A 
ATOM      5  C   UNL     1      48.186   7.050  14.081  0.00  0.00    +0.000 A 
ATOM      6  C   UNL     1      47.206   6.531  13.245  0.00  0.00    +0.000 A 
ATOM      7  C   UNL     1      46.661   5.276  13.506  0.00  0.00    +0.000 A 
ATOM      8  C   UNL     1      46.991   4.615  14.697  0.00  0.00    +0.000 A 
BRANCH   7   9
ATOM      9  O   UNL     1      45.776   4.643  12.666  0.00  0.00    +0.000 OA
BRANCH   9  10
ATOM     10  C   UNL     1      45.243   5.485  11.628  0.00  0.00    +0.000 C 
ATOM     11  C   UNL     1      43.846   5.948  11.977  0.00  0.00    +0.000 C 
ATOM     12  C   UNL     1      42.955   4.874  11.394  0.00  0.00    +0.000 C 
ATOM     13  O   UNL     1      43.641   4.307  10.276  0.00  0.00    +0.000 OA
ATOM     14  C   UNL     1      45.025   4.677  10.353  0.00  0.00    +0.000 C 
ENDBRANCH   9  10
ENDBRANCH   7   9
ENDBRANCH   2   3
BRANCH   2  15
ATOM     15  C   UNL     1      49.654   4.853  17.522  0.00  0.00    +0.000 C 
BRANCH  15  16
ATOM     16  C   UNL     1      50.605   3.678  17.664  0.00  0.00    +0.000 A 
ATOM     17  C   UNL     1      51.906   3.862  18.140  0.00  0.00    +0.000 A 
ATOM     18  C   UNL     1      52.814   2.803  18.168  0.00  0.00    +0.000 A 
ATOM     19  C   UNL     1      52.420   1.524  17.773  0.00  0.00    +0.000 A 
ATOM     20  C   UNL     1      51.109   1.309  17.337  0.00  0.00    +0.000 A 
ATOM     21  C   UNL     1      50.208   2.382  17.290  0.00  0.00    +0.000 A 
BRANCH  19  22
ATOM     22  C   UNL     1      53.440   0.444  17.805  0.00  0.00    +0.000 C 
ATOM     23  N   UNL     1      53.682  -0.228  16.636  0.00  0.00    +0.000 N 
ATOM     24  O   UNL     1      54.012   0.120  18.837  0.00  0.00    +0.000 OA
ATOM     25  H   UNL     1      53.052  -0.180  15.850  0.00  0.00    +0.000 HD
ATOM     26  H   UNL     1      54.274  -1.047  16.718  0.00  0.00    +0.000 HD
ENDBRANCH  19  22
ENDBRANCH  15  16
ENDBRANCH   2  15
TORSDOF 6
ENDMDL
