MODEL 1
REMARK VINA RESULT:    -8.388      0.000      0.000
REMARK INTER + INTRA:         -11.892
REMARK INTER:                 -11.331
REMARK INTRA:                  -0.561
REMARK UNBOUND:                -0.561
REMARK  Name = 
REMARK  7 active torsions:
REMARK  status: ('A' for Active; 'I' for Inactive)
REMARK    1  A    between atoms: C_1  and  C_2
REMARK    2  A    between atoms: C_2  and  N_3
REMARK    3  A    between atoms: C_2  and  C_16
REMARK    4  A    between atoms: C_4  and  C_6
REMARK    5  A    between atoms: C_19  and  C_20
REMARK    6  A    between atoms: C_20  and  N_21
REMARK    7  A    between atoms: C_22  and  C_24
REMARK                            x       y       z     vdW  Elec       q    Type
REMARK                         _______ _______ _______ _____ _____    ______ ____
ROOT
ATOM      1  C   UNL     1      48.258   9.183  12.804  0.00  0.00    +0.000 C 
ATOM      2  C   UNL     1      47.117   8.463  13.529  0.00  0.00    +0.000 C 
ENDROOT
BRANCH   2   3
ATOM      3  C   UNL     1      46.356   7.454  12.678  0.00  0.00    +0.000 A 
ATOM      4  C   UNL     1      46.912   7.054  11.452  0.00  0.00    +0.000 A 
ATOM      5  C   UNL     1      46.244   6.157  10.611  0.00  0.00    +0.000 A 
ATOM      6  C   UNL     1      44.990   5.647  10.962  0.00  0.00    +0.000 A 
ATOM      7  C   UNL     1      44.433   6.033  12.187  0.00  0.00    +0.000 A 
ATOM      8  C   UNL     1      45.100   6.936  13.028  0.00  0.00    +0.000 A 
BRANCH   6   9
ATOM      9  C   UNL     1      44.257   4.713  10.034  0.00  0.00    +0.000 C 
BRANCH   9  10
ATOM     10  N   UNL     1      45.073   4.276   8.931  0.00  0.00    +0.000 N 
ATOM     11  C   UNL     1      45.374   2.943   8.741  0.00  0.00    +0.000 C 
ATOM     12  O   UNL     1      44.982   2.043   9.478  0.00  0.00    +0.000 OA
ATOM     13  H   UNL     1      45.402   4.938   8.234  0.00  0.00    +0.000 HD
BRANCH  11  14
ATOM     14  C   UNL     1      46.229   2.650   7.555  0.00  0.00    +0.000 A 
ATOM     15  C   UNL     1      47.004   1.499   7.521  0.00  0.00    +0.000 A 
ATOM     16  N   UNL     1      47.811   1.200   6.468  0.00  0.00    +0.000 NA
ATOM     17  C   UNL     1      47.808   2.103   5.462  0.00  0.00    +0.000 A 
ATOM     18  C   UNL     1      47.031   3.251   5.497  0.00  0.00    +0.000 A 
ATOM     19  N   UNL     1      46.217   3.558   6.537  0.00  0.00    +0.000 NA
ENDBRANCH  11  14
ENDBRANCH   9  10
ENDBRANCH   6   9
ENDBRANCH   2   3
BRANCH   2  20
ATOM     20  N   UNL     1      47.613   7.805  14.725  0.00  0.00    +0.000 N 
ATOM     21  C   UNL     1      48.588   6.840  14.689  0.00  0.00    +0.000 C 
ATOM     22  O   UNL     1      49.189   6.545  13.660  0.00  0.00    +0.000 OA
ATOM     23  H   UNL     1      47.037   7.896  15.555  0.00  0.00    +0.000 HD
BRANCH  21  24
ATOM     24  C   UNL     1      48.916   6.210  15.973  0.00  0.00    +0.000 A 
ATOM     25  C   UNL     1      49.935   6.724  16.763  0.00  0.00    +0.000 A 
ATOM     26  S   UNL     1      50.158   5.872  18.226  0.00  0.00    +0.000 S 
ATOM     27  C   UNL     1      48.943   4.751  17.822  0.00  0.00    +0.000 A 
ATOM     28  N   UNL     1      48.649   3.710  18.646  0.00  0.00    +0.000 NA
ATOM     29  C   UNL     1      47.736   2.915  18.195  0.00  0.00    +0.000 A 
ATOM     30  N   UNL     1      47.082   3.073  17.000  0.00  0.00    +0.000 N 
ATOM     31  C   UNL     1      47.306   4.139  16.162  0.00  0.00    +0.000 A 
ATOM     32  O   UNL     1      46.641   4.300  15.145  0.00  0.00    +0.000 OA
ATOM     33  C   UNL     1      48.351   5.043  16.606  0.00  0.00    +0.000 A 
ATOM     34  H   UNL     1      46.362   2.428  16.713  0.00  0.00    +0.000 HD
ENDBRANCH  21  24
ENDBRANCH   2  20
TORSDOF 6
ENDMDL
MODEL 2
REMARK VINA RESULT:    -7.656      1.990      2.342
REMARK INTER + INTRA:         -10.902
REMARK INTER:                  -9.954
REMARK INTRA:                  -0.948
REMARK UNBOUND:                -0.561
REMARK  Name = 
REMARK  7 active torsions:
REMARK  status: ('A' for Active; 'I' for Inactive)
REMARK    1  A    between atoms: C_1  and  C_2
REMARK    2  A    between atoms: C_2  and  N_3
REMARK    3  A    between atoms: C_2  and  C_16
REMARK    4  A    between atoms: C_4  and  C_6
REMARK    5  A    between atoms: C_19  and  C_20
REMARK    6  A    between atoms: C_20  and  N_21
REMARK    7  A    between atoms: C_22  and  C_24
REMARK                            x       y       z     vdW  Elec       q    Type
REMARK                         _______ _______ _______ _____ _____    ______ ____
ROOT
ATOM      1  C   UNL     1      49.669   8.265  13.762  0.00  0.00    +0.000 C 
ATOM      2  C   UNL     1      48.212   8.448  14.198  0.00  0.00    +0.000 C 
ENDROOT
BRANCH   2   3
ATOM      3  C   UNL     1      47.187   7.762  13.304  0.00  0.00    +0.000 A 
ATOM      4  C   UNL     1      47.422   6.435  12.907  0.00  0.00    +0.000 A 
ATOM      5  C   UNL     1      46.535   5.764  12.058  0.00  0.00    +0.000 A 
ATOM      6  C   UNL     1      45.395   6.406  11.564  0.00  0.00    +0.000 A 
ATOM      7  C   UNL     1      45.149   7.726  11.961  0.00  0.00    +0.000 A 
ATOM      8  C   UNL     1      46.040   8.401  12.808  0.00  0.00    +0.000 A 
BRANCH   6   9
ATOM      9  C   UNL     1      44.465   5.692  10.618  0.00  0.00    +0.000 C 
BRANCH   9  10
ATOM     10  N   UNL     1      45.167   4.871   9.665  0.00  0.00    +0.000 N 
ATOM     11  C   UNL     1      44.824   3.551   9.460  0.00  0.00    +0.000 C 
ATOM     12  O   UNL     1      43.915   2.982  10.057  0.00  0.00    +0.000 OA
ATOM     13  H   UNL     1      45.902   5.264   9.082  0.00  0.00    +0.000 HD
BRANCH  11  14
ATOM     14  C   UNL     1      45.645   2.835   8.442  0.00  0.00    +0.000 A 
ATOM     15  C   UNL     1      46.123   3.513   7.329  0.00  0.00    +0.000 A 
ATOM     16  N   UNL     1      46.862   2.896   6.368  0.00  0.00    +0.000 NA
ATOM     17  C   UNL     1      47.093   1.580   6.571  0.00  0.00    +0.000 A 
ATOM     18  C   UNL     1      46.615   0.905   7.685  0.00  0.00    +0.000 A 
ATOM     19  N   UNL     1      45.884   1.509   8.653  0.00  0.00    +0.000 NA
ENDBRANCH  11  14
ENDBRANCH   9  10
ENDBRANCH   6   9
ENDBRANCH   2   3
BRANCH   2  20
ATOM     20  N   UNL     1      48.032   7.997  15.567  0.00  0.00    +0.000 N 
ATOM     21  C   UNL     1      48.494   8.707  16.647  0.00  0.00    +0.000 C 
ATOM     22  O   UNL     1      48.990   9.825  16.540  0.00  0.00    +0.000 OA
ATOM     23  H   UNL     1      47.785   7.022  15.686  0.00  0.00    +0.000 HD
BRANCH  21  24
ATOM     24  C   UNL     1      48.312   8.075  17.958  0.00  0.00    +0.000 A 
ATOM     25  C   UNL     1      47.887   8.828  19.044  0.00  0.00    +0.000 A 
ATOM     26  S   UNL     1      47.713   7.917  20.478  0.00  0.00    +0.000 S 
ATOM     27  C   UNL     1      48.260   6.500  19.710  0.00  0.00    +0.000 A 
ATOM     28  N   UNL     1      48.393   5.336  20.399  0.00  0.00    +0.000 NA
ATOM     29  C   UNL     1      48.858   4.353  19.702  0.00  0.00    +0.000 A 
ATOM     30  N   UNL     1      49.191   4.426  18.373  0.00  0.00    +0.000 N 
ATOM     31  C   UNL     1      49.022   5.565  17.623  0.00  0.00    +0.000 A 
ATOM     32  O   UNL     1      49.245   5.572  16.417  0.00  0.00    +0.000 OA
ATOM     33  C   UNL     1      48.537   6.710  18.370  0.00  0.00    +0.000 A 
ATOM     34  H   UNL     1      49.530   3.615  17.879  0.00  0.00    +0.000 HD
ENDBRANCH  21  24
ENDBRANCH   2  20
TORSDOF 6
ENDMDL
MODEL 3
REMARK VINA RESULT:    -7.650      4.501      7.282
REMARK INTER + INTRA:         -10.895
REMARK INTER:                  -9.878
REMARK INTRA:                  -1.017
REMARK UNBOUND:                -0.561
REMARK  Name = 
REMARK  7 active torsions:
REMARK  status: ('A' for Active; 'I' for Inactive)
REMARK    1  A    between atoms: C_1  and  C_2
REMARK    2  A    between atoms: C_2  and  N_3
REMARK    3  A    between atoms: C_2  and  C_16
REMARK    4  A    between atoms: C_4  and  C_6
REMARK    5  A    between atoms: C_19  and  C_20
REMARK    6  A    between atoms: C_20  and  N_21
REMARK    7  A    between atoms: C_22  and  C_24
REMARK                            x       y       z     vdW  Elec       q    Type
REMARK                         _______ _______ _______ _____ _____    ______ ____
ROOT
ATOM      1  C   UNL     1      44.706   4.148  12.961  0.00  0.00    +0.000 C 
ATOM      2  C   UNL     1      45.845   5.171  12.903  0.00  0.00    +0.000 C 
ENDROOT
BRANCH   2   3
ATOM      3  C   UNL     1      45.432   6.561  12.435  0.00  0.00    +0.000 A 
ATOM      4  C   UNL     1      46.004   7.680  13.062  0.00  0.00    +0.000 A 
ATOM      5  C   UNL     1      45.639   8.981  12.700  0.00  0.00    +0.000 A 
ATOM      6  C   UNL     1      44.674   9.203  11.712  0.00  0.00    +0.000 A 
ATOM      7  C   UNL     1      44.104   8.093  11.075  0.00  0.00    +0.000 A 
ATOM      8  C   UNL     1      44.467   6.789  11.442  0.00  0.00    +0.000 A 
BRANCH   6   9
ATOM      9  C   UNL     1      44.254  10.605  11.354  0.00  0.00    +0.000 C 
BRANCH   9  10
ATOM     10  N   UNL     1      43.050  11.012  12.031  0.00  0.00    +0.000 N 
ATOM     11  C   UNL     1      41.818  10.943  11.415  0.00  0.00    +0.000 C 
ATOM     12  O   UNL     1      41.650  10.540  10.268  0.00  0.00    +0.000 OA
ATOM     13  H   UNL     1      43.076  11.310  13.003  0.00  0.00    +0.000 HD
BRANCH  11  14
ATOM     14  C   UNL     1      40.668  11.401  12.247  0.00  0.00    +0.000 A 
ATOM     15  C   UNL     1      39.371  11.052  11.897  0.00  0.00    +0.000 A 
ATOM     16  N   UNL     1      38.292  11.460  12.616  0.00  0.00    +0.000 NA
ATOM     17  C   UNL     1      38.571  12.232  13.690  0.00  0.00    +0.000 A 
ATOM     18  C   UNL     1      39.868  12.579  14.039  0.00  0.00    +0.000 A 
ATOM     19  N   UNL     1      40.952  12.172  13.336  0.00  0.00    +0.000 NA
ENDBRANCH  11  14
ENDBRANCH   9  10
ENDBRANCH   6   9
ENDBRANCH   2   3
BRANCH   2  20
ATOM     20  N   UNL     1      46.499   5.275  14.195  0.00  0.00    +0.000 N 
ATOM     21  C   UNL     1      47.175   4.227  14.769  0.00  0.00    +0.000 C 
ATOM     22  O   UNL     1      47.371   3.166  14.183  0.00  0.00    +0.000 OA
ATOM     23  H   UNL     1      46.223   6.061  14.773  0.00  0.00    +0.000 HD
BRANCH  21  24
ATOM     24  C   UNL     1      47.705   4.465  16.116  0.00  0.00    +0.000 A 
ATOM     25  C   UNL     1      47.302   3.664  17.176  0.00  0.00    +0.000 A 
ATOM     26  S   UNL     1      48.038   4.077  18.660  0.00  0.00    +0.000 S 
ATOM     27  C   UNL     1      48.871   5.380  17.948  0.00  0.00    +0.000 A 
ATOM     28  N   UNL     1      49.666   6.194  18.691  0.00  0.00    +0.000 NA
ATOM     29  C   UNL     1      50.202   7.165  18.030  0.00  0.00    +0.000 A 
ATOM     30  N   UNL     1      50.023   7.390  16.689  0.00  0.00    +0.000 N 
ATOM     31  C   UNL     1      49.273   6.563  15.887  0.00  0.00    +0.000 A 
ATOM     32  O   UNL     1      49.207   6.740  14.675  0.00  0.00    +0.000 OA
ATOM     33  C   UNL     1      48.619   5.476  16.590  0.00  0.00    +0.000 A 
ATOM     34  H   UNL     1      50.487   8.156  16.225  0.00  0.00    +0.000 HD
ENDBRANCH  21  24
ENDBRANCH   2  20
TORSDOF 6
ENDMDL
MODEL 4
REMARK VINA RESULT:    -7.649      2.744      3.072
REMARK INTER + INTRA:         -10.893
REMARK INTER:                  -9.900
REMARK INTRA:                  -0.994
REMARK UNBOUND:                -0.561
REMARK  Name = 
REMARK  7 active torsions:
REMARK  status: ('A' for Active; 'I' for Inactive)
REMARK    1  A    between atoms: C_1  and  C_2
REMARK    2  A    between atoms: C_2  and  N_3
REMARK    3  A    between atoms: C_2  and  C_16
REMARK    4  A    between atoms: C_4  and  C_6
REMARK    5  A    between atoms: C_19  and  C_20
REMARK    6  A    between atoms: C_20  and  N_21
REMARK    7  A    between atoms: C_22  and  C_24
REMARK                            x       y       z     vdW  Elec       q    Type
REMARK                         _______ _______ _______ _____ _____    ______ ____
ROOT
ATOM      1  C   UNL     1      49.690   8.222  14.281  0.00  0.00    +0.000 C 
ATOM      2  C   UNL     1      48.274   8.779  14.456  0.00  0.00    +0.000 C 
ENDROOT
BRANCH   2   3
ATOM      3  C   UNL     1      47.210   8.099  13.603  0.00  0.00    +0.000 A 
ATOM      4  C   UNL     1      47.359   6.734  13.305  0.00  0.00    +0.000 A 
ATOM      5  C   UNL     1      46.434   6.063  12.498  0.00  0.00    +0.000 A 
ATOM      6  C   UNL     1      45.341   6.742  11.948  0.00  0.00    +0.000 A 
ATOM      7  C   UNL     1      45.181   8.100  12.247  0.00  0.00    +0.000 A 
ATOM      8  C   UNL     1      46.111   8.774  13.052  0.00  0.00    +0.000 A 
BRANCH   6   9
ATOM      9  C   UNL     1      44.370   6.025  11.046  0.00  0.00    +0.000 C 
BRANCH   9  10
ATOM     10  N   UNL     1      45.031   5.236  10.038  0.00  0.00    +0.000 N 
ATOM     11  C   UNL     1      44.605   3.962   9.726  0.00  0.00    +0.000 C 
ATOM     12  O   UNL     1      43.654   3.408  10.269  0.00  0.00    +0.000 OA
ATOM     13  H   UNL     1      45.796   5.625   9.494  0.00  0.00    +0.000 HD
BRANCH  11  14
ATOM     14  C   UNL     1      45.392   3.274   8.662  0.00  0.00    +0.000 A 
ATOM     15  C   UNL     1      45.674   1.919   8.769  0.00  0.00    +0.000 A 
ATOM     16  N   UNL     1      46.402   1.255   7.832  0.00  0.00    +0.000 NA
ATOM     17  C   UNL     1      46.833   2.007   6.794  0.00  0.00    +0.000 A 
ATOM     18  C   UNL     1      46.548   3.361   6.689  0.00  0.00    +0.000 A 
ATOM     19  N   UNL     1      45.818   4.033   7.612  0.00  0.00    +0.000 NA
ENDBRANCH  11  14
ENDBRANCH   9  10
ENDBRANCH   6   9
ENDBRANCH   2   3
BRANCH   2  20
ATOM     20  N   UNL     1      47.877   8.723  15.852  0.00  0.00    +0.000 N 
ATOM     21  C   UNL     1      48.280   9.657  16.774  0.00  0.00    +0.000 C 
ATOM     22  O   UNL     1      48.909  10.665  16.464  0.00  0.00    +0.000 OA
ATOM     23  H   UNL     1      47.508   7.837  16.176  0.00  0.00    +0.000 HD
BRANCH  21  24
ATOM     24  C   UNL     1      47.867   9.412  18.160  0.00  0.00    +0.000 A 
ATOM     25  C   UNL     1      47.375  10.451  18.937  0.00  0.00    +0.000 A 
ATOM     26  S   UNL     1      46.929   9.972  20.513  0.00  0.00    +0.000 S 
ATOM     27  C   UNL     1      47.437   8.372  20.230  0.00  0.00    +0.000 A 
ATOM     28  N   UNL     1      47.368   7.431  21.209  0.00  0.00    +0.000 NA
ATOM     29  C   UNL     1      47.827   6.273  20.868  0.00  0.00    +0.000 A 
ATOM     30  N   UNL     1      48.339   5.967  19.633  0.00  0.00    +0.000 N 
ATOM     31  C   UNL     1      48.378   6.869  18.598  0.00  0.00    +0.000 A 
ATOM     32  O   UNL     1      48.758   6.539  17.480  0.00  0.00    +0.000 OA
ATOM     33  C   UNL     1      47.907   8.198  18.940  0.00  0.00    +0.000 A 
ATOM     34  H   UNL     1      48.663   5.036  19.423  0.00  0.00    +0.000 HD
ENDBRANCH  21  24
ENDBRANCH   2  20
TORSDOF 6
ENDMDL
MODEL 5
REMARK VINA RESULT:    -7.564      2.022      2.827
REMARK INTER + INTRA:         -10.779
REMARK INTER:                  -9.619
REMARK INTRA:                  -1.160
REMARK UNBOUND:                -0.561
REMARK  Name = 
REMARK  7 active torsions:
REMARK  status: ('A' for Active; 'I' for Inactive)
REMARK    1  A    between atoms: C_1  and  C_2
REMARK    2  A    between atoms: C_2  and  N_3
REMARK    3  A    between atoms: C_2  and  C_16
REMARK    4  A    between atoms: C_4  and  C_6
REMARK    5  A    between atoms: C_19  and  C_20
REMARK    6  A    between atoms: C_20  and  N_21
REMARK    7  A    between atoms: C_22  and  C_24
REMARK                            x       y       z     vdW  Elec       q    Type
REMARK                         _______ _______ _______ _____ _____    ______ ____
ROOT
ATOM      1  C   UNL     1      48.433   9.437  13.383  0.00  0.00    +0.000 C 
ATOM      2  C   UNL     1      47.567   8.394  14.096  0.00  0.00    +0.000 C 
ENDROOT
BRANCH   2   3
ATOM      3  C   UNL     1      46.661   7.582  13.178  0.00  0.00    +0.000 A 
ATOM      4  C   UNL     1      46.761   6.181  13.203  0.00  0.00    +0.000 A 
ATOM      5  C   UNL     1      45.981   5.383  12.359  0.00  0.00    +0.000 A 
ATOM      6  C   UNL     1      45.090   5.963  11.451  0.00  0.00    +0.000 A 
ATOM      7  C   UNL     1      44.977   7.359  11.425  0.00  0.00    +0.000 A 
ATOM      8  C   UNL     1      45.763   8.159  12.268  0.00  0.00    +0.000 A 
BRANCH   6   9
ATOM      9  C   UNL     1      44.282   5.101  10.515  0.00  0.00    +0.000 C 
BRANCH   9  10
ATOM     10  N   UNL     1      45.077   4.542   9.452  0.00  0.00    +0.000 N 
ATOM     11  C   UNL     1      44.978   3.212   9.101  0.00  0.00    +0.000 C 
ATOM     12  O   UNL     1      44.223   2.415   9.651  0.00  0.00    +0.000 OA
ATOM     13  H   UNL     1      45.694   5.132   8.899  0.00  0.00    +0.000 HD
BRANCH  11  14
ATOM     14  C   UNL     1      45.866   2.785   7.982  0.00  0.00    +0.000 A 
ATOM     15  C   UNL     1      46.462   1.531   8.004  0.00  0.00    +0.000 A 
ATOM     16  N   UNL     1      47.292   1.106   7.015  0.00  0.00    +0.000 NA
ATOM     17  C   UNL     1      47.499   1.991   6.013  0.00  0.00    +0.000 A 
ATOM     18  C   UNL     1      46.901   3.242   5.993  0.00  0.00    +0.000 A 
ATOM     19  N   UNL     1      46.067   3.675   6.968  0.00  0.00    +0.000 NA
ENDBRANCH  11  14
ENDBRANCH   9  10
ENDBRANCH   6   9
ENDBRANCH   2   3
BRANCH   2  20
ATOM     20  N   UNL     1      48.397   7.491  14.873  0.00  0.00    +0.000 N 
ATOM     21  C   UNL     1      48.706   7.718  16.190  0.00  0.00    +0.000 C 
ATOM     22  O   UNL     1      48.214   8.639  16.836  0.00  0.00    +0.000 OA
ATOM     23  H   UNL     1      48.949   6.826  14.343  0.00  0.00    +0.000 HD
BRANCH  21  24
ATOM     24  C   UNL     1      49.628   6.759  16.809  0.00  0.00    +0.000 A 
ATOM     25  C   UNL     1      49.191   5.934  17.836  0.00  0.00    +0.000 A 
ATOM     26  S   UNL     1      50.396   4.873  18.416  0.00  0.00    +0.000 S 
ATOM     27  C   UNL     1      51.558   5.525  17.357  0.00  0.00    +0.000 A 
ATOM     28  N   UNL     1      52.844   5.081  17.368  0.00  0.00    +0.000 NA
ATOM     29  C   UNL     1      53.626   5.694  16.543  0.00  0.00    +0.000 A 
ATOM     30  N   UNL     1      53.236   6.702  15.698  0.00  0.00    +0.000 N 
ATOM     31  C   UNL     1      51.938   7.144  15.613  0.00  0.00    +0.000 A 
ATOM     32  O   UNL     1      51.605   7.984  14.784  0.00  0.00    +0.000 OA
ATOM     33  C   UNL     1      51.026   6.513  16.548  0.00  0.00    +0.000 A 
ATOM     34  H   UNL     1      53.892   7.127  15.061  0.00  0.00    +0.000 HD
ENDBRANCH  21  24
ENDBRANCH   2  20
TORSDOF 6
ENDMDL
MODEL 6
REMARK VINA RESULT:    -6.844      5.393      8.285
REMARK INTER + INTRA:          -9.805
REMARK INTER:                  -8.698
REMARK INTRA:                  -1.107
REMARK UNBOUND:                -0.561
REMARK  Name = 
REMARK  7 active torsions:
REMARK  status: ('A' for Active; 'I' for Inactive)
REMARK    1  A    between atoms: C_1  and  C_2
REMARK    2  A    between atoms: C_2  and  N_3
REMARK    3  A    between atoms: C_2  and  C_16
REMARK    4  A    between atoms: C_4  and  C_6
REMARK    5  A    between atoms: C_19  and  C_20
REMARK    6  A    between atoms: C_20  and  N_21
REMARK    7  A    between atoms: C_22  and  C_24
REMARK                            x       y       z     vdW  Elec       q    Type
REMARK                         _______ _______ _______ _____ _____    ______ ____
ROOT
ATOM      1  C   UNL     1      51.241  11.122  10.761  0.00  0.00    +0.000 C 
ATOM      2  C   UNL     1      51.766   9.728  11.118  0.00  0.00    +0.000 C 
ENDROOT
BRANCH   2   3
ATOM      3  C   UNL     1      50.821   8.888  11.968  0.00  0.00    +0.000 A 
ATOM      4  C   UNL     1      50.666   9.216  13.325  0.00  0.00    +0.000 A 
ATOM      5  C   UNL     1      49.840   8.461  14.164  0.00  0.00    +0.000 A 
ATOM      6  C   UNL     1      49.156   7.343  13.676  0.00  0.00    +0.000 A 
ATOM      7  C   UNL     1      49.297   7.014  12.322  0.00  0.00    +0.000 A 
ATOM      8  C   UNL     1      50.130   7.768  11.482  0.00  0.00    +0.000 A 
BRANCH   6   9
ATOM      9  C   UNL     1      48.299   6.509  14.593  0.00  0.00    +0.000 C 
BRANCH   9  10
ATOM     10  N   UNL     1      47.053   6.121  13.985  0.00  0.00    +0.000 N 
ATOM     11  C   UNL     1      46.723   4.795  13.799  0.00  0.00    +0.000 C 
ATOM     12  O   UNL     1      47.447   3.860  14.128  0.00  0.00    +0.000 OA
ATOM     13  H   UNL     1      46.361   6.820  13.727  0.00  0.00    +0.000 HD
BRANCH  11  14
ATOM     14  C   UNL     1      45.399   4.556  13.156  0.00  0.00    +0.000 A 
ATOM     15  C   UNL     1      44.475   5.588  13.057  0.00  0.00    +0.000 A 
ATOM     16  N   UNL     1      43.251   5.412  12.494  0.00  0.00    +0.000 NA
ATOM     17  C   UNL     1      42.995   4.163  12.043  0.00  0.00    +0.000 A 
ATOM     18  C   UNL     1      43.920   3.134  12.142  0.00  0.00    +0.000 A 
ATOM     19  N   UNL     1      45.146   3.298  12.694  0.00  0.00    +0.000 NA
ENDBRANCH  11  14
ENDBRANCH   9  10
ENDBRANCH   6   9
ENDBRANCH   2   3
BRANCH   2  20
ATOM     20  N   UNL     1      52.110   8.993   9.914  0.00  0.00    +0.000 N 
ATOM     21  C   UNL     1      53.316   9.140   9.277  0.00  0.00    +0.000 C 
ATOM     22  O   UNL     1      54.231   9.817   9.739  0.00  0.00    +0.000 OA
ATOM     23  H   UNL     1      51.338   8.564   9.418  0.00  0.00    +0.000 HD
BRANCH  21  24
ATOM     24  C   UNL     1      53.477   8.394   8.024  0.00  0.00    +0.000 A 
ATOM     25  C   UNL     1      53.506   9.066   6.809  0.00  0.00    +0.000 A 
ATOM     26  S   UNL     1      53.718   8.035   5.465  0.00  0.00    +0.000 S 
ATOM     27  C   UNL     1      53.716   6.651   6.457  0.00  0.00    +0.000 A 
ATOM     28  N   UNL     1      53.821   5.405   5.922  0.00  0.00    +0.000 NA
ATOM     29  C   UNL     1      53.762   4.447   6.786  0.00  0.00    +0.000 A 
ATOM     30  N   UNL     1      53.620   4.623   8.139  0.00  0.00    +0.000 N 
ATOM     31  C   UNL     1      53.566   5.862   8.729  0.00  0.00    +0.000 A 
ATOM     32  O   UNL     1      53.530   5.986   9.949  0.00  0.00    +0.000 OA
ATOM     33  C   UNL     1      53.591   6.973   7.797  0.00  0.00    +0.000 A 
ATOM     34  H   UNL     1      53.602   3.832   8.765  0.00  0.00    +0.000 HD
ENDBRANCH  21  24
ENDBRANCH   2  20
TORSDOF 6
ENDMDL
MODEL 7
REMARK VINA RESULT:    -6.787      5.458      8.521
REMARK INTER + INTRA:          -9.729
REMARK INTER:                  -8.545
REMARK INTRA:                  -1.183
REMARK UNBOUND:                -0.561
REMARK  Name = 
REMARK  7 active torsions:
REMARK  status: ('A' for Active; 'I' for Inactive)
REMARK    1  A    between atoms: C_1  and  C_2
REMARK    2  A    between atoms: C_2  and  N_3
REMARK    3  A    between atoms: C_2  and  C_16
REMARK    4  A    between atoms: C_4  and  C_6
REMARK    5  A    between atoms: C_19  and  C_20
REMARK    6  A    between atoms: C_20  and  N_21
REMARK    7  A    between atoms: C_22  and  C_24
REMARK                            x       y       z     vdW  Elec       q    Type
REMARK                         _______ _______ _______ _____ _____    ______ ____
ROOT
ATOM      1  C   UNL     1      51.236  10.611  11.079  0.00  0.00    +0.000 C 
ATOM      2  C   UNL     1      51.797   9.241  11.470  0.00  0.00    +0.000 C 
ENDROOT
BRANCH   2   3
ATOM      3  C   UNL     1      50.901   8.423  12.392  0.00  0.00    +0.000 A 
ATOM      4  C   UNL     1      49.851   7.682  11.826  0.00  0.00    +0.000 A 
ATOM      5  C   UNL     1      48.974   6.940  12.623  0.00  0.00    +0.000 A 
ATOM      6  C   UNL     1      49.108   6.931  14.015  0.00  0.00    +0.000 A 
ATOM      7  C   UNL     1      50.157   7.661  14.589  0.00  0.00    +0.000 A 
ATOM      8  C   UNL     1      51.034   8.409  13.789  0.00  0.00    +0.000 A 
BRANCH   6   9
ATOM      9  C   UNL     1      48.136   6.164  14.873  0.00  0.00    +0.000 C 
BRANCH   9  10
ATOM     10  N   UNL     1      46.905   5.869  14.186  0.00  0.00    +0.000 N 
ATOM     11  C   UNL     1      46.540   4.574  13.884  0.00  0.00    +0.000 C 
ATOM     12  O   UNL     1      47.218   3.590  14.167  0.00  0.00    +0.000 OA
ATOM     13  H   UNL     1      46.248   6.610  13.955  0.00  0.00    +0.000 HD
BRANCH  11  14
ATOM     14  C   UNL     1      45.238   4.433  13.170  0.00  0.00    +0.000 A 
ATOM     15  C   UNL     1      44.441   5.547  12.947  0.00  0.00    +0.000 A 
ATOM     16  N   UNL     1      43.240   5.463  12.316  0.00  0.00    +0.000 NA
ATOM     17  C   UNL     1      42.876   4.221  11.926  0.00  0.00    +0.000 A 
ATOM     18  C   UNL     1      43.675   3.109  12.150  0.00  0.00    +0.000 A 
ATOM     19  N   UNL     1      44.877   3.179  12.771  0.00  0.00    +0.000 NA
ENDBRANCH  11  14
ENDBRANCH   9  10
ENDBRANCH   6   9
ENDBRANCH   2   3
BRANCH   2  20
ATOM     20  N   UNL     1      52.104   8.461  10.284  0.00  0.00    +0.000 N 
ATOM     21  C   UNL     1      53.229   7.684  10.179  0.00  0.00    +0.000 C 
ATOM     22  O   UNL     1      53.998   7.503  11.119  0.00  0.00    +0.000 OA
ATOM     23  H   UNL     1      51.595   8.711   9.443  0.00  0.00    +0.000 HD
BRANCH  21  24
ATOM     24  C   UNL     1      53.440   7.029   8.884  0.00  0.00    +0.000 A 
ATOM     25  C   UNL     1      53.650   5.658   8.820  0.00  0.00    +0.000 A 
ATOM     26  S   UNL     1      53.856   5.073   7.229  0.00  0.00    +0.000 S 
ATOM     27  C   UNL     1      53.733   6.641   6.578  0.00  0.00    +0.000 A 
ATOM     28  N   UNL     1      53.865   6.858   5.242  0.00  0.00    +0.000 NA
ATOM     29  C   UNL     1      53.793   8.100   4.894  0.00  0.00    +0.000 A 
ATOM     30  N   UNL     1      53.588   9.144   5.760  0.00  0.00    +0.000 N 
ATOM     31  C   UNL     1      53.394   8.968   7.108  0.00  0.00    +0.000 A 
ATOM     32  O   UNL     1      53.123   9.913   7.841  0.00  0.00    +0.000 OA
ATOM     33  C   UNL     1      53.503   7.593   7.557  0.00  0.00    +0.000 A 
ATOM     34  H   UNL     1      53.519  10.091   5.421  0.00  0.00    +0.000 HD
ENDBRANCH  21  24
ENDBRANCH   2  20
TORSDOF 6
ENDMDL
MODEL 8
REMARK VINA RESULT:    -6.783      3.565      5.168
REMARK INTER + INTRA:          -9.723
REMARK INTER:                  -8.482
REMARK INTRA:                  -1.241
REMARK UNBOUND:                -0.561
REMARK  Name = 
REMARK  7 active torsions:
REMARK  status: ('A' for Active; 'I' for Inactive)
REMARK    1  A    between atoms: C_1  and  C_2
REMARK    2  A    between atoms: C_2  and  N_3
REMARK    3  A    between atoms: C_2  and  C_16
REMARK    4  A    between atoms: C_4  and  C_6
REMARK    5  A    between atoms: C_19  and  C_20
REMARK    6  A    between atoms: C_20  and  N_21
REMARK    7  A    between atoms: C_22  and  C_24
REMARK                            x       y       z     vdW  Elec       q    Type
REMARK                         _______ _______ _______ _____ _____    ______ ____
ROOT
ATOM      1  C   UNL     1      48.615   9.895  15.831  0.00  0.00    +0.000 C 
ATOM      2  C   UNL     1      48.960   8.613  15.066  0.00  0.00    +0.000 C 
ENDROOT
BRANCH   2   3
ATOM      3  C   UNL     1      47.855   8.099  14.151  0.00  0.00    +0.000 A 
ATOM      4  C   UNL     1      47.869   6.746  13.775  0.00  0.00    +0.000 A 
ATOM      5  C   UNL     1      46.902   6.224  12.910  0.00  0.00    +0.000 A 
ATOM      6  C   UNL     1      45.901   7.043  12.379  0.00  0.00    +0.000 A 
ATOM      7  C   UNL     1      45.874   8.392  12.756  0.00  0.00    +0.000 A 
ATOM      8  C   UNL     1      46.847   8.917  13.619  0.00  0.00    +0.000 A 
BRANCH   6   9
ATOM      9  C   UNL     1      44.886   6.485  11.416  0.00  0.00    +0.000 C 
BRANCH   9  10
ATOM     10  N   UNL     1      45.452   5.514  10.516  0.00  0.00    +0.000 N 
ATOM     11  C   UNL     1      44.658   4.628   9.818  0.00  0.00    +0.000 C 
ATOM     12  O   UNL     1      43.434   4.595   9.905  0.00  0.00    +0.000 OA
ATOM     13  H   UNL     1      46.452   5.496  10.334  0.00  0.00    +0.000 HD
BRANCH  11  14
ATOM     14  C   UNL     1      45.393   3.685   8.928  0.00  0.00    +0.000 A 
ATOM     15  C   UNL     1      45.365   2.320   9.182  0.00  0.00    +0.000 A 
ATOM     16  N   UNL     1      46.033   1.425   8.407  0.00  0.00    +0.000 NA
ATOM     17  C   UNL     1      46.729   1.957   7.378  0.00  0.00    +0.000 A 
ATOM     18  C   UNL     1      46.755   3.321   7.125  0.00  0.00    +0.000 A 
ATOM     19  N   UNL     1      46.087   4.223   7.884  0.00  0.00    +0.000 NA
ENDBRANCH  11  14
ENDBRANCH   9  10
ENDBRANCH   6   9
ENDBRANCH   2   3
BRANCH   2  20
ATOM     20  N   UNL     1      50.176   8.796  14.294  0.00  0.00    +0.000 N 
ATOM     21  C   UNL     1      51.333   8.107  14.560  0.00  0.00    +0.000 C 
ATOM     22  O   UNL     1      51.390   7.208  15.395  0.00  0.00    +0.000 OA
ATOM     23  H   UNL     1      50.219   9.631  13.720  0.00  0.00    +0.000 HD
BRANCH  21  24
ATOM     24  C   UNL     1      52.499   8.469  13.747  0.00  0.00    +0.000 A 
ATOM     25  C   UNL     1      53.664   8.915  14.356  0.00  0.00    +0.000 A 
ATOM     26  S   UNL     1      54.917   9.269  13.251  0.00  0.00    +0.000 S 
ATOM     27  C   UNL     1      53.923   8.898  11.920  0.00  0.00    +0.000 A 
ATOM     28  N   UNL     1      54.379   9.033  10.646  0.00  0.00    +0.000 NA
ATOM     29  C   UNL     1      53.506   8.758   9.735  0.00  0.00    +0.000 A 
ATOM     30  N   UNL     1      52.221   8.348   9.983  0.00  0.00    +0.000 N 
ATOM     31  C   UNL     1      51.734   8.144  11.252  0.00  0.00    +0.000 A 
ATOM     32  O   UNL     1      50.610   7.691  11.437  0.00  0.00    +0.000 OA
ATOM     33  C   UNL     1      52.666   8.475  12.313  0.00  0.00    +0.000 A 
ATOM     34  H   UNL     1      51.592   8.127   9.226  0.00  0.00    +0.000 HD
ENDBRANCH  21  24
ENDBRANCH   2  20
TORSDOF 6
ENDMDL
MODEL 9
REMARK VINA RESULT:    -6.567      4.674      7.176
REMARK INTER + INTRA:          -9.432
REMARK INTER:                  -8.353
REMARK INTRA:                  -1.079
REMARK UNBOUND:                -0.561
REMARK  Name = 
REMARK  7 active torsions:
REMARK  status: ('A' for Active; 'I' for Inactive)
REMARK    1  A    between atoms: C_1  and  C_2
REMARK    2  A    between atoms: C_2  and  N_3
REMARK    3  A    between atoms: C_2  and  C_16
REMARK    4  A    between atoms: C_4  and  C_6
REMARK    5  A    between atoms: C_19  and  C_20
REMARK    6  A    between atoms: C_20  and  N_21
REMARK    7  A    between atoms: C_22  and  C_24
REMARK                            x       y       z     vdW  Elec       q    Type
REMARK                         _______ _______ _______ _____ _____    ______ ____
ROOT
ATOM      1  C   UNL     1      48.458   6.318  15.487  0.00  0.00    +0.000 C 
ATOM      2  C   UNL     1      47.958   6.903  14.163  0.00  0.00    +0.000 C 
ENDROOT
BRANCH   2   3
ATOM      3  C   UNL     1      49.056   7.396  13.228  0.00  0.00    +0.000 A 
ATOM      4  C   UNL     1      50.246   7.887  13.790  0.00  0.00    +0.000 A 
ATOM      5  C   UNL     1      51.276   8.386  12.985  0.00  0.00    +0.000 A 
ATOM      6  C   UNL     1      51.140   8.426  11.593  0.00  0.00    +0.000 A 
ATOM      7  C   UNL     1      49.960   7.931  11.025  0.00  0.00    +0.000 A 
ATOM      8  C   UNL     1      48.925   7.436  11.832  0.00  0.00    +0.000 A 
BRANCH   6   9
ATOM      9  C   UNL     1      52.235   9.001  10.734  0.00  0.00    +0.000 C 
BRANCH   9  10
ATOM     10  N   UNL     1      52.549   8.165   9.604  0.00  0.00    +0.000 N 
ATOM     11  C   UNL     1      53.635   7.314   9.617  0.00  0.00    +0.000 C 
ATOM     12  O   UNL     1      54.404   7.204  10.568  0.00  0.00    +0.000 OA
ATOM     13  H   UNL     1      51.943   8.144   8.788  0.00  0.00    +0.000 HD
BRANCH  11  14
ATOM     14  C   UNL     1      53.828   6.515   8.373  0.00  0.00    +0.000 A 
ATOM     15  C   UNL     1      53.603   7.094   7.131  0.00  0.00    +0.000 A 
ATOM     16  N   UNL     1      53.751   6.399   5.971  0.00  0.00    +0.000 NA
ATOM     17  C   UNL     1      54.126   5.108   6.114  0.00  0.00    +0.000 A 
ATOM     18  C   UNL     1      54.351   4.533   7.356  0.00  0.00    +0.000 A 
ATOM     19  N   UNL     1      54.215   5.216   8.518  0.00  0.00    +0.000 NA
ENDBRANCH  11  14
ENDBRANCH   9  10
ENDBRANCH   6   9
ENDBRANCH   2   3
BRANCH   2  20
ATOM     20  N   UNL     1      47.130   5.938  13.463  0.00  0.00    +0.000 N 
ATOM     21  C   UNL     1      45.902   6.258  12.940  0.00  0.00    +0.000 C 
ATOM     22  O   UNL     1      45.467   7.406  12.927  0.00  0.00    +0.000 OA
ATOM     23  H   UNL     1      47.371   4.963  13.598  0.00  0.00    +0.000 HD
BRANCH  21  24
ATOM     24  C   UNL     1      45.150   5.150  12.340  0.00  0.00    +0.000 A 
ATOM     25  C   UNL     1      44.406   4.296  13.143  0.00  0.00    +0.000 A 
ATOM     26  S   UNL     1      43.585   3.081  12.268  0.00  0.00    +0.000 S 
ATOM     27  C   UNL     1      44.246   3.619  10.795  0.00  0.00    +0.000 A 
ATOM     28  N   UNL     1      43.975   2.975   9.628  0.00  0.00    +0.000 NA
ATOM     29  C   UNL     1      44.577   3.465   8.596  0.00  0.00    +0.000 A 
ATOM     30  N   UNL     1      45.417   4.549   8.623  0.00  0.00    +0.000 N 
ATOM     31  C   UNL     1      45.677   5.263   9.767  0.00  0.00    +0.000 A 
ATOM     32  O   UNL     1      46.361   6.281   9.740  0.00  0.00    +0.000 OA
ATOM     33  C   UNL     1      45.053   4.731  10.963  0.00  0.00    +0.000 A 
ATOM     34  H   UNL     1      45.841   4.896   7.776  0.00  0.00    +0.000 HD
ENDBRANCH  21  24
ENDBRANCH   2  20
TORSDOF 6
ENDMDL
