MODEL 1
REMARK VINA RESULT:    -8.145      0.000      0.000
REMARK INTER + INTRA:         -10.508
REMARK INTER:                 -10.050
REMARK INTRA:                  -0.458
REMARK UNBOUND:                -0.458
REMARK  Name = 
REMARK  4 active torsions:
REMARK  status: ('A' for Active; 'I' for Inactive)
REMARK    1  A    between atoms: C_2  and  C_3
REMARK    2  A    between atoms: N_7  and  C_8
REMARK    3  A    between atoms: C_8  and  C_9
REMARK    4  A    between atoms: C_13  and  C_14
REMARK                            x       y       z     vdW  Elec       q    Type
REMARK                         _______ _______ _______ _____ _____    ______ ____
ROOT
ATOM      1  C   UNL     1      45.045   4.444  11.899  0.00  0.00    +0.000 A 
ATOM      2  C   UNL     1      45.499   3.640  12.944  0.00  0.00    +0.000 A 
ATOM      3  C   UNL     1      46.593   4.067  13.673  0.00  0.00    +0.000 A 
ATOM      4  N   UNL     1      47.238   5.232  13.450  0.00  0.00    +0.000 NA
ATOM      5  C   UNL     1      46.825   6.017  12.430  0.00  0.00    +0.000 A 
ATOM      6  C   UNL     1      45.728   5.644  11.642  0.00  0.00    +0.000 A 
ENDROOT
BRANCH   5   7
ATOM      7  C   UNL     1      47.554   7.298  12.237  0.00  0.00    +0.000 A 
ATOM      8  C   UNL     1      48.918   7.270  11.858  0.00  0.00    +0.000 A 
ATOM      9  C   UNL     1      49.661   8.435  11.643  0.00  0.00    +0.000 A 
ATOM     10  C   UNL     1      49.057   9.676  11.780  0.00  0.00    +0.000 A 
ATOM     11  C   UNL     1      47.717   9.746  12.148  0.00  0.00    +0.000 A 
ATOM     12  C   UNL     1      46.972   8.578  12.386  0.00  0.00    +0.000 A 
ATOM     13 CL   UNL     1      45.344   8.840  12.925  0.00  0.00    +0.000 Cl
ENDBRANCH   5   7
BRANCH   1  14
ATOM     14  C   UNL     1      43.829   4.057  11.085  0.00  0.00    +0.000 C 
BRANCH  14  19
ATOM     15  C   UNL     1      46.772   2.685   7.310  0.00  0.00    +0.000 A 
ATOM     16  C   UNL     1      46.146   2.013   8.333  0.00  0.00    +0.000 A 
ATOM     17  N   UNL     1      45.255   2.587   9.176  0.00  0.00    +0.000 NA
ATOM     18  C   UNL     1      44.967   3.882   8.975  0.00  0.00    +0.000 A 
ATOM     19  N   UNL     1      43.997   4.519   9.725  0.00  0.00    +0.000 N 
ATOM     20  N   UNL     1      45.552   4.627   8.025  0.00  0.00    +0.000 NA
ATOM     21  C   UNL     1      46.439   4.013   7.207  0.00  0.00    +0.000 A 
ATOM     22  H   UNL     1      44.114   5.517   9.601  0.00  0.00    +0.000 HD
BRANCH  15  24
ATOM     23  N   UNL     1      48.418   1.540   5.682  0.00  0.00    +0.000 NA
ATOM     24  C   UNL     1      47.681   2.050   6.416  0.00  0.00    +0.000 C 
ENDBRANCH  15  24
ENDBRANCH  14  19
ENDBRANCH   1  14
TORSDOF 4
ENDMDL
MODEL 2
REMARK VINA RESULT:    -7.383      2.392      3.897
REMARK INTER + INTRA:          -9.567
REMARK INTER:                  -9.303
REMARK INTRA:                  -0.265
REMARK UNBOUND:                -0.458
REMARK  Name = 
REMARK  4 active torsions:
REMARK  status: ('A' for Active; 'I' for Inactive)
REMARK    1  A    between atoms: C_2  and  C_3
REMARK    2  A    between atoms: N_7  and  C_8
REMARK    3  A    between atoms: C_8  and  C_9
REMARK    4  A    between atoms: C_13  and  C_14
REMARK                            x       y       z     vdW  Elec       q    Type
REMARK                         _______ _______ _______ _____ _____    ______ ____
ROOT
ATOM      1  C   UNL     1      45.786   5.734  12.384  0.00  0.00    +0.000 A 
ATOM      2  C   UNL     1      46.747   6.532  11.764  0.00  0.00    +0.000 A 
ATOM      3  C   UNL     1      47.943   6.749  12.422  0.00  0.00    +0.000 A 
ATOM      4  N   UNL     1      48.250   6.214  13.623  0.00  0.00    +0.000 NA
ATOM      5  C   UNL     1      47.325   5.453  14.249  0.00  0.00    +0.000 A 
ATOM      6  C   UNL     1      46.086   5.198  13.646  0.00  0.00    +0.000 A 
ENDROOT
BRANCH   5   7
ATOM      7  C   UNL     1      47.716   4.871  15.560  0.00  0.00    +0.000 A 
ATOM      8  C   UNL     1      47.408   3.517  15.837  0.00  0.00    +0.000 A 
ATOM      9  C   UNL     1      47.761   2.899  17.041  0.00  0.00    +0.000 A 
ATOM     10  C   UNL     1      48.455   3.612  18.007  0.00  0.00    +0.000 A 
ATOM     11  C   UNL     1      48.779   4.944  17.772  0.00  0.00    +0.000 A 
ATOM     12  C   UNL     1      48.408   5.575  16.571  0.00  0.00    +0.000 A 
ATOM     13 CL   UNL     1      48.807   7.261  16.473  0.00  0.00    +0.000 Cl
ENDBRANCH   5   7
BRANCH   1  14
ATOM     14  C   UNL     1      44.470   5.423  11.704  0.00  0.00    +0.000 C 
BRANCH  14  19
ATOM     15  C   UNL     1      46.197   2.519   8.047  0.00  0.00    +0.000 A 
ATOM     16  C   UNL     1      45.506   2.287   9.211  0.00  0.00    +0.000 A 
ATOM     17  N   UNL     1      45.003   3.269   9.996  0.00  0.00    +0.000 NA
ATOM     18  C   UNL     1      45.185   4.534   9.588  0.00  0.00    +0.000 A 
ATOM     19  N   UNL     1      44.620   5.591  10.275  0.00  0.00    +0.000 N 
ATOM     20  N   UNL     1      45.875   4.859   8.484  0.00  0.00    +0.000 NA
ATOM     21  C   UNL     1      46.363   3.845   7.732  0.00  0.00    +0.000 A 
ATOM     22  H   UNL     1      45.077   6.441   9.969  0.00  0.00    +0.000 HD
BRANCH  15  24
ATOM     23  N   UNL     1      47.083   0.606   6.554  0.00  0.00    +0.000 NA
ATOM     24  C   UNL     1      46.689   1.467   7.221  0.00  0.00    +0.000 C 
ENDBRANCH  15  24
ENDBRANCH  14  19
ENDBRANCH   1  14
TORSDOF 4
ENDMDL
MODEL 3
REMARK VINA RESULT:    -6.896      3.629      7.809
REMARK INTER + INTRA:          -8.967
REMARK INTER:                  -8.401
REMARK INTRA:                  -0.566
REMARK UNBOUND:                -0.458
REMARK  Name = 
REMARK  4 active torsions:
REMARK  status: ('A' for Active; 'I' for Inactive)
REMARK    1  A    between atoms: C_2  and  C_3
REMARK    2  A    between atoms: N_7  and  C_8
REMARK    3  A    between atoms: C_8  and  C_9
REMARK    4  A    between atoms: C_13  and  C_14
REMARK                            x       y       z     vdW  Elec       q    Type
REMARK                         _______ _______ _______ _____ _____    ______ ____
ROOT
ATOM      1  C   UNL     1      47.043   7.214  13.024  0.00  0.00    +0.000 A 
ATOM      2  C   UNL     1      46.177   8.306  12.990  0.00  0.00    +0.000 A 
ATOM      3  C   UNL     1      45.091   8.257  12.136  0.00  0.00    +0.000 A 
ATOM      4  N   UNL     1      44.801   7.200  11.348  0.00  0.00    +0.000 NA
ATOM      5  C   UNL     1      45.638   6.139  11.353  0.00  0.00    +0.000 A 
ATOM      6  C   UNL     1      46.765   6.123  12.186  0.00  0.00    +0.000 A 
ENDROOT
BRANCH   5   7
ATOM      7  C   UNL     1      45.267   4.992  10.482  0.00  0.00    +0.000 A 
ATOM      8  C   UNL     1      45.648   5.005   9.118  0.00  0.00    +0.000 A 
ATOM      9  C   UNL     1      45.347   3.953   8.246  0.00  0.00    +0.000 A 
ATOM     10  C   UNL     1      44.669   2.838   8.715  0.00  0.00    +0.000 A 
ATOM     11  C   UNL     1      44.279   2.786  10.049  0.00  0.00    +0.000 A 
ATOM     12  C   UNL     1      44.561   3.850  10.925  0.00  0.00    +0.000 A 
ATOM     13 CL   UNL     1      43.927   3.670  12.530  0.00  0.00    +0.000 Cl
ENDBRANCH   5   7
BRANCH   1  14
ATOM     14  C   UNL     1      48.229   7.185  13.964  0.00  0.00    +0.000 C 
BRANCH  14  19
ATOM     15  C   UNL     1      50.802   4.854  17.533  0.00  0.00    +0.000 A 
ATOM     16  C   UNL     1      51.036   5.953  16.743  0.00  0.00    +0.000 A 
ATOM     17  N   UNL     1      50.109   6.503  15.924  0.00  0.00    +0.000 NA
ATOM     18  C   UNL     1      48.892   5.939  15.910  0.00  0.00    +0.000 A 
ATOM     19  N   UNL     1      47.859   6.495  15.180  0.00  0.00    +0.000 N 
ATOM     20  N   UNL     1      48.579   4.845  16.621  0.00  0.00    +0.000 NA
ATOM     21  C   UNL     1      49.539   4.326  17.423  0.00  0.00    +0.000 A 
ATOM     22  H   UNL     1      47.128   5.800  15.096  0.00  0.00    +0.000 HD
BRANCH  15  24
ATOM     23  N   UNL     1      52.578   3.869  19.129  0.00  0.00    +0.000 NA
ATOM     24  C   UNL     1      51.785   4.313  18.411  0.00  0.00    +0.000 C 
ENDBRANCH  15  24
ENDBRANCH  14  19
ENDBRANCH   1  14
TORSDOF 4
ENDMDL
MODEL 4
REMARK VINA RESULT:    -6.739      2.341      6.541
REMARK INTER + INTRA:          -8.773
REMARK INTER:                  -8.319
REMARK INTRA:                  -0.454
REMARK UNBOUND:                -0.458
REMARK  Name = 
REMARK  4 active torsions:
REMARK  status: ('A' for Active; 'I' for Inactive)
REMARK    1  A    between atoms: C_2  and  C_3
REMARK    2  A    between atoms: N_7  and  C_8
REMARK    3  A    between atoms: C_8  and  C_9
REMARK    4  A    between atoms: C_13  and  C_14
REMARK                            x       y       z     vdW  Elec       q    Type
REMARK                         _______ _______ _______ _____ _____    ______ ____
ROOT
ATOM      1  C   UNL     1      44.717   4.041  12.264  0.00  0.00    +0.000 A 
ATOM      2  C   UNL     1      43.541   3.316  12.449  0.00  0.00    +0.000 A 
ATOM      3  C   UNL     1      43.151   2.434  11.459  0.00  0.00    +0.000 A 
ATOM      4  N   UNL     1      43.856   2.210  10.329  0.00  0.00    +0.000 NA
ATOM      5  C   UNL     1      44.989   2.917  10.123  0.00  0.00    +0.000 A 
ATOM      6  C   UNL     1      45.441   3.836  11.079  0.00  0.00    +0.000 A 
ENDROOT
BRANCH   5   7
ATOM      7  C   UNL     1      45.740   2.622   8.874  0.00  0.00    +0.000 A 
ATOM      8  C   UNL     1      45.941   1.275   8.486  0.00  0.00    +0.000 A 
ATOM      9  C   UNL     1      46.623   0.925   7.316  0.00  0.00    +0.000 A 
ATOM     10  C   UNL     1      47.113   1.915   6.479  0.00  0.00    +0.000 A 
ATOM     11  C   UNL     1      46.934   3.252   6.823  0.00  0.00    +0.000 A 
ATOM     12  C   UNL     1      46.268   3.608   8.009  0.00  0.00    +0.000 A 
ATOM     13 CL   UNL     1      46.209   5.311   8.337  0.00  0.00    +0.000 Cl
ENDBRANCH   5   7
BRANCH   1  14
ATOM     14  C   UNL     1      45.223   4.995  13.325  0.00  0.00    +0.000 C 
BRANCH  14  19
ATOM     15  C   UNL     1      47.983   8.928  12.021  0.00  0.00    +0.000 A 
ATOM     16  C   UNL     1      48.099   7.572  11.838  0.00  0.00    +0.000 A 
ATOM     17  N   UNL     1      47.129   6.683  12.160  0.00  0.00    +0.000 NA
ATOM     18  C   UNL     1      45.991   7.177  12.670  0.00  0.00    +0.000 A 
ATOM     19  N   UNL     1      44.914   6.352  12.933  0.00  0.00    +0.000 N 
ATOM     20  N   UNL     1      45.799   8.482  12.915  0.00  0.00    +0.000 NA
ATOM     21  C   UNL     1      46.797   9.333  12.581  0.00  0.00    +0.000 A 
ATOM     22  H   UNL     1      44.275   6.858  13.534  0.00  0.00    +0.000 HD
BRANCH  15  24
ATOM     23  N   UNL     1      49.834  10.598  11.342  0.00  0.00    +0.000 NA
ATOM     24  C   UNL     1      49.006   9.846  11.644  0.00  0.00    +0.000 C 
ENDBRANCH  15  24
ENDBRANCH  14  19
ENDBRANCH   1  14
TORSDOF 4
ENDMDL
MODEL 5
REMARK VINA RESULT:    -6.500      3.775      7.597
REMARK INTER + INTRA:          -8.478
REMARK INTER:                  -7.913
REMARK INTRA:                  -0.566
REMARK UNBOUND:                -0.458
REMARK  Name = 
REMARK  4 active torsions:
REMARK  status: ('A' for Active; 'I' for Inactive)
REMARK    1  A    between atoms: C_2  and  C_3
REMARK    2  A    between atoms: N_7  and  C_8
REMARK    3  A    between atoms: C_8  and  C_9
REMARK    4  A    between atoms: C_13  and  C_14
REMARK                            x       y       z     vdW  Elec       q    Type
REMARK                         _______ _______ _______ _____ _____    ______ ____
ROOT
ATOM      1  C   UNL     1      48.344   6.685  14.440  0.00  0.00    +0.000 A 
ATOM      2  C   UNL     1      49.062   7.417  13.495  0.00  0.00    +0.000 A 
ATOM      3  C   UNL     1      48.600   7.437  12.192  0.00  0.00    +0.000 A 
ATOM      4  N   UNL     1      47.477   6.809  11.781  0.00  0.00    +0.000 NA
ATOM      5  C   UNL     1      46.778   6.079  12.678  0.00  0.00    +0.000 A 
ATOM      6  C   UNL     1      47.192   6.005  14.015  0.00  0.00    +0.000 A 
ENDROOT
BRANCH   5   7
ATOM      7  C   UNL     1      45.540   5.422  12.183  0.00  0.00    +0.000 A 
ATOM      8  C   UNL     1      45.410   4.016  12.291  0.00  0.00    +0.000 A 
ATOM      9  C   UNL     1      44.267   3.334  11.862  0.00  0.00    +0.000 A 
ATOM     10  C   UNL     1      43.201   4.039  11.325  0.00  0.00    +0.000 A 
ATOM     11  C   UNL     1      43.289   5.422  11.204  0.00  0.00    +0.000 A 
ATOM     12  C   UNL     1      44.444   6.110  11.614  0.00  0.00    +0.000 A 
ATOM     13 CL   UNL     1      44.430   7.819  11.311  0.00  0.00    +0.000 Cl
ENDBRANCH   5   7
BRANCH   1  14
ATOM     14  C   UNL     1      48.771   6.651  15.892  0.00  0.00    +0.000 C 
BRANCH  14  19
ATOM     15  C   UNL     1      50.868   2.399  17.414  0.00  0.00    +0.000 A 
ATOM     16  C   UNL     1      51.274   3.711  17.382  0.00  0.00    +0.000 A 
ATOM     17  N   UNL     1      50.460   4.742  17.052  0.00  0.00    +0.000 NA
ATOM     18  C   UNL     1      49.184   4.448  16.761  0.00  0.00    +0.000 A 
ATOM     19  N   UNL     1      48.263   5.447  16.511  0.00  0.00    +0.000 N 
ATOM     20  N   UNL     1      48.706   3.194  16.734  0.00  0.00    +0.000 NA
ATOM     21  C   UNL     1      49.556   2.195  17.066  0.00  0.00    +0.000 A 
ATOM     22  H   UNL     1      47.455   5.023  16.072  0.00  0.00    +0.000 HD
BRANCH  15  24
ATOM     23  N   UNL     1      52.444   0.475  18.112  0.00  0.00    +0.000 NA
ATOM     24  C   UNL     1      51.736   1.335  17.795  0.00  0.00    +0.000 C 
ENDBRANCH  15  24
ENDBRANCH  14  19
ENDBRANCH   1  14
TORSDOF 4
ENDMDL
MODEL 6
REMARK VINA RESULT:    -6.393      3.369      7.479
REMARK INTER + INTRA:          -8.345
REMARK INTER:                  -7.846
REMARK INTRA:                  -0.499
REMARK UNBOUND:                -0.458
REMARK  Name = 
REMARK  4 active torsions:
REMARK  status: ('A' for Active; 'I' for Inactive)
REMARK    1  A    between atoms: C_2  and  C_3
REMARK    2  A    between atoms: N_7  and  C_8
REMARK    3  A    between atoms: C_8  and  C_9
REMARK    4  A    between atoms: C_13  and  C_14
REMARK                            x       y       z     vdW  Elec       q    Type
REMARK                         _______ _______ _______ _____ _____    ______ ____
ROOT
ATOM      1  C   UNL     1      45.229   5.386  12.441  0.00  0.00    +0.000 A 
ATOM      2  C   UNL     1      43.845   5.548  12.493  0.00  0.00    +0.000 A 
ATOM      3  C   UNL     1      43.099   5.183  11.388  0.00  0.00    +0.000 A 
ATOM      4  N   UNL     1      43.628   4.654  10.264  0.00  0.00    +0.000 NA
ATOM      5  C   UNL     1      44.969   4.507  10.186  0.00  0.00    +0.000 A 
ATOM      6  C   UNL     1      45.790   4.864  11.264  0.00  0.00    +0.000 A 
ENDROOT
BRANCH   5   7
ATOM      7  C   UNL     1      45.502   3.902   8.937  0.00  0.00    +0.000 A 
ATOM      8  C   UNL     1      46.304   4.688   8.074  0.00  0.00    +0.000 A 
ATOM      9  C   UNL     1      46.853   4.180   6.891  0.00  0.00    +0.000 A 
ATOM     10  C   UNL     1      46.633   2.857   6.539  0.00  0.00    +0.000 A 
ATOM     11  C   UNL     1      45.853   2.051   7.362  0.00  0.00    +0.000 A 
ATOM     12  C   UNL     1      45.282   2.563   8.541  0.00  0.00    +0.000 A 
ATOM     13 CL   UNL     1      44.262   1.457   9.405  0.00  0.00    +0.000 Cl
ENDBRANCH   5   7
BRANCH   1  14
ATOM     14  C   UNL     1      46.102   5.728  13.629  0.00  0.00    +0.000 C 
BRANCH  14  19
ATOM     15  C   UNL     1      49.302   4.200  17.124  0.00  0.00    +0.000 A 
ATOM     16  C   UNL     1      48.889   5.430  16.673  0.00  0.00    +0.000 A 
ATOM     17  N   UNL     1      47.876   5.607  15.792  0.00  0.00    +0.000 NA
ATOM     18  C   UNL     1      47.240   4.507  15.359  0.00  0.00    +0.000 A 
ATOM     19  N   UNL     1      46.134   4.603  14.538  0.00  0.00    +0.000 N 
ATOM     20  N   UNL     1      47.594   3.264  15.717  0.00  0.00    +0.000 NA
ATOM     21  C   UNL     1      48.615   3.134  16.597  0.00  0.00    +0.000 A 
ATOM     22  H   UNL     1      45.970   3.692  14.129  0.00  0.00    +0.000 HD
BRANCH  15  24
ATOM     23  N   UNL     1      51.206   3.919  18.847  0.00  0.00    +0.000 NA
ATOM     24  C   UNL     1      50.350   4.041  18.076  0.00  0.00    +0.000 C 
ENDBRANCH  15  24
ENDBRANCH  14  19
ENDBRANCH   1  14
TORSDOF 4
ENDMDL
MODEL 7
REMARK VINA RESULT:    -6.339      2.473      3.125
REMARK INTER + INTRA:          -8.279
REMARK INTER:                  -7.998
REMARK INTRA:                  -0.281
REMARK UNBOUND:                -0.458
REMARK  Name = 
REMARK  4 active torsions:
REMARK  status: ('A' for Active; 'I' for Inactive)
REMARK    1  A    between atoms: C_2  and  C_3
REMARK    2  A    between atoms: N_7  and  C_8
REMARK    3  A    between atoms: C_8  and  C_9
REMARK    4  A    between atoms: C_13  and  C_14
REMARK                            x       y       z     vdW  Elec       q    Type
REMARK                         _______ _______ _______ _____ _____    ______ ____
ROOT
ATOM      1  C   UNL     1      45.355   6.678  12.218  0.00  0.00    +0.000 A 
ATOM      2  C   UNL     1      45.100   8.023  11.954  0.00  0.00    +0.000 A 
ATOM      3  C   UNL     1      45.911   8.974  12.546  0.00  0.00    +0.000 A 
ATOM      4  N   UNL     1      46.956   8.677  13.348  0.00  0.00    +0.000 NA
ATOM      5  C   UNL     1      47.208   7.380  13.632  0.00  0.00    +0.000 A 
ATOM      6  C   UNL     1      46.421   6.363  13.075  0.00  0.00    +0.000 A 
ENDROOT
BRANCH   5   7
ATOM      7  C   UNL     1      48.380   7.103  14.504  0.00  0.00    +0.000 A 
ATOM      8  C   UNL     1      49.500   7.968  14.456  0.00  0.00    +0.000 A 
ATOM      9  C   UNL     1      50.629   7.778  15.260  0.00  0.00    +0.000 A 
ATOM     10  C   UNL     1      50.669   6.723  16.158  0.00  0.00    +0.000 A 
ATOM     11  C   UNL     1      49.587   5.852  16.238  0.00  0.00    +0.000 A 
ATOM     12  C   UNL     1      48.459   6.027  15.417  0.00  0.00    +0.000 A 
ATOM     13 CL   UNL     1      47.238   4.803  15.574  0.00  0.00    +0.000 Cl
ENDBRANCH   5   7
BRANCH   1  14
ATOM     14  C   UNL     1      44.531   5.585  11.573  0.00  0.00    +0.000 C 
BRANCH  14  19
ATOM     15  C   UNL     1      46.201   2.460   8.075  0.00  0.00    +0.000 A 
ATOM     16  C   UNL     1      45.519   2.301   9.257  0.00  0.00    +0.000 A 
ATOM     17  N   UNL     1      45.031   3.331   9.988  0.00  0.00    +0.000 NA
ATOM     18  C   UNL     1      45.219   4.569   9.505  0.00  0.00    +0.000 A 
ATOM     19  N   UNL     1      44.668   5.668  10.136  0.00  0.00    +0.000 N 
ATOM     20  N   UNL     1      45.900   4.824   8.378  0.00  0.00    +0.000 NA
ATOM     21  C   UNL     1      46.374   3.764   7.682  0.00  0.00    +0.000 A 
ATOM     22  H   UNL     1      45.128   6.495   9.776  0.00  0.00    +0.000 HD
BRANCH  15  24
ATOM     23  N   UNL     1      47.056   0.461   6.680  0.00  0.00    +0.000 NA
ATOM     24  C   UNL     1      46.677   1.358   7.307  0.00  0.00    +0.000 C 
ENDBRANCH  15  24
ENDBRANCH  14  19
ENDBRANCH   1  14
TORSDOF 4
ENDMDL
MODEL 8
REMARK VINA RESULT:    -6.259      3.652      8.111
REMARK INTER + INTRA:          -8.181
REMARK INTER:                  -7.432
REMARK INTRA:                  -0.750
REMARK UNBOUND:                -0.458
REMARK  Name = 
REMARK  4 active torsions:
REMARK  status: ('A' for Active; 'I' for Inactive)
REMARK    1  A    between atoms: C_2  and  C_3
REMARK    2  A    between atoms: N_7  and  C_8
REMARK    3  A    between atoms: C_8  and  C_9
REMARK    4  A    between atoms: C_13  and  C_14
REMARK                            x       y       z     vdW  Elec       q    Type
REMARK                         _______ _______ _______ _____ _____    ______ ____
ROOT
ATOM      1  C   UNL     1      47.803   7.475  13.156  0.00  0.00    +0.000 A 
ATOM      2  C   UNL     1      47.064   8.656  13.193  0.00  0.00    +0.000 A 
ATOM      3  C   UNL     1      45.740   8.615  12.798  0.00  0.00    +0.000 A 
ATOM      4  N   UNL     1      45.108   7.490  12.399  0.00  0.00    +0.000 NA
ATOM      5  C   UNL     1      45.813   6.338  12.338  0.00  0.00    +0.000 A 
ATOM      6  C   UNL     1      47.162   6.307  12.715  0.00  0.00    +0.000 A 
ENDROOT
BRANCH   5   7
ATOM      7  C   UNL     1      45.070   5.124  11.911  0.00  0.00    +0.000 A 
ATOM      8  C   UNL     1      44.351   4.376  12.875  0.00  0.00    +0.000 A 
ATOM      9  C   UNL     1      43.616   3.233  12.543  0.00  0.00    +0.000 A 
ATOM     10  C   UNL     1      43.558   2.808  11.224  0.00  0.00    +0.000 A 
ATOM     11  C   UNL     1      44.248   3.517  10.246  0.00  0.00    +0.000 A 
ATOM     12  C   UNL     1      45.005   4.654  10.579  0.00  0.00    +0.000 A 
ATOM     13 CL   UNL     1      45.878   5.369   9.261  0.00  0.00    +0.000 Cl
ENDBRANCH   5   7
BRANCH   1  14
ATOM     14  C   UNL     1      49.246   7.441  13.612  0.00  0.00    +0.000 C 
BRANCH  14  19
ATOM     15  C   UNL     1      48.837   5.756  18.280  0.00  0.00    +0.000 A 
ATOM     16  C   UNL     1      49.318   5.227  17.107  0.00  0.00    +0.000 A 
ATOM     17  N   UNL     1      49.467   5.939  15.965  0.00  0.00    +0.000 NA
ATOM     18  C   UNL     1      49.136   7.238  16.005  0.00  0.00    +0.000 A 
ATOM     19  N   UNL     1      49.350   8.060  14.915  0.00  0.00    +0.000 N 
ATOM     20  N   UNL     1      48.628   7.835  17.094  0.00  0.00    +0.000 NA
ATOM     21  C   UNL     1      48.493   7.084  18.212  0.00  0.00    +0.000 A 
ATOM     22  H   UNL     1      48.813   8.907  15.054  0.00  0.00    +0.000 HD
BRANCH  15  24
ATOM     23  N   UNL     1      48.633   4.371  20.450  0.00  0.00    +0.000 NA
ATOM     24  C   UNL     1      48.720   4.994  19.478  0.00  0.00    +0.000 C 
ENDBRANCH  15  24
ENDBRANCH  14  19
ENDBRANCH   1  14
TORSDOF 4
ENDMDL
MODEL 9
REMARK VINA RESULT:    -6.009      3.430      7.093
REMARK INTER + INTRA:          -7.872
REMARK INTER:                  -7.214
REMARK INTRA:                  -0.657
REMARK UNBOUND:                -0.458
REMARK  Name = 
REMARK  4 active torsions:
REMARK  status: ('A' for Active; 'I' for Inactive)
REMARK    1  A    between atoms: C_2  and  C_3
REMARK    2  A    between atoms: N_7  and  C_8
REMARK    3  A    between atoms: C_8  and  C_9
REMARK    4  A    between atoms: C_13  and  C_14
REMARK                            x       y       z     vdW  Elec       q    Type
REMARK                         _______ _______ _______ _____ _____    ______ ____
ROOT
ATOM      1  C   UNL     1      46.561   4.710  13.394  0.00  0.00    +0.000 A 
ATOM      2  C   UNL     1      45.568   4.358  12.482  0.00  0.00    +0.000 A 
ATOM      3  C   UNL     1      45.231   5.266  11.495  0.00  0.00    +0.000 A 
ATOM      4  N   UNL     1      45.825   6.469  11.345  0.00  0.00    +0.000 NA
ATOM      5  C   UNL     1      46.777   6.837  12.231  0.00  0.00    +0.000 A 
ATOM      6  C   UNL     1      47.163   5.971  13.263  0.00  0.00    +0.000 A 
ENDROOT
BRANCH   5   7
ATOM      7  C   UNL     1      47.414   8.162  12.013  0.00  0.00    +0.000 A 
ATOM      8  C   UNL     1      48.793   8.225  11.696  0.00  0.00    +0.000 A 
ATOM      9  C   UNL     1      49.454   9.435  11.462  0.00  0.00    +0.000 A 
ATOM     10  C   UNL     1      48.751  10.629  11.516  0.00  0.00    +0.000 A 
ATOM     11  C   UNL     1      47.394  10.610  11.822  0.00  0.00    +0.000 A 
ATOM     12  C   UNL     1      46.730   9.397  12.079  0.00  0.00    +0.000 A 
ATOM     13 CL   UNL     1      45.063   9.554  12.534  0.00  0.00    +0.000 Cl
ENDBRANCH   5   7
BRANCH   1  14
ATOM     14  C   UNL     1      47.007   3.749  14.475  0.00  0.00    +0.000 C 
BRANCH  14  19
ATOM     15  C   UNL     1      49.402   5.027  18.649  0.00  0.00    +0.000 A 
ATOM     16  C   UNL     1      49.694   5.117  17.309  0.00  0.00    +0.000 A 
ATOM     17  N   UNL     1      48.807   4.832  16.326  0.00  0.00    +0.000 NA
ATOM     18  C   UNL     1      47.574   4.461  16.700  0.00  0.00    +0.000 A 
ATOM     19  N   UNL     1      46.581   4.248  15.764  0.00  0.00    +0.000 N 
ATOM     20  N   UNL     1      47.207   4.314  17.983  0.00  0.00    +0.000 NA
ATOM     21  C   UNL     1      48.127   4.605  18.932  0.00  0.00    +0.000 A 
ATOM     22  H   UNL     1      45.830   3.741  16.216  0.00  0.00    +0.000 HD
BRANCH  15  24
ATOM     23  N   UNL     1      51.111   5.630  20.489  0.00  0.00    +0.000 NA
ATOM     24  C   UNL     1      50.343   5.364  19.665  0.00  0.00    +0.000 C 
ENDBRANCH  15  24
ENDBRANCH  14  19
ENDBRANCH   1  14
TORSDOF 4
ENDMDL
