MODEL 1
REMARK VINA RESULT:    -9.017      0.000      0.000
REMARK INTER + INTRA:         -15.730
REMARK INTER:                 -14.289
REMARK INTRA:                  -1.441
REMARK UNBOUND:                -1.441
REMARK  Name = 
REMARK  13 active torsions:
REMARK  status: ('A' for Active; 'I' for Inactive)
REMARK    1  A    between atoms: C_1  and  C_2
REMARK    2  A    between atoms: C_2  and  O_3
REMARK    3  A    between atoms: O_3  and  C_4
REMARK    4  A    between atoms: C_6  and  C_7
REMARK    5  A    between atoms: C_11  and  C_12
REMARK    6  A    between atoms: C_12  and  O_13
REMARK    7  A    between atoms: O_13  and  C_14
REMARK    8  A    between atoms: C_17  and  C_18
REMARK    9  A    between atoms: C_18  and  C_19
REMARK   10  A    between atoms: C_18  and  C_20
REMARK   11  A    between atoms: C_20  and  O_21
REMARK   12  A    between atoms: O_21  and  C_22
REMARK   13  A    between atoms: C_25  and  C_26
REMARK                            x       y       z     vdW  Elec       q    Type
REMARK                         _______ _______ _______ _____ _____    ______ ____
ROOT
ATOM      1  C   UNL     1      46.933   3.974  13.953  0.00  0.00    +0.000 A 
ATOM      2  N   UNL     1      47.520   5.140  13.658  0.00  0.00    +0.000 NA
ATOM      3  C   UNL     1      46.796   6.016  12.941  0.00  0.00    +0.000 A 
ATOM      4  C   UNL     1      45.489   5.750  12.579  0.00  0.00    +0.000 A 
ATOM      5  C   UNL     1      44.956   4.523  12.921  0.00  0.00    +0.000 A 
ATOM      6  N   UNL     1      45.684   3.614  13.605  0.00  0.00    +0.000 NA
ENDROOT
BRANCH   3   7
ATOM      7  C   UNL     1      47.468   7.270  12.554  0.00  0.00    +0.000 A 
ATOM      8  C   UNL     1      46.790   8.497  12.513  0.00  0.00    +0.000 A 
ATOM      9  C   UNL     1      47.468   9.640  12.127  0.00  0.00    +0.000 A 
ATOM     10  N   UNL     1      48.764   9.653  11.765  0.00  0.00    +0.000 NA
ATOM     11  C   UNL     1      49.422   8.467  11.785  0.00  0.00    +0.000 A 
ATOM     12  C   UNL     1      48.818   7.276  12.181  0.00  0.00    +0.000 A 
BRANCH  11  13
ATOM     13  C   UNL     1      50.843   8.451  11.270  0.00  0.00    +0.000 C 
BRANCH  13  14
ATOM     14  O   UNL     1      51.159   7.249  10.558  0.00  0.00    +0.000 OA
ATOM     15  C   UNL     1      52.514   7.212  10.121  0.00  0.00    +0.000 C 
ENDBRANCH  13  14
ENDBRANCH  11  13
ENDBRANCH   3   7
BRANCH   5  16
ATOM     16  C   UNL     1      43.539   4.118  12.541  0.00  0.00    +0.000 C 
ATOM     17  C   UNL     1      42.738   5.375  12.168  0.00  0.00    +0.000 C 
BRANCH  16  18
ATOM     18  C   UNL     1      43.418   3.109  11.378  0.00  0.00    +0.000 C 
BRANCH  18  19
ATOM     19  O   UNL     1      43.499   3.774  10.109  0.00  0.00    +0.000 OA
BRANCH  19  20
ATOM     20  C   UNL     1      44.494   3.352   9.266  0.00  0.00    +0.000 A 
ATOM     21  C   UNL     1      44.924   2.032   9.124  0.00  0.00    +0.000 A 
ATOM     22  C   UNL     1      45.964   1.719   8.244  0.00  0.00    +0.000 A 
ATOM     23  C   UNL     1      46.582   2.719   7.489  0.00  0.00    +0.000 A 
ATOM     24  C   UNL     1      46.157   4.045   7.627  0.00  0.00    +0.000 A 
ATOM     25  C   UNL     1      45.116   4.354   8.513  0.00  0.00    +0.000 A 
BRANCH  23  26
ATOM     26  C   UNL     1      47.696   2.315   6.592  0.00  0.00    +0.000 C 
ATOM     27  N   UNL     1      47.836   2.985   5.410  0.00  0.00    +0.000 N 
ATOM     28  O   UNL     1      48.443   1.388   6.877  0.00  0.00    +0.000 OA
ATOM     29  H   UNL     1      47.122   3.587   5.029  0.00  0.00    +0.000 HD
ATOM     30  H   UNL     1      48.530   2.614   4.771  0.00  0.00    +0.000 HD
ENDBRANCH  23  26
ENDBRANCH  19  20
ENDBRANCH  18  19
ENDBRANCH  16  18
ENDBRANCH   5  16
BRANCH   1  31
ATOM     31  O   UNL     1      47.675   3.148  14.765  0.00  0.00    +0.000 OA
BRANCH  31  33
ATOM     32  C   UNL     1      48.602   2.645  16.895  0.00  0.00    +0.000 C 
ATOM     33  C   UNL     1      47.689   3.582  16.120  0.00  0.00    +0.000 C 
ENDBRANCH  31  33
ENDBRANCH   1  31
TORSDOF 10
ENDMDL
MODEL 2
REMARK VINA RESULT:    -8.922      1.383      2.489
REMARK INTER + INTRA:         -15.578
REMARK INTER:                 -14.110
REMARK INTRA:                  -1.468
REMARK UNBOUND:                -1.441
REMARK  Name = 
REMARK  13 active torsions:
REMARK  status: ('A' for Active; 'I' for Inactive)
REMARK    1  A    between atoms: C_1  and  C_2
REMARK    2  A    between atoms: C_2  and  O_3
REMARK    3  A    between atoms: O_3  and  C_4
REMARK    4  A    between atoms: C_6  and  C_7
REMARK    5  A    between atoms: C_11  and  C_12
REMARK    6  A    between atoms: C_12  and  O_13
REMARK    7  A    between atoms: O_13  and  C_14
REMARK    8  A    between atoms: C_17  and  C_18
REMARK    9  A    between atoms: C_18  and  C_19
REMARK   10  A    between atoms: C_18  and  C_20
REMARK   11  A    between atoms: C_20  and  O_21
REMARK   12  A    between atoms: O_21  and  C_22
REMARK   13  A    between atoms: C_25  and  C_26
REMARK                            x       y       z     vdW  Elec       q    Type
REMARK                         _______ _______ _______ _____ _____    ______ ____
ROOT
ATOM      1  C   UNL     1      46.971   3.953  13.930  0.00  0.00    +0.000 A 
ATOM      2  N   UNL     1      47.553   5.111  13.593  0.00  0.00    +0.000 NA
ATOM      3  C   UNL     1      46.819   5.965  12.860  0.00  0.00    +0.000 A 
ATOM      4  C   UNL     1      45.507   5.688  12.524  0.00  0.00    +0.000 A 
ATOM      5  C   UNL     1      44.980   4.470  12.909  0.00  0.00    +0.000 A 
ATOM      6  N   UNL     1      45.718   3.583  13.610  0.00  0.00    +0.000 NA
ENDROOT
BRANCH   3   7
ATOM      7  C   UNL     1      47.484   7.207  12.427  0.00  0.00    +0.000 A 
ATOM      8  C   UNL     1      48.849   7.248  12.105  0.00  0.00    +0.000 A 
ATOM      9  C   UNL     1      49.424   8.446  11.720  0.00  0.00    +0.000 A 
ATOM     10  N   UNL     1      48.750   9.608  11.645  0.00  0.00    +0.000 NA
ATOM     11  C   UNL     1      47.434   9.580  11.971  0.00  0.00    +0.000 A 
ATOM     12  C   UNL     1      46.775   8.412  12.348  0.00  0.00    +0.000 A 
BRANCH  11  13
ATOM     13  C   UNL     1      46.697  10.899  12.002  0.00  0.00    +0.000 C 
BRANCH  13  14
ATOM     14  O   UNL     1      45.823  11.070  10.880  0.00  0.00    +0.000 OA
ATOM     15  C   UNL     1      44.454  10.874  11.217  0.00  0.00    +0.000 C 
ENDBRANCH  13  14
ENDBRANCH  11  13
ENDBRANCH   3   7
BRANCH   5  16
ATOM     16  C   UNL     1      43.558   4.054  12.559  0.00  0.00    +0.000 C 
ATOM     17  C   UNL     1      42.737   5.304  12.214  0.00  0.00    +0.000 C 
BRANCH  16  18
ATOM     18  C   UNL     1      43.420   3.051  11.394  0.00  0.00    +0.000 C 
BRANCH  18  19
ATOM     19  O   UNL     1      43.420   3.729  10.128  0.00  0.00    +0.000 OA
BRANCH  19  20
ATOM     20  C   UNL     1      44.471   3.452   9.293  0.00  0.00    +0.000 A 
ATOM     21  C   UNL     1      45.188   4.397   8.559  0.00  0.00    +0.000 A 
ATOM     22  C   UNL     1      46.233   3.996   7.722  0.00  0.00    +0.000 A 
ATOM     23  C   UNL     1      46.580   2.647   7.613  0.00  0.00    +0.000 A 
ATOM     24  C   UNL     1      45.864   1.693   8.345  0.00  0.00    +0.000 A 
ATOM     25  C   UNL     1      44.815   2.099   9.180  0.00  0.00    +0.000 A 
BRANCH  23  26
ATOM     26  C   UNL     1      47.686   2.293   6.686  0.00  0.00    +0.000 C 
ATOM     27  N   UNL     1      47.807   3.017   5.534  0.00  0.00    +0.000 N 
ATOM     28  O   UNL     1      48.443   1.359   6.919  0.00  0.00    +0.000 OA
ATOM     29  H   UNL     1      47.084   3.630   5.190  0.00  0.00    +0.000 HD
ATOM     30  H   UNL     1      48.496   2.681   4.871  0.00  0.00    +0.000 HD
ENDBRANCH  23  26
ENDBRANCH  19  20
ENDBRANCH  18  19
ENDBRANCH  16  18
ENDBRANCH   5  16
BRANCH   1  31
ATOM     31  O   UNL     1      47.725   3.152  14.756  0.00  0.00    +0.000 OA
BRANCH  31  33
ATOM     32  C   UNL     1      48.650   2.717  16.902  0.00  0.00    +0.000 C 
ATOM     33  C   UNL     1      47.634   3.538  16.123  0.00  0.00    +0.000 C 
ENDBRANCH  31  33
ENDBRANCH   1  31
TORSDOF 10
ENDMDL
MODEL 3
REMARK VINA RESULT:    -7.940      2.131      4.312
REMARK INTER + INTRA:         -14.022
REMARK INTER:                 -12.650
REMARK INTRA:                  -1.372
REMARK UNBOUND:                -1.441
REMARK  Name = 
REMARK  13 active torsions:
REMARK  status: ('A' for Active; 'I' for Inactive)
REMARK    1  A    between atoms: C_1  and  C_2
REMARK    2  A    between atoms: C_2  and  O_3
REMARK    3  A    between atoms: O_3  and  C_4
REMARK    4  A    between atoms: C_6  and  C_7
REMARK    5  A    between atoms: C_11  and  C_12
REMARK    6  A    between atoms: C_12  and  O_13
REMARK    7  A    between atoms: O_13  and  C_14
REMARK    8  A    between atoms: C_17  and  C_18
REMARK    9  A    between atoms: C_18  and  C_19
REMARK   10  A    between atoms: C_18  and  C_20
REMARK   11  A    between atoms: C_20  and  O_21
REMARK   12  A    between atoms: O_21  and  C_22
REMARK   13  A    between atoms: C_25  and  C_26
REMARK                            x       y       z     vdW  Elec       q    Type
REMARK                         _______ _______ _______ _____ _____    ______ ____
ROOT
ATOM      1  C   UNL     1      46.797   6.128  12.365  0.00  0.00    +0.000 A 
ATOM      2  N   UNL     1      47.519   5.836  13.454  0.00  0.00    +0.000 NA
ATOM      3  C   UNL     1      46.959   4.998  14.343  0.00  0.00    +0.000 A 
ATOM      4  C   UNL     1      45.725   4.418  14.113  0.00  0.00    +0.000 A 
ATOM      5  C   UNL     1      45.043   4.772  12.965  0.00  0.00    +0.000 A 
ATOM      6  N   UNL     1      45.574   5.646  12.082  0.00  0.00    +0.000 NA
ENDROOT
BRANCH   3   7
ATOM      7  C   UNL     1      47.722   4.734  15.575  0.00  0.00    +0.000 A 
ATOM      8  C   UNL     1      47.653   3.503  16.246  0.00  0.00    +0.000 A 
ATOM      9  C   UNL     1      48.380   3.317  17.408  0.00  0.00    +0.000 A 
ATOM     10  N   UNL     1      49.158   4.265  17.963  0.00  0.00    +0.000 NA
ATOM     11  C   UNL     1      49.217   5.463  17.330  0.00  0.00    +0.000 A 
ATOM     12  C   UNL     1      48.533   5.724  16.144  0.00  0.00    +0.000 A 
BRANCH  11  13
ATOM     13  C   UNL     1      49.994   6.569  18.005  0.00  0.00    +0.000 C 
BRANCH  13  14
ATOM     14  O   UNL     1      51.375   6.238  18.195  0.00  0.00    +0.000 OA
ATOM     15  C   UNL     1      52.088   6.140  16.966  0.00  0.00    +0.000 C 
ENDBRANCH  13  14
ENDBRANCH  11  13
ENDBRANCH   3   7
BRANCH   5  16
ATOM     16  C   UNL     1      43.665   4.217  12.636  0.00  0.00    +0.000 C 
ATOM     17  C   UNL     1      42.788   5.345  12.072  0.00  0.00    +0.000 C 
BRANCH  16  18
ATOM     18  C   UNL     1      43.637   3.040  11.636  0.00  0.00    +0.000 C 
BRANCH  18  19
ATOM     19  O   UNL     1      43.408   3.507  10.298  0.00  0.00    +0.000 OA
BRANCH  19  20
ATOM     20  C   UNL     1      44.416   3.280   9.397  0.00  0.00    +0.000 A 
ATOM     21  C   UNL     1      45.001   4.251   8.583  0.00  0.00    +0.000 A 
ATOM     22  C   UNL     1      46.013   3.900   7.684  0.00  0.00    +0.000 A 
ATOM     23  C   UNL     1      46.457   2.579   7.593  0.00  0.00    +0.000 A 
ATOM     24  C   UNL     1      45.874   1.601   8.406  0.00  0.00    +0.000 A 
ATOM     25  C   UNL     1      44.857   1.956   9.302  0.00  0.00    +0.000 A 
BRANCH  23  26
ATOM     26  C   UNL     1      47.520   2.277   6.598  0.00  0.00    +0.000 C 
ATOM     27  N   UNL     1      47.533   3.003   5.441  0.00  0.00    +0.000 N 
ATOM     28  O   UNL     1      48.334   1.382   6.784  0.00  0.00    +0.000 OA
ATOM     29  H   UNL     1      46.761   3.579   5.143  0.00  0.00    +0.000 HD
ATOM     30  H   UNL     1      48.195   2.700   4.737  0.00  0.00    +0.000 HD
ENDBRANCH  23  26
ENDBRANCH  19  20
ENDBRANCH  18  19
ENDBRANCH  16  18
ENDBRANCH   5  16
BRANCH   1  31
ATOM     31  O   UNL     1      47.446   6.916  11.442  0.00  0.00    +0.000 OA
BRANCH  31  33
ATOM     32  C   UNL     1      48.149   9.097  12.072  0.00  0.00    +0.000 C 
ATOM     33  C   UNL     1      48.541   7.629  12.006  0.00  0.00    +0.000 C 
ENDBRANCH  31  33
ENDBRANCH   1  31
TORSDOF 10
ENDMDL
MODEL 4
REMARK VINA RESULT:    -7.590      2.220      4.324
REMARK INTER + INTRA:         -13.469
REMARK INTER:                 -12.242
REMARK INTRA:                  -1.227
REMARK UNBOUND:                -1.441
REMARK  Name = 
REMARK  13 active torsions:
REMARK  status: ('A' for Active; 'I' for Inactive)
REMARK    1  A    between atoms: C_1  and  C_2
REMARK    2  A    between atoms: C_2  and  O_3
REMARK    3  A    between atoms: O_3  and  C_4
REMARK    4  A    between atoms: C_6  and  C_7
REMARK    5  A    between atoms: C_11  and  C_12
REMARK    6  A    between atoms: C_12  and  O_13
REMARK    7  A    between atoms: O_13  and  C_14
REMARK    8  A    between atoms: C_17  and  C_18
REMARK    9  A    between atoms: C_18  and  C_19
REMARK   10  A    between atoms: C_18  and  C_20
REMARK   11  A    between atoms: C_20  and  O_21
REMARK   12  A    between atoms: O_21  and  C_22
REMARK   13  A    between atoms: C_25  and  C_26
REMARK                            x       y       z     vdW  Elec       q    Type
REMARK                         _______ _______ _______ _____ _____    ______ ____
ROOT
ATOM      1  C   UNL     1      45.042   8.231  11.770  0.00  0.00    +0.000 A 
ATOM      2  N   UNL     1      46.273   8.317  12.288  0.00  0.00    +0.000 NA
ATOM      3  C   UNL     1      46.732   7.232  12.935  0.00  0.00    +0.000 A 
ATOM      4  C   UNL     1      45.994   6.066  13.008  0.00  0.00    +0.000 A 
ATOM      5  C   UNL     1      44.731   6.060  12.448  0.00  0.00    +0.000 A 
ATOM      6  N   UNL     1      44.238   7.155  11.831  0.00  0.00    +0.000 NA
ENDROOT
BRANCH   3   7
ATOM      7  C   UNL     1      48.058   7.351  13.568  0.00  0.00    +0.000 A 
ATOM      8  C   UNL     1      49.134   7.988  12.931  0.00  0.00    +0.000 A 
ATOM      9  C   UNL     1      50.360   8.056  13.568  0.00  0.00    +0.000 A 
ATOM     10  N   UNL     1      50.604   7.527  14.781  0.00  0.00    +0.000 NA
ATOM     11  C   UNL     1      49.573   6.894  15.395  0.00  0.00    +0.000 A 
ATOM     12  C   UNL     1      48.302   6.800  14.832  0.00  0.00    +0.000 A 
BRANCH  11  13
ATOM     13  C   UNL     1      49.866   6.197  16.704  0.00  0.00    +0.000 C 
BRANCH  13  14
ATOM     14  O   UNL     1      49.654   4.782  16.636  0.00  0.00    +0.000 OA
ATOM     15  C   UNL     1      48.836   4.300  17.698  0.00  0.00    +0.000 C 
ENDBRANCH  13  14
ENDBRANCH  11  13
ENDBRANCH   3   7
BRANCH   5  16
ATOM     16  C   UNL     1      43.824   4.838  12.504  0.00  0.00    +0.000 C 
ATOM     17  C   UNL     1      42.466   5.189  11.879  0.00  0.00    +0.000 C 
BRANCH  16  18
ATOM     18  C   UNL     1      44.362   3.571  11.805  0.00  0.00    +0.000 C 
BRANCH  18  19
ATOM     19  O   UNL     1      43.837   3.456  10.473  0.00  0.00    +0.000 OA
BRANCH  19  20
ATOM     20  C   UNL     1      44.758   3.278   9.473  0.00  0.00    +0.000 A 
ATOM     21  C   UNL     1      45.345   4.301   8.728  0.00  0.00    +0.000 A 
ATOM     22  C   UNL     1      46.261   4.000   7.715  0.00  0.00    +0.000 A 
ATOM     23  C   UNL     1      46.607   2.674   7.440  0.00  0.00    +0.000 A 
ATOM     24  C   UNL     1      46.020   1.643   8.183  0.00  0.00    +0.000 A 
ATOM     25  C   UNL     1      45.100   1.950   9.194  0.00  0.00    +0.000 A 
BRANCH  23  26
ATOM     26  C   UNL     1      47.569   2.429   6.334  0.00  0.00    +0.000 C 
ATOM     27  N   UNL     1      47.354   3.073   5.149  0.00  0.00    +0.000 N 
ATOM     28  O   UNL     1      48.503   1.646   6.460  0.00  0.00    +0.000 OA
ATOM     29  H   UNL     1      46.488   3.537   4.923  0.00  0.00    +0.000 HD
ATOM     30  H   UNL     1      47.957   2.801   4.382  0.00  0.00    +0.000 HD
ENDBRANCH  23  26
ENDBRANCH  19  20
ENDBRANCH  18  19
ENDBRANCH  16  18
ENDBRANCH   5  16
BRANCH   1  31
ATOM     31  O   UNL     1      44.651   9.330  11.039  0.00  0.00    +0.000 OA
BRANCH  31  33
ATOM     32  C   UNL     1      45.094  11.611  10.539  0.00  0.00    +0.000 C 
ATOM     33  C   UNL     1      45.060  10.556  11.634  0.00  0.00    +0.000 C 
ENDBRANCH  31  33
ENDBRANCH   1  31
TORSDOF 10
ENDMDL
MODEL 5
REMARK VINA RESULT:    -7.396      1.941      2.298
REMARK INTER + INTRA:         -13.161
REMARK INTER:                 -12.065
REMARK INTRA:                  -1.096
REMARK UNBOUND:                -1.441
REMARK  Name = 
REMARK  13 active torsions:
REMARK  status: ('A' for Active; 'I' for Inactive)
REMARK    1  A    between atoms: C_1  and  C_2
REMARK    2  A    between atoms: C_2  and  O_3
REMARK    3  A    between atoms: O_3  and  C_4
REMARK    4  A    between atoms: C_6  and  C_7
REMARK    5  A    between atoms: C_11  and  C_12
REMARK    6  A    between atoms: C_12  and  O_13
REMARK    7  A    between atoms: O_13  and  C_14
REMARK    8  A    between atoms: C_17  and  C_18
REMARK    9  A    between atoms: C_18  and  C_19
REMARK   10  A    between atoms: C_18  and  C_20
REMARK   11  A    between atoms: C_20  and  O_21
REMARK   12  A    between atoms: O_21  and  C_22
REMARK   13  A    between atoms: C_25  and  C_26
REMARK                            x       y       z     vdW  Elec       q    Type
REMARK                         _______ _______ _______ _____ _____    ______ ____
ROOT
ATOM      1  C   UNL     1      46.462   4.819  14.045  0.00  0.00    +0.000 A 
ATOM      2  N   UNL     1      47.602   5.505  13.901  0.00  0.00    +0.000 NA
ATOM      3  C   UNL     1      47.595   6.507  13.004  0.00  0.00    +0.000 A 
ATOM      4  C   UNL     1      46.449   6.850  12.311  0.00  0.00    +0.000 A 
ATOM      5  C   UNL     1      45.313   6.091  12.517  0.00  0.00    +0.000 A 
ATOM      6  N   UNL     1      45.315   5.055  13.383  0.00  0.00    +0.000 NA
ENDROOT
BRANCH   3   7
ATOM      7  C   UNL     1      48.870   7.214  12.792  0.00  0.00    +0.000 A 
ATOM      8  C   UNL     1      49.334   7.548  11.511  0.00  0.00    +0.000 A 
ATOM      9  C   UNL     1      50.547   8.199  11.372  0.00  0.00    +0.000 A 
ATOM     10  N   UNL     1      51.341   8.530  12.407  0.00  0.00    +0.000 NA
ATOM     11  C   UNL     1      50.908   8.195  13.648  0.00  0.00    +0.000 A 
ATOM     12  C   UNL     1      49.690   7.558  13.875  0.00  0.00    +0.000 A 
BRANCH  11  13
ATOM     13  C   UNL     1      51.843   8.457  14.805  0.00  0.00    +0.000 C 
BRANCH  13  14
ATOM     14  O   UNL     1      52.210   7.260  15.501  0.00  0.00    +0.000 OA
ATOM     15  C   UNL     1      51.878   7.308  16.885  0.00  0.00    +0.000 C 
ENDBRANCH  13  14
ENDBRANCH  11  13
ENDBRANCH   3   7
BRANCH   5  16
ATOM     16  C   UNL     1      44.010   6.365  11.778  0.00  0.00    +0.000 C 
ATOM     17  C   UNL     1      44.047   7.786  11.199  0.00  0.00    +0.000 C 
BRANCH  16  18
ATOM     18  C   UNL     1      43.670   5.387  10.633  0.00  0.00    +0.000 C 
BRANCH  18  19
ATOM     19  O   UNL     1      44.312   4.118  10.832  0.00  0.00    +0.000 OA
BRANCH  19  20
ATOM     20  C   UNL     1      45.004   3.614   9.760  0.00  0.00    +0.000 A 
ATOM     21  C   UNL     1      45.191   2.259   9.488  0.00  0.00    +0.000 A 
ATOM     22  C   UNL     1      45.933   1.860   8.372  0.00  0.00    +0.000 A 
ATOM     23  C   UNL     1      46.489   2.809   7.511  0.00  0.00    +0.000 A 
ATOM     24  C   UNL     1      46.305   4.170   7.779  0.00  0.00    +0.000 A 
ATOM     25  C   UNL     1      45.565   4.566   8.901  0.00  0.00    +0.000 A 
BRANCH  23  26
ATOM     26  C   UNL     1      47.284   2.311   6.358  0.00  0.00    +0.000 C 
ATOM     27  N   UNL     1      47.286   3.060   5.215  0.00  0.00    +0.000 N 
ATOM     28  O   UNL     1      47.887   1.246   6.409  0.00  0.00    +0.000 OA
ATOM     29  H   UNL     1      46.633   3.809   5.046  0.00  0.00    +0.000 HD
ATOM     30  H   UNL     1      47.741   2.640   4.413  0.00  0.00    +0.000 HD
ENDBRANCH  23  26
ENDBRANCH  19  20
ENDBRANCH  18  19
ENDBRANCH  16  18
ENDBRANCH   5  16
BRANCH   1  31
ATOM     31  O   UNL     1      46.489   3.866  15.037  0.00  0.00    +0.000 OA
BRANCH  31  33
ATOM     32  C   UNL     1      47.214   3.513  17.273  0.00  0.00    +0.000 C 
ATOM     33  C   UNL     1      47.621   3.996  15.890  0.00  0.00    +0.000 C 
ENDBRANCH  31  33
ENDBRANCH   1  31
TORSDOF 10
ENDMDL
MODEL 6
REMARK VINA RESULT:    -7.329      2.257      3.665
REMARK INTER + INTRA:         -13.055
REMARK INTER:                 -12.004
REMARK INTRA:                  -1.050
REMARK UNBOUND:                -1.441
REMARK  Name = 
REMARK  13 active torsions:
REMARK  status: ('A' for Active; 'I' for Inactive)
REMARK    1  A    between atoms: C_1  and  C_2
REMARK    2  A    between atoms: C_2  and  O_3
REMARK    3  A    between atoms: O_3  and  C_4
REMARK    4  A    between atoms: C_6  and  C_7
REMARK    5  A    between atoms: C_11  and  C_12
REMARK    6  A    between atoms: C_12  and  O_13
REMARK    7  A    between atoms: O_13  and  C_14
REMARK    8  A    between atoms: C_17  and  C_18
REMARK    9  A    between atoms: C_18  and  C_19
REMARK   10  A    between atoms: C_18  and  C_20
REMARK   11  A    between atoms: C_20  and  O_21
REMARK   12  A    between atoms: O_21  and  C_22
REMARK   13  A    between atoms: C_25  and  C_26
REMARK                            x       y       z     vdW  Elec       q    Type
REMARK                         _______ _______ _______ _____ _____    ______ ____
ROOT
ATOM      1  C   UNL     1      45.298   8.617  12.043  0.00  0.00    +0.000 A 
ATOM      2  N   UNL     1      46.606   8.865  12.177  0.00  0.00    +0.000 NA
ATOM      3  C   UNL     1      47.425   7.799  12.181  0.00  0.00    +0.000 A 
ATOM      4  C   UNL     1      46.945   6.516  11.994  0.00  0.00    +0.000 A 
ATOM      5  C   UNL     1      45.580   6.345  11.864  0.00  0.00    +0.000 A 
ATOM      6  N   UNL     1      44.740   7.402  11.900  0.00  0.00    +0.000 NA
ENDROOT
BRANCH   3   7
ATOM      7  C   UNL     1      48.858   8.066  12.402  0.00  0.00    +0.000 A 
ATOM      8  C   UNL     1      49.353   8.499  13.642  0.00  0.00    +0.000 A 
ATOM      9  C   UNL     1      50.705   8.749  13.787  0.00  0.00    +0.000 A 
ATOM     10  N   UNL     1      51.601   8.617  12.791  0.00  0.00    +0.000 NA
ATOM     11  C   UNL     1      51.127   8.216  11.585  0.00  0.00    +0.000 A 
ATOM     12  C   UNL     1      49.784   7.923  11.362  0.00  0.00    +0.000 A 
BRANCH  11  13
ATOM     13  C   UNL     1      52.104   8.176  10.433  0.00  0.00    +0.000 C 
BRANCH  13  14
ATOM     14  O   UNL     1      52.097   6.919   9.745  0.00  0.00    +0.000 OA
ATOM     15  C   UNL     1      52.724   6.991   8.468  0.00  0.00    +0.000 C 
ENDBRANCH  13  14
ENDBRANCH  11  13
ENDBRANCH   3   7
BRANCH   5  16
ATOM     16  C   UNL     1      44.947   4.972  11.688  0.00  0.00    +0.000 C 
ATOM     17  C   UNL     1      44.566   4.412  13.066  0.00  0.00    +0.000 C 
BRANCH  16  18
ATOM     18  C   UNL     1      43.697   4.920  10.784  0.00  0.00    +0.000 C 
BRANCH  18  19
ATOM     19  O   UNL     1      43.539   3.620  10.197  0.00  0.00    +0.000 OA
BRANCH  19  20
ATOM     20  C   UNL     1      44.511   3.235   9.309  0.00  0.00    +0.000 A 
ATOM     21  C   UNL     1      44.962   1.927   9.128  0.00  0.00    +0.000 A 
ATOM     22  C   UNL     1      45.975   1.653   8.204  0.00  0.00    +0.000 A 
ATOM     23  C   UNL     1      46.543   2.679   7.444  0.00  0.00    +0.000 A 
ATOM     24  C   UNL     1      46.095   3.993   7.623  0.00  0.00    +0.000 A 
ATOM     25  C   UNL     1      45.083   4.264   8.553  0.00  0.00    +0.000 A 
BRANCH  23  26
ATOM     26  C   UNL     1      47.630   2.316   6.499  0.00  0.00    +0.000 C 
ATOM     27  N   UNL     1      47.635   2.918   5.273  0.00  0.00    +0.000 N 
ATOM     28  O   UNL     1      48.474   1.476   6.787  0.00  0.00    +0.000 OA
ATOM     29  H   UNL     1      46.847   3.431   4.907  0.00  0.00    +0.000 HD
ATOM     30  H   UNL     1      48.318   2.568   4.611  0.00  0.00    +0.000 HD
ENDBRANCH  23  26
ENDBRANCH  19  20
ENDBRANCH  18  19
ENDBRANCH  16  18
ENDBRANCH   5  16
BRANCH   1  31
ATOM     31  O   UNL     1      44.509   9.741  11.951  0.00  0.00    +0.000 OA
BRANCH  31  33
ATOM     32  C   UNL     1      42.660  10.769  10.869  0.00  0.00    +0.000 C 
ATOM     33  C   UNL     1      43.857   9.850  10.690  0.00  0.00    +0.000 C 
ENDBRANCH  31  33
ENDBRANCH   1  31
TORSDOF 10
ENDMDL
MODEL 7
REMARK VINA RESULT:    -7.031      3.444      8.404
REMARK INTER + INTRA:         -12.583
REMARK INTER:                 -10.900
REMARK INTRA:                  -1.682
REMARK UNBOUND:                -1.441
REMARK  Name = 
REMARK  13 active torsions:
REMARK  status: ('A' for Active; 'I' for Inactive)
REMARK    1  A    between atoms: C_1  and  C_2
REMARK    2  A    between atoms: C_2  and  O_3
REMARK    3  A    between atoms: O_3  and  C_4
REMARK    4  A    between atoms: C_6  and  C_7
REMARK    5  A    between atoms: C_11  and  C_12
REMARK    6  A    between atoms: C_12  and  O_13
REMARK    7  A    between atoms: O_13  and  C_14
REMARK    8  A    between atoms: C_17  and  C_18
REMARK    9  A    between atoms: C_18  and  C_19
REMARK   10  A    between atoms: C_18  and  C_20
REMARK   11  A    between atoms: C_20  and  O_21
REMARK   12  A    between atoms: O_21  and  C_22
REMARK   13  A    between atoms: C_25  and  C_26
REMARK                            x       y       z     vdW  Elec       q    Type
REMARK                         _______ _______ _______ _____ _____    ______ ____
ROOT
ATOM      1  C   UNL     1      47.249   4.268  15.219  0.00  0.00    +0.000 A 
ATOM      2  N   UNL     1      46.262   4.190  14.319  0.00  0.00    +0.000 NA
ATOM      3  C   UNL     1      46.182   5.188  13.422  0.00  0.00    +0.000 A 
ATOM      4  C   UNL     1      47.112   6.211  13.393  0.00  0.00    +0.000 A 
ATOM      5  C   UNL     1      48.100   6.219  14.358  0.00  0.00    +0.000 A 
ATOM      6  N   UNL     1      48.169   5.246  15.292  0.00  0.00    +0.000 NA
ENDROOT
BRANCH   3   7
ATOM      7  C   UNL     1      45.051   5.141  12.478  0.00  0.00    +0.000 A 
ATOM      8  C   UNL     1      43.742   5.462  12.866  0.00  0.00    +0.000 A 
ATOM      9  C   UNL     1      42.717   5.385  11.940  0.00  0.00    +0.000 A 
ATOM     10  N   UNL     1      42.891   4.998  10.663  0.00  0.00    +0.000 NA
ATOM     11  C   UNL     1      44.151   4.669  10.285  0.00  0.00    +0.000 A 
ATOM     12  C   UNL     1      45.241   4.741  11.150  0.00  0.00    +0.000 A 
BRANCH  11  13
ATOM     13  C   UNL     1      44.338   4.124   8.888  0.00  0.00    +0.000 C 
BRANCH  13  14
ATOM     14  O   UNL     1      45.516   4.632   8.249  0.00  0.00    +0.000 OA
ATOM     15  C   UNL     1      46.225   3.627   7.531  0.00  0.00    +0.000 C 
ENDBRANCH  13  14
ENDBRANCH  11  13
ENDBRANCH   3   7
BRANCH   5  16
ATOM     16  C   UNL     1      49.151   7.317  14.434  0.00  0.00    +0.000 C 
ATOM     17  C   UNL     1      49.458   7.821  13.016  0.00  0.00    +0.000 C 
BRANCH  16  18
ATOM     18  C   UNL     1      48.785   8.536  15.309  0.00  0.00    +0.000 C 
BRANCH  18  19
ATOM     19  O   UNL     1      49.668   8.646  16.435  0.00  0.00    +0.000 OA
BRANCH  19  20
ATOM     20  C   UNL     1      49.383   7.842  17.509  0.00  0.00    +0.000 A 
ATOM     21  C   UNL     1      50.252   6.903  18.065  0.00  0.00    +0.000 A 
ATOM     22  C   UNL     1      49.847   6.124  19.152  0.00  0.00    +0.000 A 
ATOM     23  C   UNL     1      48.571   6.278  19.701  0.00  0.00    +0.000 A 
ATOM     24  C   UNL     1      47.694   7.216  19.147  0.00  0.00    +0.000 A 
ATOM     25  C   UNL     1      48.104   7.993  18.055  0.00  0.00    +0.000 A 
BRANCH  23  26
ATOM     26  C   UNL     1      48.201   5.398  20.840  0.00  0.00    +0.000 C 
ATOM     27  N   UNL     1      48.613   4.096  20.799  0.00  0.00    +0.000 N 
ATOM     28  O   UNL     1      47.517   5.808  21.770  0.00  0.00    +0.000 OA
ATOM     29  H   UNL     1      48.971   3.657  19.964  0.00  0.00    +0.000 HD
ATOM     30  H   UNL     1      48.251   3.494  21.529  0.00  0.00    +0.000 HD
ENDBRANCH  23  26
ENDBRANCH  19  20
ENDBRANCH  18  19
ENDBRANCH  16  18
ENDBRANCH   5  16
BRANCH   1  31
ATOM     31  O   UNL     1      47.347   3.180  16.057  0.00  0.00    +0.000 OA
BRANCH  31  33
ATOM     32  C   UNL     1      49.200   2.744  17.479  0.00  0.00    +0.000 C 
ATOM     33  C   UNL     1      47.899   3.515  17.325  0.00  0.00    +0.000 C 
ENDBRANCH  31  33
ENDBRANCH   1  31
TORSDOF 10
ENDMDL
MODEL 8
REMARK VINA RESULT:    -6.976      2.819      6.985
REMARK INTER + INTRA:         -12.495
REMARK INTER:                 -10.955
REMARK INTRA:                  -1.540
REMARK UNBOUND:                -1.441
REMARK  Name = 
REMARK  13 active torsions:
REMARK  status: ('A' for Active; 'I' for Inactive)
REMARK    1  A    between atoms: C_1  and  C_2
REMARK    2  A    between atoms: C_2  and  O_3
REMARK    3  A    between atoms: O_3  and  C_4
REMARK    4  A    between atoms: C_6  and  C_7
REMARK    5  A    between atoms: C_11  and  C_12
REMARK    6  A    between atoms: C_12  and  O_13
REMARK    7  A    between atoms: O_13  and  C_14
REMARK    8  A    between atoms: C_17  and  C_18
REMARK    9  A    between atoms: C_18  and  C_19
REMARK   10  A    between atoms: C_18  and  C_20
REMARK   11  A    between atoms: C_20  and  O_21
REMARK   12  A    between atoms: O_21  and  C_22
REMARK   13  A    between atoms: C_25  and  C_26
REMARK                            x       y       z     vdW  Elec       q    Type
REMARK                         _______ _______ _______ _____ _____    ______ ____
ROOT
ATOM      1  C   UNL     1      47.464   4.572  15.281  0.00  0.00    +0.000 A 
ATOM      2  N   UNL     1      46.557   4.120  14.407  0.00  0.00    +0.000 NA
ATOM      3  C   UNL     1      46.403   4.828  13.275  0.00  0.00    +0.000 A 
ATOM      4  C   UNL     1      47.187   5.933  13.001  0.00  0.00    +0.000 A 
ATOM      5  C   UNL     1      48.100   6.336  13.955  0.00  0.00    +0.000 A 
ATOM      6  N   UNL     1      48.237   5.660  15.116  0.00  0.00    +0.000 NA
ENDROOT
BRANCH   3   7
ATOM      7  C   UNL     1      45.353   4.372  12.346  0.00  0.00    +0.000 A 
ATOM      8  C   UNL     1      44.213   3.685  12.789  0.00  0.00    +0.000 A 
ATOM      9  C   UNL     1      43.267   3.267  11.869  0.00  0.00    +0.000 A 
ATOM     10  N   UNL     1      43.376   3.465  10.543  0.00  0.00    +0.000 NA
ATOM     11  C   UNL     1      44.485   4.113  10.105  0.00  0.00    +0.000 A 
ATOM     12  C   UNL     1      45.472   4.585  10.967  0.00  0.00    +0.000 A 
BRANCH  11  13
ATOM     13  C   UNL     1      44.673   4.238   8.611  0.00  0.00    +0.000 C 
BRANCH  13  14
ATOM     14  O   UNL     1      46.012   4.598   8.250  0.00  0.00    +0.000 OA
ATOM     15  C   UNL     1      46.587   3.695   7.311  0.00  0.00    +0.000 C 
ENDBRANCH  13  14
ENDBRANCH  11  13
ENDBRANCH   3   7
BRANCH   5  16
ATOM     16  C   UNL     1      48.986   7.559  13.766  0.00  0.00    +0.000 C 
ATOM     17  C   UNL     1      49.696   7.462  12.408  0.00  0.00    +0.000 C 
BRANCH  16  18
ATOM     18  C   UNL     1      48.269   8.925  13.837  0.00  0.00    +0.000 C 
BRANCH  18  19
ATOM     19  O   UNL     1      48.150   9.513  12.533  0.00  0.00    +0.000 OA
BRANCH  19  20
ATOM     20  C   UNL     1      46.905   9.972  12.187  0.00  0.00    +0.000 A 
ATOM     21  C   UNL     1      46.601  11.289  11.841  0.00  0.00    +0.000 A 
ATOM     22  C   UNL     1      45.288  11.649  11.522  0.00  0.00    +0.000 A 
ATOM     23  C   UNL     1      44.265  10.696  11.538  0.00  0.00    +0.000 A 
ATOM     24  C   UNL     1      44.564   9.374  11.885  0.00  0.00    +0.000 A 
ATOM     25  C   UNL     1      45.881   9.019  12.208  0.00  0.00    +0.000 A 
BRANCH  23  26
ATOM     26  C   UNL     1      42.890  11.157  11.211  0.00  0.00    +0.000 C 
ATOM     27  N   UNL     1      41.952  11.115  12.203  0.00  0.00    +0.000 N 
ATOM     28  O   UNL     1      42.590  11.525  10.082  0.00  0.00    +0.000 OA
ATOM     29  H   UNL     1      42.086  10.611  13.067  0.00  0.00    +0.000 HD
ATOM     30  H   UNL     1      41.002  11.325  11.922  0.00  0.00    +0.000 HD
ENDBRANCH  23  26
ENDBRANCH  19  20
ENDBRANCH  18  19
ENDBRANCH  16  18
ENDBRANCH   5  16
BRANCH   1  31
ATOM     31  O   UNL     1      47.652   3.766  16.379  0.00  0.00    +0.000 OA
BRANCH  31  33
ATOM     32  C   UNL     1      48.355   4.318  18.582  0.00  0.00    +0.000 C 
ATOM     33  C   UNL     1      47.207   4.374  17.587  0.00  0.00    +0.000 C 
ENDBRANCH  31  33
ENDBRANCH   1  31
TORSDOF 10
ENDMDL
MODEL 9
REMARK VINA RESULT:    -6.836      2.822      8.039
REMARK INTER + INTRA:         -12.273
REMARK INTER:                 -10.888
REMARK INTRA:                  -1.385
REMARK UNBOUND:                -1.441
REMARK  Name = 
REMARK  13 active torsions:
REMARK  status: ('A' for Active; 'I' for Inactive)
REMARK    1  A    between atoms: C_1  and  C_2
REMARK    2  A    between atoms: C_2  and  O_3
REMARK    3  A    between atoms: O_3  and  C_4
REMARK    4  A    between atoms: C_6  and  C_7
REMARK    5  A    between atoms: C_11  and  C_12
REMARK    6  A    between atoms: C_12  and  O_13
REMARK    7  A    between atoms: O_13  and  C_14
REMARK    8  A    between atoms: C_17  and  C_18
REMARK    9  A    between atoms: C_18  and  C_19
REMARK   10  A    between atoms: C_18  and  C_20
REMARK   11  A    between atoms: C_20  and  O_21
REMARK   12  A    between atoms: O_21  and  C_22
REMARK   13  A    between atoms: C_25  and  C_26
REMARK                            x       y       z     vdW  Elec       q    Type
REMARK                         _______ _______ _______ _____ _____    ______ ____
ROOT
ATOM      1  C   UNL     1      45.340   9.141  12.001  0.00  0.00    +0.000 A 
ATOM      2  N   UNL     1      44.742   7.976  11.724  0.00  0.00    +0.000 NA
ATOM      3  C   UNL     1      45.541   6.903  11.594  0.00  0.00    +0.000 A 
ATOM      4  C   UNL     1      46.906   6.988  11.797  0.00  0.00    +0.000 A 
ATOM      5  C   UNL     1      47.446   8.228  12.078  0.00  0.00    +0.000 A 
ATOM      6  N   UNL     1      46.661   9.323  12.171  0.00  0.00    +0.000 NA
ENDROOT
BRANCH   3   7
ATOM      7  C   UNL     1      44.891   5.635  11.217  0.00  0.00    +0.000 A 
ATOM      8  C   UNL     1      43.937   5.014  12.038  0.00  0.00    +0.000 A 
ATOM      9  C   UNL     1      43.371   3.816  11.640  0.00  0.00    +0.000 A 
ATOM     10  N   UNL     1      43.691   3.180  10.498  0.00  0.00    +0.000 NA
ATOM     11  C   UNL     1      44.626   3.766   9.707  0.00  0.00    +0.000 A 
ATOM     12  C   UNL     1      45.227   4.981  10.025  0.00  0.00    +0.000 A 
BRANCH  11  13
ATOM     13  C   UNL     1      45.076   3.005   8.482  0.00  0.00    +0.000 C 
BRANCH  13  14
ATOM     14  O   UNL     1      45.676   1.744   8.804  0.00  0.00    +0.000 OA
ATOM     15  C   UNL     1      46.605   1.312   7.816  0.00  0.00    +0.000 C 
ENDBRANCH  13  14
ENDBRANCH  11  13
ENDBRANCH   3   7
BRANCH   5  16
ATOM     16  C   UNL     1      48.939   8.435  12.285  0.00  0.00    +0.000 C 
ATOM     17  C   UNL     1      49.170   9.785  12.979  0.00  0.00    +0.000 C 
BRANCH  16  18
ATOM     18  C   UNL     1      49.661   7.343  13.103  0.00  0.00    +0.000 C 
BRANCH  18  19
ATOM     19  O   UNL     1      49.540   7.591  14.512  0.00  0.00    +0.000 OA
BRANCH  19  20
ATOM     20  C   UNL     1      49.048   6.559  15.268  0.00  0.00    +0.000 A 
ATOM     21  C   UNL     1      47.933   5.784  14.946  0.00  0.00    +0.000 A 
ATOM     22  C   UNL     1      47.509   4.766  15.805  0.00  0.00    +0.000 A 
ATOM     23  C   UNL     1      48.199   4.503  16.991  0.00  0.00    +0.000 A 
ATOM     24  C   UNL     1      49.317   5.277  17.321  0.00  0.00    +0.000 A 
ATOM     25  C   UNL     1      49.736   6.299  16.459  0.00  0.00    +0.000 A 
BRANCH  23  26
ATOM     26  C   UNL     1      47.677   3.420  17.866  0.00  0.00    +0.000 C 
ATOM     27  N   UNL     1      48.340   3.171  19.034  0.00  0.00    +0.000 N 
ATOM     28  O   UNL     1      46.710   2.744  17.539  0.00  0.00    +0.000 OA
ATOM     29  H   UNL     1      49.259   3.534  19.234  0.00  0.00    +0.000 HD
ATOM     30  H   UNL     1      48.032   2.356  19.552  0.00  0.00    +0.000 HD
ENDBRANCH  23  26
ENDBRANCH  19  20
ENDBRANCH  18  19
ENDBRANCH  16  18
ENDBRANCH   5  16
BRANCH   1  31
ATOM     31  O   UNL     1      44.476  10.190  12.216  0.00  0.00    +0.000 OA
BRANCH  31  33
ATOM     32  C   UNL     1      43.755  11.102  10.143  0.00  0.00    +0.000 C 
ATOM     33  C   UNL     1      44.700  11.274  11.321  0.00  0.00    +0.000 C 
ENDBRANCH  31  33
ENDBRANCH   1  31
TORSDOF 10
ENDMDL
