MODEL 1
REMARK VINA RESULT:    -8.510      0.000      0.000
REMARK INTER + INTRA:         -12.730
REMARK INTER:                 -11.743
REMARK INTRA:                  -0.987
REMARK UNBOUND:                -0.987
REMARK  Name = 
REMARK  7 active torsions:
REMARK  status: ('A' for Active; 'I' for Inactive)
REMARK    1  A    between atoms: C_2  and  C_20
REMARK    2  A    between atoms: N_3  and  C_4
REMARK    3  A    between atoms: C_4  and  C_5
REMARK    4  A    between atoms: C_8  and  C_9
REMARK    5  A    between atoms: C_9  and  O_10
REMARK    6  A    between atoms: C_9  and  C_11
REMARK    7  A    between atoms: C_11  and  C_12
REMARK                            x       y       z     vdW  Elec       q    Type
REMARK                         _______ _______ _______ _____ _____    ______ ____
ROOT
ATOM      1  C   UNL     1      46.720   7.890  13.291  0.00  0.00    +0.000 C 
ENDROOT
BRANCH   1   2
ATOM      2  C   UNL     1      46.073   6.732  12.579  0.00  0.00    +0.000 A 
ATOM      3  C   UNL     1      46.310   6.506  11.227  0.00  0.00    +0.000 A 
ATOM      4  N   UNL     1      45.753   5.475  10.541  0.00  0.00    +0.000 NA
ATOM      5  C   UNL     1      44.935   4.658  11.255  0.00  0.00    +0.000 A 
ATOM      6  C   UNL     1      44.668   4.911  12.597  0.00  0.00    +0.000 A 
ATOM      7  N   UNL     1      45.231   5.934  13.286  0.00  0.00    +0.000 NA
BRANCH   5   8
ATOM      8  C   UNL     1      44.234   3.517  10.545  0.00  0.00    +0.000 C 
BRANCH   8   9
ATOM      9  O   UNL     1      42.895   3.441  11.047  0.00  0.00    +0.000 OA
ATOM     10  H   UNL     1      42.900   2.751  11.734  0.00  0.00    +0.000 HD
ENDBRANCH   8   9
BRANCH   8  11
ATOM     11  C   UNL     1      44.221   3.692   9.013  0.00  0.00    +0.000 C 
BRANCH  11  12
ATOM     12  C   UNL     1      45.309   2.910   8.321  0.00  0.00    +0.000 A 
ATOM     13  C   UNL     1      46.092   3.485   7.311  0.00  0.00    +0.000 A 
ATOM     14  C   UNL     1      47.078   2.731   6.687  0.00  0.00    +0.000 A 
ATOM     15  C   UNL     1      47.255   1.418   7.088  0.00  0.00    +0.000 A 
ATOM     16  N   UNL     1      46.517   0.824   8.051  0.00  0.00    +0.000 NA
ATOM     17  C   UNL     1      45.563   1.581   8.641  0.00  0.00    +0.000 A 
ENDBRANCH  11  12
ENDBRANCH   8  11
ENDBRANCH   5   8
ENDBRANCH   1   2
BRANCH   1  20
ATOM     18  O   UNL     1      49.265   6.704  13.450  0.00  0.00    +0.000 OA
ATOM     19  C   UNL     1      48.625   6.866  14.486  0.00  0.00    +0.000 C 
ATOM     20  N   UNL     1      47.404   7.482  14.496  0.00  0.00    +0.000 N 
ATOM     21  H   UNL     1      46.883   7.572  15.359  0.00  0.00    +0.000 HD
BRANCH  19  22
ATOM     22  C   UNL     1      49.145   6.454  15.793  0.00  0.00    +0.000 A 
ATOM     23  C   UNL     1      50.214   7.133  16.364  0.00  0.00    +0.000 A 
ATOM     24  S   UNL     1      50.671   6.513  17.888  0.00  0.00    +0.000 S 
ATOM     25  C   UNL     1      49.477   5.300  17.818  0.00  0.00    +0.000 A 
ATOM     26  N   UNL     1      49.335   4.397  18.826  0.00  0.00    +0.000 NA
ATOM     27  C   UNL     1      48.408   3.520  18.629  0.00  0.00    +0.000 A 
ATOM     28  N   UNL     1      47.610   3.463  17.516  0.00  0.00    +0.000 N 
ATOM     29  C   UNL     1      47.697   4.369  16.489  0.00  0.00    +0.000 A 
ATOM     30  O   UNL     1      46.926   4.323  15.536  0.00  0.00    +0.000 OA
ATOM     31  C   UNL     1      48.732   5.373  16.656  0.00  0.00    +0.000 A 
ATOM     32  H   UNL     1      46.889   2.761  17.432  0.00  0.00    +0.000 HD
ENDBRANCH  19  22
ENDBRANCH   1  20
TORSDOF 7
ENDMDL
MODEL 2
REMARK VINA RESULT:    -8.083      2.007      2.375
REMARK INTER + INTRA:         -12.142
REMARK INTER:                 -11.246
REMARK INTRA:                  -0.896
REMARK UNBOUND:                -0.987
REMARK  Name = 
REMARK  7 active torsions:
REMARK  status: ('A' for Active; 'I' for Inactive)
REMARK    1  A    between atoms: C_2  and  C_20
REMARK    2  A    between atoms: N_3  and  C_4
REMARK    3  A    between atoms: C_4  and  C_5
REMARK    4  A    between atoms: C_8  and  C_9
REMARK    5  A    between atoms: C_9  and  O_10
REMARK    6  A    between atoms: C_9  and  C_11
REMARK    7  A    between atoms: C_11  and  C_12
REMARK                            x       y       z     vdW  Elec       q    Type
REMARK                         _______ _______ _______ _____ _____    ______ ____
ROOT
ATOM      1  C   UNL     1      47.642   6.978  13.686  0.00  0.00    +0.000 C 
ENDROOT
BRANCH   1   2
ATOM      2  C   UNL     1      46.747   6.066  12.891  0.00  0.00    +0.000 A 
ATOM      3  C   UNL     1      46.347   4.837  13.405  0.00  0.00    +0.000 A 
ATOM      4  N   UNL     1      45.540   3.981  12.728  0.00  0.00    +0.000 NA
ATOM      5  C   UNL     1      45.132   4.392  11.499  0.00  0.00    +0.000 A 
ATOM      6  C   UNL     1      45.567   5.605  10.972  0.00  0.00    +0.000 A 
ATOM      7  N   UNL     1      46.365   6.465  11.650  0.00  0.00    +0.000 NA
BRANCH   5   8
ATOM      8  C   UNL     1      44.271   3.467  10.661  0.00  0.00    +0.000 C 
BRANCH   8   9
ATOM      9  O   UNL     1      42.924   3.571  11.133  0.00  0.00    +0.000 OA
ATOM     10  H   UNL     1      42.974   3.557  12.106  0.00  0.00    +0.000 HD
ENDBRANCH   8   9
BRANCH   8  11
ATOM     11  C   UNL     1      44.338   3.799   9.157  0.00  0.00    +0.000 C 
BRANCH  11  12
ATOM     12  C   UNL     1      45.359   2.974   8.415  0.00  0.00    +0.000 A 
ATOM     13  C   UNL     1      46.149   3.530   7.400  0.00  0.00    +0.000 A 
ATOM     14  C   UNL     1      47.072   2.737   6.730  0.00  0.00    +0.000 A 
ATOM     15  C   UNL     1      47.182   1.406   7.092  0.00  0.00    +0.000 A 
ATOM     16  N   UNL     1      46.435   0.829   8.059  0.00  0.00    +0.000 NA
ATOM     17  C   UNL     1      45.543   1.624   8.694  0.00  0.00    +0.000 A 
ENDBRANCH  11  12
ENDBRANCH   8  11
ENDBRANCH   5   8
ENDBRANCH   1   2
BRANCH   1  20
ATOM     18  O   UNL     1      49.986   6.608  15.195  0.00  0.00    +0.000 OA
ATOM     19  C   UNL     1      48.901   6.395  15.730  0.00  0.00    +0.000 C 
ATOM     20  N   UNL     1      47.716   6.602  15.079  0.00  0.00    +0.000 N 
ATOM     21  H   UNL     1      46.838   6.386  15.531  0.00  0.00    +0.000 HD
BRANCH  19  22
ATOM     22  C   UNL     1      48.796   5.947  17.122  0.00  0.00    +0.000 A 
ATOM     23  C   UNL     1      49.099   4.634  17.457  0.00  0.00    +0.000 A 
ATOM     24  S   UNL     1      48.924   4.305  19.124  0.00  0.00    +0.000 S 
ATOM     25  C   UNL     1      48.409   5.896  19.444  0.00  0.00    +0.000 A 
ATOM     26  N   UNL     1      48.076   6.285  20.705  0.00  0.00    +0.000 NA
ATOM     27  C   UNL     1      47.678   7.510  20.798  0.00  0.00    +0.000 A 
ATOM     28  N   UNL     1      47.584   8.382  19.744  0.00  0.00    +0.000 N 
ATOM     29  C   UNL     1      47.936   8.043  18.461  0.00  0.00    +0.000 A 
ATOM     30  O   UNL     1      47.894   8.869  17.554  0.00  0.00    +0.000 OA
ATOM     31  C   UNL     1      48.381   6.671  18.300  0.00  0.00    +0.000 A 
ATOM     32  H   UNL     1      47.282   9.335  19.887  0.00  0.00    +0.000 HD
ENDBRANCH  19  22
ENDBRANCH   1  20
TORSDOF 7
ENDMDL
MODEL 3
REMARK VINA RESULT:    -8.064      1.992      3.444
REMARK INTER + INTRA:         -12.116
REMARK INTER:                 -11.172
REMARK INTRA:                  -0.944
REMARK UNBOUND:                -0.987
REMARK  Name = 
REMARK  7 active torsions:
REMARK  status: ('A' for Active; 'I' for Inactive)
REMARK    1  A    between atoms: C_2  and  C_20
REMARK    2  A    between atoms: N_3  and  C_4
REMARK    3  A    between atoms: C_4  and  C_5
REMARK    4  A    between atoms: C_8  and  C_9
REMARK    5  A    between atoms: C_9  and  O_10
REMARK    6  A    between atoms: C_9  and  C_11
REMARK    7  A    between atoms: C_11  and  C_12
REMARK                            x       y       z     vdW  Elec       q    Type
REMARK                         _______ _______ _______ _____ _____    ______ ____
ROOT
ATOM      1  C   UNL     1      46.964   4.565  15.000  0.00  0.00    +0.000 C 
ENDROOT
BRANCH   1   2
ATOM      2  C   UNL     1      46.306   4.475  13.650  0.00  0.00    +0.000 A 
ATOM      3  C   UNL     1      46.173   5.603  12.847  0.00  0.00    +0.000 A 
ATOM      4  N   UNL     1      45.590   5.573  11.621  0.00  0.00    +0.000 NA
ATOM      5  C   UNL     1      45.134   4.362  11.207  0.00  0.00    +0.000 A 
ATOM      6  C   UNL     1      45.233   3.243  12.030  0.00  0.00    +0.000 A 
ATOM      7  N   UNL     1      45.823   3.270  13.250  0.00  0.00    +0.000 NA
BRANCH   5   8
ATOM      8  C   UNL     1      44.424   4.259   9.872  0.00  0.00    +0.000 C 
BRANCH   8   9
ATOM      9  O   UNL     1      43.348   5.203   9.872  0.00  0.00    +0.000 OA
ATOM     10  H   UNL     1      43.738   6.062   9.627  0.00  0.00    +0.000 HD
ENDBRANCH   8   9
BRANCH   8  11
ATOM     11  C   UNL     1      45.367   4.523   8.680  0.00  0.00    +0.000 C 
BRANCH  11  12
ATOM     12  C   UNL     1      46.000   3.265   8.140  0.00  0.00    +0.000 A 
ATOM     13  C   UNL     1      46.946   3.311   7.107  0.00  0.00    +0.000 A 
ATOM     14  C   UNL     1      47.501   2.132   6.626  0.00  0.00    +0.000 A 
ATOM     15  C   UNL     1      47.095   0.935   7.190  0.00  0.00    +0.000 A 
ATOM     16  N   UNL     1      46.181   0.847   8.182  0.00  0.00    +0.000 NA
ATOM     17  C   UNL     1      45.656   2.011   8.630  0.00  0.00    +0.000 A 
ENDBRANCH  11  12
ENDBRANCH   8  11
ENDBRANCH   5   8
ENDBRANCH   1   2
BRANCH   1  20
ATOM     18  O   UNL     1      49.208   4.929  16.655  0.00  0.00    +0.000 OA
ATOM     19  C   UNL     1      48.773   5.894  16.031  0.00  0.00    +0.000 C 
ATOM     20  N   UNL     1      47.719   5.785  15.167  0.00  0.00    +0.000 N 
ATOM     21  H   UNL     1      47.359   6.602  14.692  0.00  0.00    +0.000 HD
BRANCH  19  22
ATOM     22  C   UNL     1      49.384   7.223  16.131  0.00  0.00    +0.000 A 
ATOM     23  C   UNL     1      49.514   7.839  17.369  0.00  0.00    +0.000 A 
ATOM     24  S   UNL     1      50.253   9.376  17.284  0.00  0.00    +0.000 S 
ATOM     25  C   UNL     1      50.394   9.279  15.589  0.00  0.00    +0.000 A 
ATOM     26  N   UNL     1      50.941  10.297  14.872  0.00  0.00    +0.000 NA
ATOM     27  C   UNL     1      50.961  10.101  13.596  0.00  0.00    +0.000 A 
ATOM     28  N   UNL     1      50.484   8.977  12.971  0.00  0.00    +0.000 N 
ATOM     29  C   UNL     1      49.951   7.913  13.656  0.00  0.00    +0.000 A 
ATOM     30  O   UNL     1      49.589   6.899  13.068  0.00  0.00    +0.000 OA
ATOM     31  C   UNL     1      49.896   8.088  15.096  0.00  0.00    +0.000 A 
ATOM     32  H   UNL     1      50.547   8.877  11.969  0.00  0.00    +0.000 HD
ENDBRANCH  19  22
ENDBRANCH   1  20
TORSDOF 7
ENDMDL
MODEL 4
REMARK VINA RESULT:    -7.930      1.747      2.005
REMARK INTER + INTRA:         -11.930
REMARK INTER:                 -11.003
REMARK INTRA:                  -0.926
REMARK UNBOUND:                -0.987
REMARK  Name = 
REMARK  7 active torsions:
REMARK  status: ('A' for Active; 'I' for Inactive)
REMARK    1  A    between atoms: C_2  and  C_20
REMARK    2  A    between atoms: N_3  and  C_4
REMARK    3  A    between atoms: C_4  and  C_5
REMARK    4  A    between atoms: C_8  and  C_9
REMARK    5  A    between atoms: C_9  and  O_10
REMARK    6  A    between atoms: C_9  and  C_11
REMARK    7  A    between atoms: C_11  and  C_12
REMARK                            x       y       z     vdW  Elec       q    Type
REMARK                         _______ _______ _______ _____ _____    ______ ____
ROOT
ATOM      1  C   UNL     1      48.310   6.443  13.844  0.00  0.00    +0.000 C 
ENDROOT
BRANCH   1   2
ATOM      2  C   UNL     1      47.170   5.770  13.128  0.00  0.00    +0.000 A 
ATOM      3  C   UNL     1      46.685   4.541  13.560  0.00  0.00    +0.000 A 
ATOM      4  N   UNL     1      45.658   3.896  12.950  0.00  0.00    +0.000 NA
ATOM      5  C   UNL     1      45.115   4.523  11.874  0.00  0.00    +0.000 A 
ATOM      6  C   UNL     1      45.629   5.734  11.421  0.00  0.00    +0.000 A 
ATOM      7  N   UNL     1      46.648   6.384  12.034  0.00  0.00    +0.000 NA
BRANCH   5   8
ATOM      8  C   UNL     1      43.999   3.840  11.109  0.00  0.00    +0.000 C 
BRANCH   8   9
ATOM      9  O   UNL     1      42.753   4.256  11.680  0.00  0.00    +0.000 OA
ATOM     10  H   UNL     1      42.808   5.224  11.776  0.00  0.00    +0.000 HD
ENDBRANCH   8   9
BRANCH   8  11
ATOM     11  C   UNL     1      44.031   4.164   9.602  0.00  0.00    +0.000 C 
BRANCH  11  12
ATOM     12  C   UNL     1      45.032   3.330   8.841  0.00  0.00    +0.000 A 
ATOM     13  C   UNL     1      45.869   3.899   7.873  0.00  0.00    +0.000 A 
ATOM     14  C   UNL     1      46.771   3.100   7.183  0.00  0.00    +0.000 A 
ATOM     15  C   UNL     1      46.813   1.748   7.479  0.00  0.00    +0.000 A 
ATOM     16  N   UNL     1      46.019   1.159   8.399  0.00  0.00    +0.000 NA
ATOM     17  C   UNL     1      45.148   1.961   9.055  0.00  0.00    +0.000 A 
ENDBRANCH  11  12
ENDBRANCH   8  11
ENDBRANCH   5   8
ENDBRANCH   1   2
BRANCH   1  20
ATOM     18  O   UNL     1      49.606   8.164  15.652  0.00  0.00    +0.000 OA
ATOM     19  C   UNL     1      48.818   7.332  16.093  0.00  0.00    +0.000 C 
ATOM     20  N   UNL     1      48.110   6.495  15.274  0.00  0.00    +0.000 N 
ATOM     21  H   UNL     1      47.493   5.795  15.665  0.00  0.00    +0.000 HD
BRANCH  19  22
ATOM     22  C   UNL     1      48.542   7.206  17.527  0.00  0.00    +0.000 A 
ATOM     23  C   UNL     1      48.076   8.299  18.246  0.00  0.00    +0.000 A 
ATOM     24  S   UNL     1      47.807   7.957  19.897  0.00  0.00    +0.000 S 
ATOM     25  C   UNL     1      48.334   6.348  19.710  0.00  0.00    +0.000 A 
ATOM     26  N   UNL     1      48.368   5.493  20.768  0.00  0.00    +0.000 NA
ATOM     27  C   UNL     1      48.812   4.314  20.487  0.00  0.00    +0.000 A 
ATOM     28  N   UNL     1      49.226   3.911  19.243  0.00  0.00    +0.000 N 
ATOM     29  C   UNL     1      49.182   4.728  18.142  0.00  0.00    +0.000 A 
ATOM     30  O   UNL     1      49.505   4.314  17.032  0.00  0.00    +0.000 OA
ATOM     31  C   UNL     1      48.699   6.071  18.405  0.00  0.00    +0.000 A 
ATOM     32  H   UNL     1      49.546   2.966  19.086  0.00  0.00    +0.000 HD
ENDBRANCH  19  22
ENDBRANCH   1  20
TORSDOF 7
ENDMDL
MODEL 5
REMARK VINA RESULT:    -7.814      2.407      3.034
REMARK INTER + INTRA:         -11.770
REMARK INTER:                 -11.139
REMARK INTRA:                  -0.630
REMARK UNBOUND:                -0.987
REMARK  Name = 
REMARK  7 active torsions:
REMARK  status: ('A' for Active; 'I' for Inactive)
REMARK    1  A    between atoms: C_2  and  C_20
REMARK    2  A    between atoms: N_3  and  C_4
REMARK    3  A    between atoms: C_4  and  C_5
REMARK    4  A    between atoms: C_8  and  C_9
REMARK    5  A    between atoms: C_9  and  O_10
REMARK    6  A    between atoms: C_9  and  C_11
REMARK    7  A    between atoms: C_11  and  C_12
REMARK                            x       y       z     vdW  Elec       q    Type
REMARK                         _______ _______ _______ _____ _____    ______ ____
ROOT
ATOM      1  C   UNL     1      46.920   4.465  15.010  0.00  0.00    +0.000 C 
ENDROOT
BRANCH   1   2
ATOM      2  C   UNL     1      46.259   4.412  13.659  0.00  0.00    +0.000 A 
ATOM      3  C   UNL     1      46.029   5.575  12.933  0.00  0.00    +0.000 A 
ATOM      4  N   UNL     1      45.438   5.579  11.710  0.00  0.00    +0.000 NA
ATOM      5  C   UNL     1      45.075   4.365  11.220  0.00  0.00    +0.000 A 
ATOM      6  C   UNL     1      45.271   3.207  11.967  0.00  0.00    +0.000 A 
ATOM      7  N   UNL     1      45.868   3.200  13.183  0.00  0.00    +0.000 NA
BRANCH   5   8
ATOM      8  C   UNL     1      44.363   4.294   9.884  0.00  0.00    +0.000 C 
BRANCH   8   9
ATOM      9  O   UNL     1      43.306   5.260   9.896  0.00  0.00    +0.000 OA
ATOM     10  H   UNL     1      43.735   6.133   9.937  0.00  0.00    +0.000 HD
ENDBRANCH   8   9
BRANCH   8  11
ATOM     11  C   UNL     1      45.310   4.553   8.694  0.00  0.00    +0.000 C 
BRANCH  11  12
ATOM     12  C   UNL     1      45.951   3.294   8.167  0.00  0.00    +0.000 A 
ATOM     13  C   UNL     1      46.907   3.336   7.144  0.00  0.00    +0.000 A 
ATOM     14  C   UNL     1      47.469   2.155   6.674  0.00  0.00    +0.000 A 
ATOM     15  C   UNL     1      47.060   0.960   7.240  0.00  0.00    +0.000 A 
ATOM     16  N   UNL     1      46.136   0.876   8.222  0.00  0.00    +0.000 NA
ATOM     17  C   UNL     1      45.605   2.041   8.660  0.00  0.00    +0.000 A 
ENDBRANCH  11  12
ENDBRANCH   8  11
ENDBRANCH   5   8
ENDBRANCH   1   2
BRANCH   1  20
ATOM     18  O   UNL     1      49.139   4.951  16.667  0.00  0.00    +0.000 OA
ATOM     19  C   UNL     1      48.580   5.907  16.136  0.00  0.00    +0.000 C 
ATOM     20  N   UNL     1      47.528   5.747  15.276  0.00  0.00    +0.000 N 
ATOM     21  H   UNL     1      47.064   6.554  14.879  0.00  0.00    +0.000 HD
BRANCH  19  22
ATOM     22  C   UNL     1      49.030   7.286  16.348  0.00  0.00    +0.000 A 
ATOM     23  C   UNL     1      49.858   7.899  15.418  0.00  0.00    +0.000 A 
ATOM     24  S   UNL     1      50.269   9.504  15.833  0.00  0.00    +0.000 S 
ATOM     25  C   UNL     1      49.378   9.419  17.282  0.00  0.00    +0.000 A 
ATOM     26  N   UNL     1      49.324  10.477  18.136  0.00  0.00    +0.000 NA
ATOM     27  C   UNL     1      48.635  10.264  19.206  0.00  0.00    +0.000 A 
ATOM     28  N   UNL     1      47.994   9.088  19.502  0.00  0.00    +0.000 N 
ATOM     29  C   UNL     1      47.997   8.005  18.659  0.00  0.00    +0.000 A 
ATOM     30  O   UNL     1      47.362   6.990  18.929  0.00  0.00    +0.000 OA
ATOM     31  C   UNL     1      48.767   8.189  17.442  0.00  0.00    +0.000 A 
ATOM     32  H   UNL     1      47.455   8.993  20.350  0.00  0.00    +0.000 HD
ENDBRANCH  19  22
ENDBRANCH   1  20
TORSDOF 7
ENDMDL
MODEL 6
REMARK VINA RESULT:    -7.564      2.452      2.921
REMARK INTER + INTRA:         -11.425
REMARK INTER:                 -10.431
REMARK INTRA:                  -0.994
REMARK UNBOUND:                -0.987
REMARK  Name = 
REMARK  7 active torsions:
REMARK  status: ('A' for Active; 'I' for Inactive)
REMARK    1  A    between atoms: C_2  and  C_20
REMARK    2  A    between atoms: N_3  and  C_4
REMARK    3  A    between atoms: C_4  and  C_5
REMARK    4  A    between atoms: C_8  and  C_9
REMARK    5  A    between atoms: C_9  and  O_10
REMARK    6  A    between atoms: C_9  and  C_11
REMARK    7  A    between atoms: C_11  and  C_12
REMARK                            x       y       z     vdW  Elec       q    Type
REMARK                         _______ _______ _______ _____ _____    ______ ____
ROOT
ATOM      1  C   UNL     1      48.045   6.978  14.254  0.00  0.00    +0.000 C 
ENDROOT
BRANCH   1   2
ATOM      2  C   UNL     1      47.149   5.952  13.612  0.00  0.00    +0.000 A 
ATOM      3  C   UNL     1      46.062   6.340  12.838  0.00  0.00    +0.000 A 
ATOM      4  N   UNL     1      45.227   5.454  12.238  0.00  0.00    +0.000 NA
ATOM      5  C   UNL     1      45.513   4.140  12.434  0.00  0.00    +0.000 A 
ATOM      6  C   UNL     1      46.578   3.755  13.242  0.00  0.00    +0.000 A 
ATOM      7  N   UNL     1      47.418   4.638  13.835  0.00  0.00    +0.000 NA
BRANCH   5   8
ATOM      8  C   UNL     1      44.595   3.091  11.838  0.00  0.00    +0.000 C 
BRANCH   8   9
ATOM      9  O   UNL     1      43.544   2.840  12.778  0.00  0.00    +0.000 OA
ATOM     10  H   UNL     1      43.549   1.880  12.942  0.00  0.00    +0.000 HD
ENDBRANCH   8   9
BRANCH   8  11
ATOM     11  C   UNL     1      44.005   3.523  10.480  0.00  0.00    +0.000 C 
BRANCH  11  12
ATOM     12  C   UNL     1      44.964   3.330   9.333  0.00  0.00    +0.000 A 
ATOM     13  C   UNL     1      45.406   2.054   8.959  0.00  0.00    +0.000 A 
ATOM     14  C   UNL     1      46.299   1.913   7.905  0.00  0.00    +0.000 A 
ATOM     15  C   UNL     1      46.730   3.054   7.250  0.00  0.00    +0.000 A 
ATOM     16  N   UNL     1      46.334   4.302   7.583  0.00  0.00    +0.000 NA
ATOM     17  C   UNL     1      45.465   4.410   8.614  0.00  0.00    +0.000 A 
ENDBRANCH  11  12
ENDBRANCH   8  11
ENDBRANCH   5   8
ENDBRANCH   1   2
BRANCH   1  20
ATOM     18  O   UNL     1      50.353   6.458  15.772  0.00  0.00    +0.000 OA
ATOM     19  C   UNL     1      49.272   6.529  16.350  0.00  0.00    +0.000 C 
ATOM     20  N   UNL     1      48.113   6.830  15.689  0.00  0.00    +0.000 N 
ATOM     21  H   UNL     1      47.231   6.848  16.183  0.00  0.00    +0.000 HD
BRANCH  19  22
ATOM     22  C   UNL     1      49.152   6.343  17.799  0.00  0.00    +0.000 A 
ATOM     23  C   UNL     1      49.631   5.184  18.396  0.00  0.00    +0.000 A 
ATOM     24  S   UNL     1      49.408   5.154  20.088  0.00  0.00    +0.000 S 
ATOM     25  C   UNL     1      48.636   6.672  20.073  0.00  0.00    +0.000 A 
ATOM     26  N   UNL     1      48.171   7.234  21.221  0.00  0.00    +0.000 NA
ATOM     27  C   UNL     1      47.585   8.373  21.059  0.00  0.00    +0.000 A 
ATOM     28  N   UNL     1      47.422   9.002  19.851  0.00  0.00    +0.000 N 
ATOM     29  C   UNL     1      47.900   8.487  18.672  0.00  0.00    +0.000 A 
ATOM     30  O   UNL     1      47.788   9.107  17.619  0.00  0.00    +0.000 OA
ATOM     31  C   UNL     1      48.560   7.200  18.798  0.00  0.00    +0.000 A 
ATOM     32  H   UNL     1      46.970   9.903  19.795  0.00  0.00    +0.000 HD
ENDBRANCH  19  22
ENDBRANCH   1  20
TORSDOF 7
ENDMDL
MODEL 7
REMARK VINA RESULT:    -7.259      2.241      3.301
REMARK INTER + INTRA:         -11.004
REMARK INTER:                 -10.915
REMARK INTRA:                  -0.089
REMARK UNBOUND:                -0.987
REMARK  Name = 
REMARK  7 active torsions:
REMARK  status: ('A' for Active; 'I' for Inactive)
REMARK    1  A    between atoms: C_2  and  C_20
REMARK    2  A    between atoms: N_3  and  C_4
REMARK    3  A    between atoms: C_4  and  C_5
REMARK    4  A    between atoms: C_8  and  C_9
REMARK    5  A    between atoms: C_9  and  O_10
REMARK    6  A    between atoms: C_9  and  C_11
REMARK    7  A    between atoms: C_11  and  C_12
REMARK                            x       y       z     vdW  Elec       q    Type
REMARK                         _______ _______ _______ _____ _____    ______ ____
ROOT
ATOM      1  C   UNL     1      47.353   3.957  15.201  0.00  0.00    +0.000 C 
ENDROOT
BRANCH   1   2
ATOM      2  C   UNL     1      46.699   4.245  13.876  0.00  0.00    +0.000 A 
ATOM      3  C   UNL     1      46.801   5.501  13.290  0.00  0.00    +0.000 A 
ATOM      4  N   UNL     1      46.232   5.809  12.097  0.00  0.00    +0.000 NA
ATOM      5  C   UNL     1      45.542   4.808  11.490  0.00  0.00    +0.000 A 
ATOM      6  C   UNL     1      45.409   3.563  12.099  0.00  0.00    +0.000 A 
ATOM      7  N   UNL     1      45.984   3.252  13.285  0.00  0.00    +0.000 NA
BRANCH   5   8
ATOM      8  C   UNL     1      44.834   5.091  10.180  0.00  0.00    +0.000 C 
BRANCH   8   9
ATOM      9  O   UNL     1      45.778   5.698   9.291  0.00  0.00    +0.000 OA
ATOM     10  H   UNL     1      46.038   5.007   8.656  0.00  0.00    +0.000 HD
ENDBRANCH   8   9
BRANCH   8  11
ATOM     11  C   UNL     1      44.240   3.818   9.542  0.00  0.00    +0.000 C 
BRANCH  11  12
ATOM     12  C   UNL     1      45.224   3.085   8.666  0.00  0.00    +0.000 A 
ATOM     13  C   UNL     1      45.862   3.722   7.593  0.00  0.00    +0.000 A 
ATOM     14  C   UNL     1      46.754   3.012   6.800  0.00  0.00    +0.000 A 
ATOM     15  C   UNL     1      46.985   1.680   7.097  0.00  0.00    +0.000 A 
ATOM     16  N   UNL     1      46.385   1.027   8.116  0.00  0.00    +0.000 NA
ATOM     17  C   UNL     1      45.520   1.742   8.873  0.00  0.00    +0.000 A 
ENDBRANCH  11  12
ENDBRANCH   8  11
ENDBRANCH   5   8
ENDBRANCH   1   2
BRANCH   1  20
ATOM     18  O   UNL     1      49.647   4.771  16.609  0.00  0.00    +0.000 OA
ATOM     19  C   UNL     1      48.623   5.441  16.714  0.00  0.00    +0.000 C 
ATOM     20  N   UNL     1      47.483   5.139  16.020  0.00  0.00    +0.000 N 
ATOM     21  H   UNL     1      46.643   5.687  16.152  0.00  0.00    +0.000 HD
BRANCH  19  22
ATOM     22  C   UNL     1      48.562   6.640  17.555  0.00  0.00    +0.000 A 
ATOM     23  C   UNL     1      48.465   6.520  18.935  0.00  0.00    +0.000 A 
ATOM     24  S   UNL     1      48.412   8.025  19.741  0.00  0.00    +0.000 S 
ATOM     25  C   UNL     1      48.486   8.882  18.271  0.00  0.00    +0.000 A 
ATOM     26  N   UNL     1      48.465  10.242  18.250  0.00  0.00    +0.000 NA
ATOM     27  C   UNL     1      48.501  10.758  17.068  0.00  0.00    +0.000 A 
ATOM     28  N   UNL     1      48.557  10.038  15.902  0.00  0.00    +0.000 N 
ATOM     29  C   UNL     1      48.609   8.666  15.875  0.00  0.00    +0.000 A 
ATOM     30  O   UNL     1      48.719   8.057  14.816  0.00  0.00    +0.000 OA
ATOM     31  C   UNL     1      48.561   8.035  17.182  0.00  0.00    +0.000 A 
ATOM     32  H   UNL     1      48.602  10.504  15.008  0.00  0.00    +0.000 HD
ENDBRANCH  19  22
ENDBRANCH   1  20
TORSDOF 7
ENDMDL
MODEL 8
REMARK VINA RESULT:    -7.022      3.212      4.372
REMARK INTER + INTRA:         -10.677
REMARK INTER:                  -9.700
REMARK INTRA:                  -0.977
REMARK UNBOUND:                -0.987
REMARK  Name = 
REMARK  7 active torsions:
REMARK  status: ('A' for Active; 'I' for Inactive)
REMARK    1  A    between atoms: C_2  and  C_20
REMARK    2  A    between atoms: N_3  and  C_4
REMARK    3  A    between atoms: C_4  and  C_5
REMARK    4  A    between atoms: C_8  and  C_9
REMARK    5  A    between atoms: C_9  and  O_10
REMARK    6  A    between atoms: C_9  and  C_11
REMARK    7  A    between atoms: C_11  and  C_12
REMARK                            x       y       z     vdW  Elec       q    Type
REMARK                         _______ _______ _______ _____ _____    ______ ____
ROOT
ATOM      1  C   UNL     1      47.360   7.316  13.611  0.00  0.00    +0.000 C 
ENDROOT
BRANCH   1   2
ATOM      2  C   UNL     1      46.579   6.300  12.821  0.00  0.00    +0.000 A 
ATOM      3  C   UNL     1      46.073   6.612  11.564  0.00  0.00    +0.000 A 
ATOM      4  N   UNL     1      45.365   5.730  10.813  0.00  0.00    +0.000 NA
ATOM      5  C   UNL     1      45.171   4.502  11.360  0.00  0.00    +0.000 A 
ATOM      6  C   UNL     1      45.645   4.207  12.635  0.00  0.00    +0.000 A 
ATOM      7  N   UNL     1      46.360   5.082  13.383  0.00  0.00    +0.000 NA
BRANCH   5   8
ATOM      8  C   UNL     1      44.345   3.481  10.603  0.00  0.00    +0.000 C 
BRANCH   8   9
ATOM      9  O   UNL     1      43.007   3.533  11.111  0.00  0.00    +0.000 OA
ATOM     10  H   UNL     1      43.017   3.044  11.954  0.00  0.00    +0.000 HD
ENDBRANCH   8   9
BRANCH   8  11
ATOM     11  C   UNL     1      44.349   3.729   9.081  0.00  0.00    +0.000 C 
BRANCH  11  12
ATOM     12  C   UNL     1      45.402   2.930   8.356  0.00  0.00    +0.000 A 
ATOM     13  C   UNL     1      46.196   3.507   7.356  0.00  0.00    +0.000 A 
ATOM     14  C   UNL     1      47.149   2.738   6.701  0.00  0.00    +0.000 A 
ATOM     15  C   UNL     1      47.284   1.409   7.061  0.00  0.00    +0.000 A 
ATOM     16  N   UNL     1      46.535   0.813   8.014  0.00  0.00    +0.000 NA
ATOM     17  C   UNL     1      45.613   1.585   8.635  0.00  0.00    +0.000 A 
ENDBRANCH  11  12
ENDBRANCH   8  11
ENDBRANCH   5   8
ENDBRANCH   1   2
BRANCH   1  20
ATOM     18  O   UNL     1      48.502   9.163  11.824  0.00  0.00    +0.000 OA
ATOM     19  C   UNL     1      49.215   8.282  12.295  0.00  0.00    +0.000 C 
ATOM     20  N   UNL     1      48.747   7.379  13.210  0.00  0.00    +0.000 N 
ATOM     21  H   UNL     1      49.347   6.642  13.556  0.00  0.00    +0.000 HD
BRANCH  19  22
ATOM     22  C   UNL     1      50.634   8.162  11.947  0.00  0.00    +0.000 A 
ATOM     23  C   UNL     1      51.008   7.661  10.708  0.00  0.00    +0.000 A 
ATOM     24  S   UNL     1      52.700   7.604  10.485  0.00  0.00    +0.000 S 
ATOM     25  C   UNL     1      52.986   8.217  12.048  0.00  0.00    +0.000 A 
ATOM     26  N   UNL     1      54.253   8.404  12.507  0.00  0.00    +0.000 NA
ATOM     27  C   UNL     1      54.321   8.850  13.717  0.00  0.00    +0.000 A 
ATOM     28  N   UNL     1      53.237   9.127  14.510  0.00  0.00    +0.000 N 
ATOM     29  C   UNL     1      51.942   8.982  14.079  0.00  0.00    +0.000 A 
ATOM     30  O   UNL     1      50.997   9.297  14.796  0.00  0.00    +0.000 OA
ATOM     31  C   UNL     1      51.809   8.473  12.726  0.00  0.00    +0.000 A 
ATOM     32  H   UNL     1      53.360   9.492  15.443  0.00  0.00    +0.000 HD
ENDBRANCH  19  22
ENDBRANCH   1  20
TORSDOF 7
ENDMDL
MODEL 9
REMARK VINA RESULT:    -6.769      2.846      8.303
REMARK INTER + INTRA:         -10.329
REMARK INTER:                  -9.182
REMARK INTRA:                  -1.146
REMARK UNBOUND:                -0.987
REMARK  Name = 
REMARK  7 active torsions:
REMARK  status: ('A' for Active; 'I' for Inactive)
REMARK    1  A    between atoms: C_2  and  C_20
REMARK    2  A    between atoms: N_3  and  C_4
REMARK    3  A    between atoms: C_4  and  C_5
REMARK    4  A    between atoms: C_8  and  C_9
REMARK    5  A    between atoms: C_9  and  O_10
REMARK    6  A    between atoms: C_9  and  C_11
REMARK    7  A    between atoms: C_11  and  C_12
REMARK                            x       y       z     vdW  Elec       q    Type
REMARK                         _______ _______ _______ _____ _____    ______ ____
ROOT
ATOM      1  C   UNL     1      47.740   7.728  12.058  0.00  0.00    +0.000 C 
ENDROOT
BRANCH   1   2
ATOM      2  C   UNL     1      48.267   7.734  13.468  0.00  0.00    +0.000 A 
ATOM      3  C   UNL     1      47.793   8.649  14.402  0.00  0.00    +0.000 A 
ATOM      4  N   UNL     1      48.234   8.693  15.685  0.00  0.00    +0.000 NA
ATOM      5  C   UNL     1      49.182   7.779  16.020  0.00  0.00    +0.000 A 
ATOM      6  C   UNL     1      49.683   6.891  15.073  0.00  0.00    +0.000 A 
ATOM      7  N   UNL     1      49.237   6.840  13.794  0.00  0.00    +0.000 NA
BRANCH   5   8
ATOM      8  C   UNL     1      49.762   7.801  17.420  0.00  0.00    +0.000 C 
BRANCH   8   9
ATOM      9  O   UNL     1      49.972   9.168  17.790  0.00  0.00    +0.000 OA
ATOM     10  H   UNL     1      49.586   9.705  17.075  0.00  0.00    +0.000 HD
ENDBRANCH   8   9
BRANCH   8  11
ATOM     11  C   UNL     1      48.849   7.103  18.449  0.00  0.00    +0.000 C 
BRANCH  11  12
ATOM     12  C   UNL     1      48.593   5.653  18.122  0.00  0.00    +0.000 A 
ATOM     13  C   UNL     1      49.642   4.727  18.043  0.00  0.00    +0.000 A 
ATOM     14  C   UNL     1      49.371   3.402  17.728  0.00  0.00    +0.000 A 
ATOM     15  C   UNL     1      48.056   3.035  17.499  0.00  0.00    +0.000 A 
ATOM     16  N   UNL     1      47.018   3.897  17.558  0.00  0.00    +0.000 NA
ATOM     17  C   UNL     1      47.310   5.182  17.866  0.00  0.00    +0.000 A 
ENDBRANCH  11  12
ENDBRANCH   8  11
ENDBRANCH   5   8
ENDBRANCH   1   2
BRANCH   1  20
ATOM     18  O   UNL     1      44.949   7.482  12.295  0.00  0.00    +0.000 OA
ATOM     19  C   UNL     1      45.600   6.498  11.956  0.00  0.00    +0.000 C 
ATOM     20  N   UNL     1      46.954   6.552  11.768  0.00  0.00    +0.000 N 
ATOM     21  H   UNL     1      47.471   5.718  11.522  0.00  0.00    +0.000 HD
BRANCH  19  22
ATOM     22  C   UNL     1      44.967   5.204  11.680  0.00  0.00    +0.000 A 
ATOM     23  C   UNL     1      44.260   4.548  12.679  0.00  0.00    +0.000 A 
ATOM     24  S   UNL     1      43.592   3.062  12.167  0.00  0.00    +0.000 S 
ATOM     25  C   UNL     1      44.251   3.235  10.607  0.00  0.00    +0.000 A 
ATOM     26  N   UNL     1      44.062   2.281   9.656  0.00  0.00    +0.000 NA
ATOM     27  C   UNL     1      44.640   2.530   8.528  0.00  0.00    +0.000 A 
ATOM     28  N   UNL     1      45.390   3.647   8.264  0.00  0.00    +0.000 N 
ATOM     29  C   UNL     1      45.583   4.649   9.182  0.00  0.00    +0.000 A 
ATOM     30  O   UNL     1      46.210   5.662   8.891  0.00  0.00    +0.000 OA
ATOM     31  C   UNL     1      44.962   4.413  10.473  0.00  0.00    +0.000 A 
ATOM     32  H   UNL     1      45.800   3.791   7.353  0.00  0.00    +0.000 HD
ENDBRANCH  19  22
ENDBRANCH   1  20
TORSDOF 7
ENDMDL
