MODEL 1
REMARK VINA RESULT:    -8.324      0.000      0.000
REMARK INTER + INTRA:         -12.240
REMARK INTER:                 -11.244
REMARK INTRA:                  -0.997
REMARK UNBOUND:                -0.997
REMARK  Name = 
REMARK  6 active torsions:
REMARK  status: ('A' for Active; 'I' for Inactive)
REMARK    1  A    between atoms: C_2  and  C_25
REMARK    2  A    between atoms: N_3  and  C_4
REMARK    3  A    between atoms: C_4  and  C_5
REMARK    4  A    between atoms: C_8  and  C_9
REMARK    5  A    between atoms: C_9  and  N_10
REMARK    6  A    between atoms: C_11  and  C_13
REMARK                            x       y       z     vdW  Elec       q    Type
REMARK                         _______ _______ _______ _____ _____    ______ ____
ROOT
ATOM      1  C   UNL     1      45.458   4.026  12.439  0.00  0.00    +0.000 A 
ATOM      2  N   UNL     1      45.477   5.362  12.256  0.00  0.00    +0.000 NA
ATOM      3  C   UNL     1      46.255   6.078  13.090  0.00  0.00    +0.000 A 
ATOM      4  C   UNL     1      47.044   5.525  14.079  0.00  0.00    +0.000 A 
ATOM      5  C   UNL     1      46.969   4.151  14.166  0.00  0.00    +0.000 A 
ATOM      6  N   UNL     1      46.199   3.382  13.363  0.00  0.00    +0.000 NA
ENDROOT
BRANCH   1   7
ATOM      7  C   UNL     1      44.576   3.205  11.518  0.00  0.00    +0.000 C 
BRANCH   7  10
ATOM      8  O   UNL     1      44.330   4.234   8.941  0.00  0.00    +0.000 OA
ATOM      9  C   UNL     1      45.080   3.281   9.117  0.00  0.00    +0.000 C 
ATOM     10  N   UNL     1      45.268   2.687  10.346  0.00  0.00    +0.000 N 
ATOM     11  H   UNL     1      46.037   2.049  10.498  0.00  0.00    +0.000 HD
BRANCH   9  12
ATOM     12  C   UNL     1      45.858   2.731   7.985  0.00  0.00    +0.000 A 
ATOM     13  C   UNL     1      46.151   3.466   6.835  0.00  0.00    +0.000 A 
ATOM     14  C   UNL     1      46.903   2.875   5.820  0.00  0.00    +0.000 A 
ATOM     15  C   UNL     1      47.340   1.571   5.994  0.00  0.00    +0.000 A 
ATOM     16  N   UNL     1      47.085   0.837   7.099  0.00  0.00    +0.000 NA
ATOM     17  C   UNL     1      46.359   1.438   8.077  0.00  0.00    +0.000 A 
ENDBRANCH   9  12
ENDBRANCH   7  10
ENDBRANCH   1   7
BRANCH   4  18
ATOM     18  C   UNL     1      47.915   6.356  14.958  0.00  0.00    +0.000 C 
BRANCH  18  19
ATOM     19  N   UNL     1      48.895   5.587  15.686  0.00  0.00    +0.000 N 
ATOM     20  C   UNL     1      49.081   5.810  17.033  0.00  0.00    +0.000 C 
ATOM     21  O   UNL     1      48.423   6.656  17.634  0.00  0.00    +0.000 OA
ATOM     22  H   UNL     1      49.252   4.730  15.270  0.00  0.00    +0.000 HD
BRANCH  20  23
ATOM     23  C   UNL     1      50.153   5.061  17.703  0.00  0.00    +0.000 A 
ATOM     24  C   UNL     1      51.069   5.728  18.505  0.00  0.00    +0.000 A 
ATOM     25  S   UNL     1      52.408   4.766  18.954  0.00  0.00    +0.000 S 
ATOM     26  C   UNL     1      51.773   3.417  18.137  0.00  0.00    +0.000 A 
ATOM     27  N   UNL     1      52.479   2.260  18.022  0.00  0.00    +0.000 NA
ATOM     28  C   UNL     1      51.847   1.310  17.416  0.00  0.00    +0.000 A 
ATOM     29  N   UNL     1      50.555   1.395  16.961  0.00  0.00    +0.000 N 
ATOM     30  C   UNL     1      49.797   2.532  17.087  0.00  0.00    +0.000 A 
ATOM     31  O   UNL     1      48.612   2.561  16.771  0.00  0.00    +0.000 OA
ATOM     32  C   UNL     1      50.505   3.665  17.643  0.00  0.00    +0.000 A 
ATOM     33  H   UNL     1      50.093   0.588  16.569  0.00  0.00    +0.000 HD
ENDBRANCH  20  23
ENDBRANCH  18  19
ENDBRANCH   4  18
TORSDOF 6
ENDMDL
MODEL 2
REMARK VINA RESULT:    -8.166      2.196      2.576
REMARK INTER + INTRA:         -12.028
REMARK INTER:                 -11.397
REMARK INTRA:                  -0.631
REMARK UNBOUND:                -0.997
REMARK  Name = 
REMARK  6 active torsions:
REMARK  status: ('A' for Active; 'I' for Inactive)
REMARK    1  A    between atoms: C_2  and  C_25
REMARK    2  A    between atoms: N_3  and  C_4
REMARK    3  A    between atoms: C_4  and  C_5
REMARK    4  A    between atoms: C_8  and  C_9
REMARK    5  A    between atoms: C_9  and  N_10
REMARK    6  A    between atoms: C_11  and  C_13
REMARK                            x       y       z     vdW  Elec       q    Type
REMARK                         _______ _______ _______ _____ _____    ______ ____
ROOT
ATOM      1  C   UNL     1      44.782   5.766  11.299  0.00  0.00    +0.000 A 
ATOM      2  N   UNL     1      45.802   5.160  11.941  0.00  0.00    +0.000 NA
ATOM      3  C   UNL     1      46.665   5.957  12.599  0.00  0.00    +0.000 A 
ATOM      4  C   UNL     1      46.543   7.331  12.678  0.00  0.00    +0.000 A 
ATOM      5  C   UNL     1      45.455   7.846  12.006  0.00  0.00    +0.000 A 
ATOM      6  N   UNL     1      44.562   7.095  11.322  0.00  0.00    +0.000 NA
ENDROOT
BRANCH   1   7
ATOM      7  C   UNL     1      43.809   4.884  10.541  0.00  0.00    +0.000 C 
BRANCH   7  10
ATOM      8  O   UNL     1      45.584   5.221   8.421  0.00  0.00    +0.000 OA
ATOM      9  C   UNL     1      45.317   4.080   8.780  0.00  0.00    +0.000 C 
ATOM     10  N   UNL     1      44.445   3.798   9.808  0.00  0.00    +0.000 N 
ATOM     11  H   UNL     1      44.406   2.872  10.212  0.00  0.00    +0.000 HD
BRANCH   9  12
ATOM     12  C   UNL     1      45.963   2.925   8.118  0.00  0.00    +0.000 A 
ATOM     13  C   UNL     1      46.836   3.057   7.036  0.00  0.00    +0.000 A 
ATOM     14  C   UNL     1      47.414   1.917   6.480  0.00  0.00    +0.000 A 
ATOM     15  C   UNL     1      47.102   0.683   7.030  0.00  0.00    +0.000 A 
ATOM     16  N   UNL     1      46.273   0.520   8.084  0.00  0.00    +0.000 NA
ATOM     17  C   UNL     1      45.731   1.648   8.614  0.00  0.00    +0.000 A 
ENDBRANCH   9  12
ENDBRANCH   7  10
ENDBRANCH   1   7
BRANCH   4  18
ATOM     18  C   UNL     1      47.507   8.170  13.446  0.00  0.00    +0.000 C 
BRANCH  18  19
ATOM     19  N   UNL     1      47.672   7.743  14.815  0.00  0.00    +0.000 N 
ATOM     20  C   UNL     1      48.801   7.046  15.185  0.00  0.00    +0.000 C 
ATOM     21  O   UNL     1      49.679   6.777  14.369  0.00  0.00    +0.000 OA
ATOM     22  H   UNL     1      47.094   8.171  15.534  0.00  0.00    +0.000 HD
BRANCH  20  23
ATOM     23  C   UNL     1      48.874   6.560  16.570  0.00  0.00    +0.000 A 
ATOM     24  C   UNL     1      49.511   7.321  17.541  0.00  0.00    +0.000 A 
ATOM     25  S   UNL     1      49.766   6.480  19.007  0.00  0.00    +0.000 S 
ATOM     26  C   UNL     1      48.982   5.096  18.404  0.00  0.00    +0.000 A 
ATOM     27  N   UNL     1      48.940   3.938  19.116  0.00  0.00    +0.000 NA
ATOM     28  C   UNL     1      48.269   2.990  18.550  0.00  0.00    +0.000 A 
ATOM     29  N   UNL     1      47.594   3.111  17.361  0.00  0.00    +0.000 N 
ATOM     30  C   UNL     1      47.583   4.272  16.628  0.00  0.00    +0.000 A 
ATOM     31  O   UNL     1      46.891   4.399  15.623  0.00  0.00    +0.000 OA
ATOM     32  C   UNL     1      48.427   5.322  17.157  0.00  0.00    +0.000 A 
ATOM     33  H   UNL     1      47.022   2.355  17.014  0.00  0.00    +0.000 HD
ENDBRANCH  20  23
ENDBRANCH  18  19
ENDBRANCH   4  18
TORSDOF 6
ENDMDL
MODEL 3
REMARK VINA RESULT:    -7.562      2.353      3.481
REMARK INTER + INTRA:         -11.212
REMARK INTER:                 -10.286
REMARK INTRA:                  -0.926
REMARK UNBOUND:                -0.997
REMARK  Name = 
REMARK  6 active torsions:
REMARK  status: ('A' for Active; 'I' for Inactive)
REMARK    1  A    between atoms: C_2  and  C_25
REMARK    2  A    between atoms: N_3  and  C_4
REMARK    3  A    between atoms: C_4  and  C_5
REMARK    4  A    between atoms: C_8  and  C_9
REMARK    5  A    between atoms: C_9  and  N_10
REMARK    6  A    between atoms: C_11  and  C_13
REMARK                            x       y       z     vdW  Elec       q    Type
REMARK                         _______ _______ _______ _____ _____    ______ ____
ROOT
ATOM      1  C   UNL     1      45.620   4.449  12.362  0.00  0.00    +0.000 A 
ATOM      2  N   UNL     1      45.922   5.646  11.818  0.00  0.00    +0.000 NA
ATOM      3  C   UNL     1      46.722   6.456  12.538  0.00  0.00    +0.000 A 
ATOM      4  C   UNL     1      47.265   6.118  13.762  0.00  0.00    +0.000 A 
ATOM      5  C   UNL     1      46.912   4.864  14.216  0.00  0.00    +0.000 A 
ATOM      6  N   UNL     1      46.106   4.014  13.541  0.00  0.00    +0.000 NA
ENDROOT
BRANCH   1   7
ATOM      7  C   UNL     1      44.709   3.531  11.570  0.00  0.00    +0.000 C 
BRANCH   7  10
ATOM      8  O   UNL     1      44.293   4.256   8.913  0.00  0.00    +0.000 OA
ATOM      9  C   UNL     1      45.083   3.349   9.152  0.00  0.00    +0.000 C 
ATOM     10  N   UNL     1      45.355   2.902  10.426  0.00  0.00    +0.000 N 
ATOM     11  H   UNL     1      46.152   2.307  10.604  0.00  0.00    +0.000 HD
BRANCH   9  12
ATOM     12  C   UNL     1      45.817   2.696   8.045  0.00  0.00    +0.000 A 
ATOM     13  C   UNL     1      46.172   3.361   6.870  0.00  0.00    +0.000 A 
ATOM     14  C   UNL     1      46.877   2.674   5.882  0.00  0.00    +0.000 A 
ATOM     15  C   UNL     1      47.207   1.346   6.109  0.00  0.00    +0.000 A 
ATOM     16  N   UNL     1      46.892   0.678   7.239  0.00  0.00    +0.000 NA
ATOM     17  C   UNL     1      46.213   1.372   8.189  0.00  0.00    +0.000 A 
ENDBRANCH   9  12
ENDBRANCH   7  10
ENDBRANCH   1   7
BRANCH   4  18
ATOM     18  C   UNL     1      48.171   7.036  14.509  0.00  0.00    +0.000 C 
BRANCH  18  19
ATOM     19  N   UNL     1      48.126   6.847  15.939  0.00  0.00    +0.000 N 
ATOM     20  C   UNL     1      49.194   6.269  16.590  0.00  0.00    +0.000 C 
ATOM     21  O   UNL     1      50.195   5.909  15.975  0.00  0.00    +0.000 OA
ATOM     22  H   UNL     1      47.434   7.360  16.479  0.00  0.00    +0.000 HD
BRANCH  20  23
ATOM     23  C   UNL     1      49.056   6.019  18.031  0.00  0.00    +0.000 A 
ATOM     24  C   UNL     1      49.336   4.761  18.549  0.00  0.00    +0.000 A 
ATOM     25  S   UNL     1      48.838   4.566  20.172  0.00  0.00    +0.000 S 
ATOM     26  C   UNL     1      48.288   6.174  20.246  0.00  0.00    +0.000 A 
ATOM     27  N   UNL     1      47.631   6.650  21.337  0.00  0.00    +0.000 NA
ATOM     28  C   UNL     1      47.317   7.901  21.266  0.00  0.00    +0.000 A 
ATOM     29  N   UNL     1      47.645   8.732  20.224  0.00  0.00    +0.000 N 
ATOM     30  C   UNL     1      48.337   8.300  19.119  0.00  0.00    +0.000 A 
ATOM     31  O   UNL     1      48.714   9.074  18.246  0.00  0.00    +0.000 OA
ATOM     32  C   UNL     1      48.597   6.877  19.095  0.00  0.00    +0.000 A 
ATOM     33  H   UNL     1      47.440   9.719  20.268  0.00  0.00    +0.000 HD
ENDBRANCH  20  23
ENDBRANCH  18  19
ENDBRANCH   4  18
TORSDOF 6
ENDMDL
MODEL 4
REMARK VINA RESULT:    -7.521      2.204      3.003
REMARK INTER + INTRA:         -11.156
REMARK INTER:                 -10.256
REMARK INTRA:                  -0.900
REMARK UNBOUND:                -0.997
REMARK  Name = 
REMARK  6 active torsions:
REMARK  status: ('A' for Active; 'I' for Inactive)
REMARK    1  A    between atoms: C_2  and  C_25
REMARK    2  A    between atoms: N_3  and  C_4
REMARK    3  A    between atoms: C_4  and  C_5
REMARK    4  A    between atoms: C_8  and  C_9
REMARK    5  A    between atoms: C_9  and  N_10
REMARK    6  A    between atoms: C_11  and  C_13
REMARK                            x       y       z     vdW  Elec       q    Type
REMARK                         _______ _______ _______ _____ _____    ______ ____
ROOT
ATOM      1  C   UNL     1      44.868   5.621  11.741  0.00  0.00    +0.000 A 
ATOM      2  N   UNL     1      46.010   5.359  12.409  0.00  0.00    +0.000 NA
ATOM      3  C   UNL     1      46.687   6.418  12.892  0.00  0.00    +0.000 A 
ATOM      4  C   UNL     1      46.265   7.727  12.772  0.00  0.00    +0.000 A 
ATOM      5  C   UNL     1      45.075   7.882  12.092  0.00  0.00    +0.000 A 
ATOM      6  N   UNL     1      44.359   6.858  11.577  0.00  0.00    +0.000 NA
ENDROOT
BRANCH   1   7
ATOM      7  C   UNL     1      44.100   4.441  11.177  0.00  0.00    +0.000 C 
BRANCH   7  10
ATOM      8  O   UNL     1      44.259   4.619   8.402  0.00  0.00    +0.000 OA
ATOM      9  C   UNL     1      44.913   3.750   8.968  0.00  0.00    +0.000 C 
ATOM     10  N   UNL     1      44.899   3.565  10.332  0.00  0.00    +0.000 N 
ATOM     11  H   UNL     1      45.597   2.988  10.781  0.00  0.00    +0.000 HD
BRANCH   9  12
ATOM     12  C   UNL     1      45.790   2.855   8.182  0.00  0.00    +0.000 A 
ATOM     13  C   UNL     1      46.605   3.307   7.142  0.00  0.00    +0.000 A 
ATOM     14  C   UNL     1      47.413   2.397   6.461  0.00  0.00    +0.000 A 
ATOM     15  C   UNL     1      47.382   1.067   6.850  0.00  0.00    +0.000 A 
ATOM     16  N   UNL     1      46.617   0.599   7.859  0.00  0.00    +0.000 NA
ATOM     17  C   UNL     1      45.846   1.506   8.512  0.00  0.00    +0.000 A 
ENDBRANCH   9  12
ENDBRANCH   7  10
ENDBRANCH   1   7
BRANCH   4  18
ATOM     18  C   UNL     1      47.033   8.865  13.352  0.00  0.00    +0.000 C 
BRANCH  18  19
ATOM     19  N   UNL     1      47.299   8.717  14.763  0.00  0.00    +0.000 N 
ATOM     20  C   UNL     1      48.562   8.375  15.192  0.00  0.00    +0.000 C 
ATOM     21  O   UNL     1      49.477   8.193  14.393  0.00  0.00    +0.000 OA
ATOM     22  H   UNL     1      46.636   9.106  15.429  0.00  0.00    +0.000 HD
BRANCH  20  23
ATOM     23  C   UNL     1      48.752   8.149  16.632  0.00  0.00    +0.000 A 
ATOM     24  C   UNL     1      48.745   9.224  17.510  0.00  0.00    +0.000 A 
ATOM     25  S   UNL     1      49.276   8.821  19.084  0.00  0.00    +0.000 S 
ATOM     26  C   UNL     1      49.474   7.189  18.650  0.00  0.00    +0.000 A 
ATOM     27  N   UNL     1      50.018   6.287  19.511  0.00  0.00    +0.000 NA
ATOM     28  C   UNL     1      50.060   5.078  19.057  0.00  0.00    +0.000 A 
ATOM     29  N   UNL     1      49.562   4.680  17.842  0.00  0.00    +0.000 N 
ATOM     30  C   UNL     1      48.975   5.552  16.958  0.00  0.00    +0.000 A 
ATOM     31  O   UNL     1      48.440   5.166  15.924  0.00  0.00    +0.000 OA
ATOM     32  C   UNL     1      49.021   6.939  17.367  0.00  0.00    +0.000 A 
ATOM     33  H   UNL     1      49.553   3.705  17.583  0.00  0.00    +0.000 HD
ENDBRANCH  20  23
ENDBRANCH  18  19
ENDBRANCH   4  18
TORSDOF 6
ENDMDL
MODEL 5
REMARK VINA RESULT:    -7.506      2.966      9.285
REMARK INTER + INTRA:         -11.136
REMARK INTER:                 -10.228
REMARK INTRA:                  -0.908
REMARK UNBOUND:                -0.997
REMARK  Name = 
REMARK  6 active torsions:
REMARK  status: ('A' for Active; 'I' for Inactive)
REMARK    1  A    between atoms: C_2  and  C_25
REMARK    2  A    between atoms: N_3  and  C_4
REMARK    3  A    between atoms: C_4  and  C_5
REMARK    4  A    between atoms: C_8  and  C_9
REMARK    5  A    between atoms: C_9  and  N_10
REMARK    6  A    between atoms: C_11  and  C_13
REMARK                            x       y       z     vdW  Elec       q    Type
REMARK                         _______ _______ _______ _____ _____    ______ ____
ROOT
ATOM      1  C   UNL     1      49.967   7.038  15.469  0.00  0.00    +0.000 A 
ATOM      2  N   UNL     1      50.526   7.849  14.549  0.00  0.00    +0.000 NA
ATOM      3  C   UNL     1      49.884   7.964  13.371  0.00  0.00    +0.000 A 
ATOM      4  C   UNL     1      48.689   7.337  13.076  0.00  0.00    +0.000 A 
ATOM      5  C   UNL     1      48.192   6.550  14.094  0.00  0.00    +0.000 A 
ATOM      6  N   UNL     1      48.799   6.390  15.292  0.00  0.00    +0.000 NA
ENDROOT
BRANCH   1   7
ATOM      7  C   UNL     1      50.685   6.885  16.796  0.00  0.00    +0.000 C 
BRANCH   7  10
ATOM      8  O   UNL     1      49.661   4.707  18.197  0.00  0.00    +0.000 OA
ATOM      9  C   UNL     1      50.758   4.591  17.664  0.00  0.00    +0.000 C 
ATOM     10  N   UNL     1      51.364   5.606  16.957  0.00  0.00    +0.000 N 
ATOM     11  H   UNL     1      52.158   5.418  16.362  0.00  0.00    +0.000 HD
BRANCH   9  12
ATOM     12  C   UNL     1      51.486   3.305  17.738  0.00  0.00    +0.000 A 
ATOM     13  C   UNL     1      52.781   3.191  18.249  0.00  0.00    +0.000 A 
ATOM     14  C   UNL     1      53.389   1.937  18.297  0.00  0.00    +0.000 A 
ATOM     15  C   UNL     1      52.678   0.840  17.835  0.00  0.00    +0.000 A 
ATOM     16  N   UNL     1      51.421   0.913  17.348  0.00  0.00    +0.000 NA
ATOM     17  C   UNL     1      50.847   2.143  17.321  0.00  0.00    +0.000 A 
ENDBRANCH   9  12
ENDBRANCH   7  10
ENDBRANCH   1   7
BRANCH   4  18
ATOM     18  C   UNL     1      47.998   7.520  11.769  0.00  0.00    +0.000 C 
BRANCH  18  19
ATOM     19  N   UNL     1      47.077   6.454  11.453  0.00  0.00    +0.000 N 
ATOM     20  C   UNL     1      45.722   6.701  11.427  0.00  0.00    +0.000 C 
ATOM     21  O   UNL     1      45.275   7.820  11.666  0.00  0.00    +0.000 OA
ATOM     22  H   UNL     1      47.437   5.611  11.012  0.00  0.00    +0.000 HD
BRANCH  20  23
ATOM     23  C   UNL     1      44.828   5.559  11.188  0.00  0.00    +0.000 A 
ATOM     24  C   UNL     1      43.794   5.291  12.074  0.00  0.00    +0.000 A 
ATOM     25  S   UNL     1      43.053   3.773  11.815  0.00  0.00    +0.000 S 
ATOM     26  C   UNL     1      44.056   3.458  10.478  0.00  0.00    +0.000 A 
ATOM     27  N   UNL     1      44.030   2.258   9.838  0.00  0.00    +0.000 NA
ATOM     28  C   UNL     1      44.812   2.186   8.813  0.00  0.00    +0.000 A 
ATOM     29  N   UNL     1      45.580   3.220   8.340  0.00  0.00    +0.000 N 
ATOM     30  C   UNL     1      45.610   4.456   8.935  0.00  0.00    +0.000 A 
ATOM     31  O   UNL     1      46.218   5.401   8.442  0.00  0.00    +0.000 OA
ATOM     32  C   UNL     1      44.849   4.547  10.163  0.00  0.00    +0.000 A 
ATOM     33  H   UNL     1      46.108   3.120   7.485  0.00  0.00    +0.000 HD
ENDBRANCH  20  23
ENDBRANCH  18  19
ENDBRANCH   4  18
TORSDOF 6
ENDMDL
MODEL 6
REMARK VINA RESULT:    -7.356      3.502      8.905
REMARK INTER + INTRA:         -10.933
REMARK INTER:                  -9.959
REMARK INTRA:                  -0.974
REMARK UNBOUND:                -0.997
REMARK  Name = 
REMARK  6 active torsions:
REMARK  status: ('A' for Active; 'I' for Inactive)
REMARK    1  A    between atoms: C_2  and  C_25
REMARK    2  A    between atoms: N_3  and  C_4
REMARK    3  A    between atoms: C_4  and  C_5
REMARK    4  A    between atoms: C_8  and  C_9
REMARK    5  A    between atoms: C_9  and  N_10
REMARK    6  A    between atoms: C_11  and  C_13
REMARK                            x       y       z     vdW  Elec       q    Type
REMARK                         _______ _______ _______ _____ _____    ______ ____
ROOT
ATOM      1  C   UNL     1      49.529   7.533  16.001  0.00  0.00    +0.000 A 
ATOM      2  N   UNL     1      50.080   6.967  14.907  0.00  0.00    +0.000 NA
ATOM      3  C   UNL     1      49.516   7.264  13.721  0.00  0.00    +0.000 A 
ATOM      4  C   UNL     1      48.449   8.126  13.566  0.00  0.00    +0.000 A 
ATOM      5  C   UNL     1      47.978   8.668  14.743  0.00  0.00    +0.000 A 
ATOM      6  N   UNL     1      48.497   8.399  15.961  0.00  0.00    +0.000 NA
ENDROOT
BRANCH   1   7
ATOM      7  C   UNL     1      50.144   7.198  17.347  0.00  0.00    +0.000 C 
BRANCH   7  10
ATOM      8  O   UNL     1      49.015   4.773  18.121  0.00  0.00    +0.000 OA
ATOM      9  C   UNL     1      50.188   4.781  17.765  0.00  0.00    +0.000 C 
ATOM     10  N   UNL     1      50.848   5.924  17.373  0.00  0.00    +0.000 N 
ATOM     11  H   UNL     1      51.736   5.868  16.893  0.00  0.00    +0.000 HD
BRANCH   9  12
ATOM     12  C   UNL     1      50.956   3.517  17.715  0.00  0.00    +0.000 A 
ATOM     13  C   UNL     1      52.275   3.410  18.160  0.00  0.00    +0.000 A 
ATOM     14  C   UNL     1      52.922   2.176  18.091  0.00  0.00    +0.000 A 
ATOM     15  C   UNL     1      52.223   1.092  17.583  0.00  0.00    +0.000 A 
ATOM     16  N   UNL     1      50.943   1.158  17.158  0.00  0.00    +0.000 NA
ATOM     17  C   UNL     1      50.332   2.368  17.245  0.00  0.00    +0.000 A 
ENDBRANCH   9  12
ENDBRANCH   7  10
ENDBRANCH   1   7
BRANCH   4  18
ATOM     18  C   UNL     1      47.878   8.450  12.227  0.00  0.00    +0.000 C 
BRANCH  18  19
ATOM     19  N   UNL     1      47.384   7.292  11.521  0.00  0.00    +0.000 N 
ATOM     20  C   UNL     1      46.057   6.939  11.622  0.00  0.00    +0.000 C 
ATOM     21  O   UNL     1      45.275   7.596  12.306  0.00  0.00    +0.000 OA
ATOM     22  H   UNL     1      47.946   6.902  10.767  0.00  0.00    +0.000 HD
BRANCH  20  23
ATOM     23  C   UNL     1      45.630   5.702  10.955  0.00  0.00    +0.000 A 
ATOM     24  C   UNL     1      45.770   5.570   9.580  0.00  0.00    +0.000 A 
ATOM     25  S   UNL     1      44.956   4.210   8.940  0.00  0.00    +0.000 S 
ATOM     26  C   UNL     1      44.442   3.730  10.488  0.00  0.00    +0.000 A 
ATOM     27  N   UNL     1      43.594   2.681  10.660  0.00  0.00    +0.000 NA
ATOM     28  C   UNL     1      43.331   2.406  11.895  0.00  0.00    +0.000 A 
ATOM     29  N   UNL     1      43.880   3.053  12.974  0.00  0.00    +0.000 N 
ATOM     30  C   UNL     1      44.766   4.094  12.845  0.00  0.00    +0.000 A 
ATOM     31  O   UNL     1      45.328   4.592  13.814  0.00  0.00    +0.000 OA
ATOM     32  C   UNL     1      44.991   4.522  11.481  0.00  0.00    +0.000 A 
ATOM     33  H   UNL     1      43.695   2.735  13.914  0.00  0.00    +0.000 HD
ENDBRANCH  20  23
ENDBRANCH  18  19
ENDBRANCH   4  18
TORSDOF 6
ENDMDL
MODEL 7
REMARK VINA RESULT:    -7.168      2.421      3.941
REMARK INTER + INTRA:         -10.679
REMARK INTER:                  -9.805
REMARK INTRA:                  -0.874
REMARK UNBOUND:                -0.997
REMARK  Name = 
REMARK  6 active torsions:
REMARK  status: ('A' for Active; 'I' for Inactive)
REMARK    1  A    between atoms: C_2  and  C_25
REMARK    2  A    between atoms: N_3  and  C_4
REMARK    3  A    between atoms: C_4  and  C_5
REMARK    4  A    between atoms: C_8  and  C_9
REMARK    5  A    between atoms: C_9  and  N_10
REMARK    6  A    between atoms: C_11  and  C_13
REMARK                            x       y       z     vdW  Elec       q    Type
REMARK                         _______ _______ _______ _____ _____    ______ ____
ROOT
ATOM      1  C   UNL     1      45.487   4.779  11.992  0.00  0.00    +0.000 A 
ATOM      2  N   UNL     1      45.908   5.863  12.675  0.00  0.00    +0.000 NA
ATOM      3  C   UNL     1      46.493   5.639  13.868  0.00  0.00    +0.000 A 
ATOM      4  C   UNL     1      46.710   4.383  14.400  0.00  0.00    +0.000 A 
ATOM      5  C   UNL     1      46.262   3.345  13.611  0.00  0.00    +0.000 A 
ATOM      6  N   UNL     1      45.660   3.510  12.412  0.00  0.00    +0.000 NA
ENDROOT
BRANCH   1   7
ATOM      7  C   UNL     1      44.813   5.014  10.654  0.00  0.00    +0.000 C 
BRANCH   7  10
ATOM      8  O   UNL     1      44.393   2.503   9.525  0.00  0.00    +0.000 OA
ATOM      9  C   UNL     1      45.254   3.224   9.034  0.00  0.00    +0.000 C 
ATOM     10  N   UNL     1      45.552   4.479   9.519  0.00  0.00    +0.000 N 
ATOM     11  H   UNL     1      46.109   5.123   8.975  0.00  0.00    +0.000 HD
BRANCH   9  12
ATOM     12  C   UNL     1      46.011   2.772   7.846  0.00  0.00    +0.000 A 
ATOM     13  C   UNL     1      46.245   3.586   6.736  0.00  0.00    +0.000 A 
ATOM     14  C   UNL     1      46.982   3.085   5.663  0.00  0.00    +0.000 A 
ATOM     15  C   UNL     1      47.464   1.787   5.742  0.00  0.00    +0.000 A 
ATOM     16  N   UNL     1      47.268   0.979   6.805  0.00  0.00    +0.000 NA
ATOM     17  C   UNL     1      46.555   1.493   7.840  0.00  0.00    +0.000 A 
ENDBRANCH   9  12
ENDBRANCH   7  10
ENDBRANCH   1   7
BRANCH   4  18
ATOM     18  C   UNL     1      47.390   4.184  15.711  0.00  0.00    +0.000 C 
BRANCH  18  19
ATOM     19  N   UNL     1      47.726   5.420  16.376  0.00  0.00    +0.000 N 
ATOM     20  C   UNL     1      48.980   5.590  16.919  0.00  0.00    +0.000 C 
ATOM     21  O   UNL     1      49.829   4.705  16.847  0.00  0.00    +0.000 OA
ATOM     22  H   UNL     1      47.137   6.235  16.220  0.00  0.00    +0.000 HD
BRANCH  20  23
ATOM     23  C   UNL     1      49.236   6.832  17.662  0.00  0.00    +0.000 A 
ATOM     24  C   UNL     1      49.817   6.781  18.922  0.00  0.00    +0.000 A 
ATOM     25  S   UNL     1      49.764   8.271  19.757  0.00  0.00    +0.000 S 
ATOM     26  C   UNL     1      49.016   9.038  18.436  0.00  0.00    +0.000 A 
ATOM     27  N   UNL     1      48.581  10.325  18.516  0.00  0.00    +0.000 NA
ATOM     28  C   UNL     1      48.077  10.785  17.419  0.00  0.00    +0.000 A 
ATOM     29  N   UNL     1      48.015  10.092  16.235  0.00  0.00    +0.000 N 
ATOM     30  C   UNL     1      48.473   8.805  16.103  0.00  0.00    +0.000 A 
ATOM     31  O   UNL     1      48.508   8.236  15.017  0.00  0.00    +0.000 OA
ATOM     32  C   UNL     1      48.928   8.202  17.338  0.00  0.00    +0.000 A 
ATOM     33  H   UNL     1      47.683  10.540  15.394  0.00  0.00    +0.000 HD
ENDBRANCH  20  23
ENDBRANCH  18  19
ENDBRANCH   4  18
TORSDOF 6
ENDMDL
MODEL 8
REMARK VINA RESULT:    -6.621      4.356      9.551
REMARK INTER + INTRA:          -9.940
REMARK INTER:                  -8.884
REMARK INTRA:                  -1.056
REMARK UNBOUND:                -0.997
REMARK  Name = 
REMARK  6 active torsions:
REMARK  status: ('A' for Active; 'I' for Inactive)
REMARK    1  A    between atoms: C_2  and  C_25
REMARK    2  A    between atoms: N_3  and  C_4
REMARK    3  A    between atoms: C_4  and  C_5
REMARK    4  A    between atoms: C_8  and  C_9
REMARK    5  A    between atoms: C_9  and  N_10
REMARK    6  A    between atoms: C_11  and  C_13
REMARK                            x       y       z     vdW  Elec       q    Type
REMARK                         _______ _______ _______ _____ _____    ______ ____
ROOT
ATOM      1  C   UNL     1      51.221   2.688  17.673  0.00  0.00    +0.000 A 
ATOM      2  N   UNL     1      50.685   3.824  18.162  0.00  0.00    +0.000 NA
ATOM      3  C   UNL     1      49.401   4.077  17.843  0.00  0.00    +0.000 A 
ATOM      4  C   UNL     1      48.612   3.233  17.086  0.00  0.00    +0.000 A 
ATOM      5  C   UNL     1      49.250   2.089  16.655  0.00  0.00    +0.000 A 
ATOM      6  N   UNL     1      50.538   1.789  16.937  0.00  0.00    +0.000 NA
ENDROOT
BRANCH   1   7
ATOM      7  C   UNL     1      52.670   2.395  18.011  0.00  0.00    +0.000 C 
BRANCH   7  10
ATOM      8  O   UNL     1      54.729   1.070  19.339  0.00  0.00    +0.000 OA
ATOM      9  C   UNL     1      54.097   0.456  18.485  0.00  0.00    +0.000 C 
ATOM     10  N   UNL     1      53.069   1.017  17.761  0.00  0.00    +0.000 N 
ATOM     11  H   UNL     1      52.440   0.436  17.224  0.00  0.00    +0.000 HD
BRANCH   9  12
ATOM     12  C   UNL     1      54.408  -0.964  18.211  0.00  0.00    +0.000 A 
ATOM     13  C   UNL     1      54.218  -1.980  19.150  0.00  0.00    +0.000 A 
ATOM     14  C   UNL     1      54.524  -3.296  18.805  0.00  0.00    +0.000 A 
ATOM     15  C   UNL     1      55.004  -3.550  17.529  0.00  0.00    +0.000 A 
ATOM     16  N   UNL     1      55.187  -2.593  16.594  0.00  0.00    +0.000 NA
ATOM     17  C   UNL     1      54.873  -1.321  16.952  0.00  0.00    +0.000 A 
ENDBRANCH   9  12
ENDBRANCH   7  10
ENDBRANCH   1   7
BRANCH   4  18
ATOM     18  C   UNL     1      47.184   3.539  16.785  0.00  0.00    +0.000 C 
BRANCH  18  19
ATOM     19  N   UNL     1      47.018   4.600  15.820  0.00  0.00    +0.000 N 
ATOM     20  C   UNL     1      47.001   4.309  14.474  0.00  0.00    +0.000 C 
ATOM     21  O   UNL     1      47.123   3.155  14.072  0.00  0.00    +0.000 OA
ATOM     22  H   UNL     1      46.666   5.500  16.138  0.00  0.00    +0.000 HD
BRANCH  20  23
ATOM     23  C   UNL     1      46.919   5.437  13.536  0.00  0.00    +0.000 A 
ATOM     24  C   UNL     1      45.820   5.565  12.697  0.00  0.00    +0.000 A 
ATOM     25  S   UNL     1      46.028   6.745  11.478  0.00  0.00    +0.000 S 
ATOM     26  C   UNL     1      47.567   7.156  12.073  0.00  0.00    +0.000 A 
ATOM     27  N   UNL     1      48.367   8.041  11.419  0.00  0.00    +0.000 NA
ATOM     28  C   UNL     1      49.485   8.288  12.016  0.00  0.00    +0.000 A 
ATOM     29  N   UNL     1      49.854   7.771  13.233  0.00  0.00    +0.000 N 
ATOM     30  C   UNL     1      49.062   6.903  13.942  0.00  0.00    +0.000 A 
ATOM     31  O   UNL     1      49.356   6.532  15.073  0.00  0.00    +0.000 OA
ATOM     32  C   UNL     1      47.856   6.494  13.253  0.00  0.00    +0.000 A 
ATOM     33  H   UNL     1      50.707   8.070  13.682  0.00  0.00    +0.000 HD
ENDBRANCH  20  23
ENDBRANCH  18  19
ENDBRANCH   4  18
TORSDOF 6
ENDMDL
MODEL 9
REMARK VINA RESULT:    -6.585      4.426      8.382
REMARK INTER + INTRA:          -9.891
REMARK INTER:                  -8.887
REMARK INTRA:                  -1.004
REMARK UNBOUND:                -0.997
REMARK  Name = 
REMARK  6 active torsions:
REMARK  status: ('A' for Active; 'I' for Inactive)
REMARK    1  A    between atoms: C_2  and  C_25
REMARK    2  A    between atoms: N_3  and  C_4
REMARK    3  A    between atoms: C_4  and  C_5
REMARK    4  A    between atoms: C_8  and  C_9
REMARK    5  A    between atoms: C_9  and  N_10
REMARK    6  A    between atoms: C_11  and  C_13
REMARK                            x       y       z     vdW  Elec       q    Type
REMARK                         _______ _______ _______ _____ _____    ______ ____
ROOT
ATOM      1  C   UNL     1      47.319   4.295  15.586  0.00  0.00    +0.000 A 
ATOM      2  N   UNL     1      48.085   5.403  15.526  0.00  0.00    +0.000 NA
ATOM      3  C   UNL     1      48.000   6.140  14.402  0.00  0.00    +0.000 A 
ATOM      4  C   UNL     1      47.162   5.844  13.345  0.00  0.00    +0.000 A 
ATOM      5  C   UNL     1      46.406   4.704  13.518  0.00  0.00    +0.000 A 
ATOM      6  N   UNL     1      46.457   3.922  14.620  0.00  0.00    +0.000 NA
ENDROOT
BRANCH   1   7
ATOM      7  C   UNL     1      47.413   3.447  16.840  0.00  0.00    +0.000 C 
BRANCH   7  10
ATOM      8  O   UNL     1      49.317   1.622  15.945  0.00  0.00    +0.000 OA
ATOM      9  C   UNL     1      49.629   2.392  16.846  0.00  0.00    +0.000 C 
ATOM     10  N   UNL     1      48.763   3.326  17.372  0.00  0.00    +0.000 N 
ATOM     11  H   UNL     1      49.107   4.075  17.957  0.00  0.00    +0.000 HD
BRANCH   9  12
ATOM     12  C   UNL     1      51.000   2.366  17.402  0.00  0.00    +0.000 A 
ATOM     13  C   UNL     1      51.696   3.521  17.766  0.00  0.00    +0.000 A 
ATOM     14  C   UNL     1      52.980   3.406  18.296  0.00  0.00    +0.000 A 
ATOM     15  C   UNL     1      53.521   2.139  18.450  0.00  0.00    +0.000 A 
ATOM     16  N   UNL     1      52.870   1.002  18.121  0.00  0.00    +0.000 NA
ATOM     17  C   UNL     1      51.617   1.140  17.615  0.00  0.00    +0.000 A 
ENDBRANCH   9  12
ENDBRANCH   7  10
ENDBRANCH   1   7
BRANCH   4  18
ATOM     18  C   UNL     1      47.079   6.707  12.132  0.00  0.00    +0.000 C 
BRANCH  18  19
ATOM     19  N   UNL     1      48.271   7.489  11.903  0.00  0.00    +0.000 N 
ATOM     20  C   UNL     1      48.225   8.861  12.015  0.00  0.00    +0.000 C 
ATOM     21  O   UNL     1      47.183   9.440  12.311  0.00  0.00    +0.000 OA
ATOM     22  H   UNL     1      49.173   7.019  11.912  0.00  0.00    +0.000 HD
BRANCH  20  23
ATOM     23  C   UNL     1      49.445   9.610  11.683  0.00  0.00    +0.000 A 
ATOM     24  C   UNL     1      49.372  10.726  10.860  0.00  0.00    +0.000 A 
ATOM     25  S   UNL     1      50.900  11.288  10.339  0.00  0.00    +0.000 S 
ATOM     26  C   UNL     1      51.701  10.092  11.244  0.00  0.00    +0.000 A 
ATOM     27  N   UNL     1      53.049   9.926  11.165  0.00  0.00    +0.000 NA
ATOM     28  C   UNL     1      53.519   9.010  11.946  0.00  0.00    +0.000 A 
ATOM     29  N   UNL     1      52.771   8.281  12.835  0.00  0.00    +0.000 N 
ATOM     30  C   UNL     1      51.414   8.441  12.971  0.00  0.00    +0.000 A 
ATOM     31  O   UNL     1      50.775   7.859  13.842  0.00  0.00    +0.000 OA
ATOM     32  C   UNL     1      50.823   9.364  12.026  0.00  0.00    +0.000 A 
ATOM     33  H   UNL     1      53.213   7.638  13.475  0.00  0.00    +0.000 HD
ENDBRANCH  20  23
ENDBRANCH  18  19
ENDBRANCH   4  18
TORSDOF 6
ENDMDL
