MODEL 1
REMARK VINA RESULT:    -7.486      0.000      0.000
REMARK INTER + INTRA:         -12.315
REMARK INTER:                 -10.768
REMARK INTRA:                  -1.547
REMARK UNBOUND:                -1.547
REMARK  Name = 
REMARK  9 active torsions:
REMARK  status: ('A' for Active; 'I' for Inactive)
REMARK    1  A    between atoms: C_1  and  C_2
REMARK    2  A    between atoms: C_6  and  C_7
REMARK    3  A    between atoms: C_7  and  C_8
REMARK    4  A    between atoms: C_8  and  C_9
REMARK    5  A    between atoms: C_9  and  C_10
REMARK    6  A    between atoms: C_13  and  C_14
REMARK    7  A    between atoms: C_14  and  N_15
REMARK    8  A    between atoms: C_16  and  C_18
REMARK    9  A    between atoms: C_25  and  O_26
REMARK                            x       y       z     vdW  Elec       q    Type
REMARK                         _______ _______ _______ _____ _____    ______ ____
ROOT
ATOM      1  C   UNL     1      44.976   5.336  12.473  0.00  0.00    +0.000 A 
ATOM      2  C   UNL     1      46.038   4.851  13.246  0.00  0.00    +0.000 A 
ATOM      3  C   UNL     1      47.266   5.523  13.265  0.00  0.00    +0.000 A 
ATOM      4  C   UNL     1      47.447   6.704  12.531  0.00  0.00    +0.000 A 
ATOM      5  C   UNL     1      46.395   7.164  11.729  0.00  0.00    +0.000 A 
ATOM      6  C   UNL     1      45.172   6.488  11.701  0.00  0.00    +0.000 A 
ENDROOT
BRANCH   1   7
ATOM      7  C   UNL     1      43.630   4.650  12.487  0.00  0.00    +0.000 C 
BRANCH   7   8
ATOM      8  C   UNL     1      43.220   4.053  11.134  0.00  0.00    +0.000 C 
BRANCH   8   9
ATOM      9  C   UNL     1      43.932   2.738  10.802  0.00  0.00    +0.000 C 
BRANCH   9  15
ATOM     10  C   UNL     1      46.866   0.601   7.559  0.00  0.00    +0.000 C 
ATOM     11  C   UNL     1      46.218   1.862   8.038  0.00  0.00    +0.000 A 
ATOM     12  C   UNL     1      46.437   3.071   7.385  0.00  0.00    +0.000 A 
ATOM     13  C   UNL     1      45.813   4.215   7.869  0.00  0.00    +0.000 A 
ATOM     14  C   UNL     1      44.992   4.125   8.988  0.00  0.00    +0.000 A 
ATOM     15  C   UNL     1      44.824   2.883   9.593  0.00  0.00    +0.000 A 
ATOM     16  N   UNL     1      45.418   1.758   9.128  0.00  0.00    +0.000 NA
ENDBRANCH   9  15
ENDBRANCH   8   9
ENDBRANCH   7   8
ENDBRANCH   1   7
BRANCH   4  17
ATOM     17  C   UNL     1      48.757   7.448  12.571  0.00  0.00    +0.000 C 
BRANCH  17  18
ATOM     18  N   UNL     1      49.609   6.935  13.610  0.00  0.00    +0.000 N 
ATOM     19  C   UNL     1      49.860   7.643  14.758  0.00  0.00    +0.000 C 
ATOM     20  O   UNL     1      49.492   8.803  14.907  0.00  0.00    +0.000 OA
ATOM     21  H   UNL     1      49.784   5.938  13.602  0.00  0.00    +0.000 HD
BRANCH  19  22
ATOM     22  C   UNL     1      50.632   6.940  15.790  0.00  0.00    +0.000 A 
ATOM     23  C   UNL     1      52.003   7.135  15.888  0.00  0.00    +0.000 A 
ATOM     24  S   UNL     1      52.729   6.224  17.133  0.00  0.00    +0.000 S 
ATOM     25  C   UNL     1      51.230   5.576  17.602  0.00  0.00    +0.000 A 
ATOM     26  N   UNL     1      51.152   4.724  18.640  0.00  0.00    +0.000 NA
ATOM     27  C   UNL     1      49.904   4.317  18.886  0.00  0.00    +0.000 A 
ATOM     28  N   UNL     1      48.791   4.660  18.223  0.00  0.00    +0.000 NA
ATOM     29  C   UNL     1      48.940   5.506  17.203  0.00  0.00    +0.000 A 
ATOM     30  C   UNL     1      50.176   6.023  16.818  0.00  0.00    +0.000 A 
BRANCH  29  31
ATOM     31  O   UNL     1      47.772   5.802  16.563  0.00  0.00    +0.000 OA
ATOM     32  H   UNL     1      47.361   6.406  17.210  0.00  0.00    +0.000 HD
ENDBRANCH  29  31
ENDBRANCH  19  22
ENDBRANCH  17  18
ENDBRANCH   4  17
TORSDOF 8
ENDMDL
MODEL 2
REMARK VINA RESULT:    -7.453      2.198      2.902
REMARK INTER + INTRA:         -12.268
REMARK INTER:                 -11.109
REMARK INTRA:                  -1.159
REMARK UNBOUND:                -1.547
REMARK  Name = 
REMARK  9 active torsions:
REMARK  status: ('A' for Active; 'I' for Inactive)
REMARK    1  A    between atoms: C_1  and  C_2
REMARK    2  A    between atoms: C_6  and  C_7
REMARK    3  A    between atoms: C_7  and  C_8
REMARK    4  A    between atoms: C_8  and  C_9
REMARK    5  A    between atoms: C_9  and  C_10
REMARK    6  A    between atoms: C_13  and  C_14
REMARK    7  A    between atoms: C_14  and  N_15
REMARK    8  A    between atoms: C_16  and  C_18
REMARK    9  A    between atoms: C_25  and  O_26
REMARK                            x       y       z     vdW  Elec       q    Type
REMARK                         _______ _______ _______ _____ _____    ______ ____
ROOT
ATOM      1  C   UNL     1      45.177   4.804  12.242  0.00  0.00    +0.000 A 
ATOM      2  C   UNL     1      45.489   6.157  12.063  0.00  0.00    +0.000 A 
ATOM      3  C   UNL     1      46.554   6.738  12.762  0.00  0.00    +0.000 A 
ATOM      4  C   UNL     1      47.340   5.972  13.634  0.00  0.00    +0.000 A 
ATOM      5  C   UNL     1      47.001   4.629  13.840  0.00  0.00    +0.000 A 
ATOM      6  C   UNL     1      45.931   4.051  13.151  0.00  0.00    +0.000 A 
ENDROOT
BRANCH   1   7
ATOM      7  C   UNL     1      44.065   4.153  11.454  0.00  0.00    +0.000 C 
BRANCH   7   8
ATOM      8  C   UNL     1      44.554   3.252  10.312  0.00  0.00    +0.000 C 
BRANCH   8   9
ATOM      9  C   UNL     1      44.882   4.016   9.025  0.00  0.00    +0.000 C 
BRANCH   9  15
ATOM     10  C   UNL     1      46.711  -0.310   7.747  0.00  0.00    +0.000 C 
ATOM     11  C   UNL     1      46.701   1.170   7.531  0.00  0.00    +0.000 A 
ATOM     12  C   UNL     1      47.519   1.759   6.572  0.00  0.00    +0.000 A 
ATOM     13  C   UNL     1      47.473   3.139   6.410  0.00  0.00    +0.000 A 
ATOM     14  C   UNL     1      46.619   3.893   7.206  0.00  0.00    +0.000 A 
ATOM     15  C   UNL     1      45.833   3.238   8.149  0.00  0.00    +0.000 A 
ATOM     16  N   UNL     1      45.860   1.893   8.312  0.00  0.00    +0.000 NA
ENDBRANCH   9  15
ENDBRANCH   8   9
ENDBRANCH   7   8
ENDBRANCH   1   7
BRANCH   4  17
ATOM     17  C   UNL     1      48.507   6.586  14.366  0.00  0.00    +0.000 C 
BRANCH  17  18
ATOM     18  N   UNL     1      48.171   6.852  15.739  0.00  0.00    +0.000 N 
ATOM     19  C   UNL     1      48.851   6.269  16.777  0.00  0.00    +0.000 C 
ATOM     20  O   UNL     1      49.684   5.385  16.603  0.00  0.00    +0.000 OA
ATOM     21  H   UNL     1      47.624   7.685  15.919  0.00  0.00    +0.000 HD
BRANCH  19  22
ATOM     22  C   UNL     1      48.495   6.738  18.122  0.00  0.00    +0.000 A 
ATOM     23  C   UNL     1      48.100   8.054  18.319  0.00  0.00    +0.000 A 
ATOM     24  S   UNL     1      47.743   8.417  19.947  0.00  0.00    +0.000 S 
ATOM     25  C   UNL     1      48.065   6.819  20.426  0.00  0.00    +0.000 A 
ATOM     26  N   UNL     1      47.926   6.455  21.715  0.00  0.00    +0.000 NA
ATOM     27  C   UNL     1      48.205   5.166  21.923  0.00  0.00    +0.000 A 
ATOM     28  N   UNL     1      48.593   4.261  21.014  0.00  0.00    +0.000 NA
ATOM     29  C   UNL     1      48.714   4.689  19.757  0.00  0.00    +0.000 A 
ATOM     30  C   UNL     1      48.460   6.006  19.374  0.00  0.00    +0.000 A 
BRANCH  29  31
ATOM     31  O   UNL     1      49.127   3.723  18.887  0.00  0.00    +0.000 OA
ATOM     32  H   UNL     1      48.279   3.493  18.461  0.00  0.00    +0.000 HD
ENDBRANCH  29  31
ENDBRANCH  19  22
ENDBRANCH  17  18
ENDBRANCH   4  17
TORSDOF 8
ENDMDL
MODEL 3
REMARK VINA RESULT:    -7.069      3.033      8.266
REMARK INTER + INTRA:         -11.716
REMARK INTER:                  -9.828
REMARK INTRA:                  -1.888
REMARK UNBOUND:                -1.547
REMARK  Name = 
REMARK  9 active torsions:
REMARK  status: ('A' for Active; 'I' for Inactive)
REMARK    1  A    between atoms: C_1  and  C_2
REMARK    2  A    between atoms: C_6  and  C_7
REMARK    3  A    between atoms: C_7  and  C_8
REMARK    4  A    between atoms: C_8  and  C_9
REMARK    5  A    between atoms: C_9  and  C_10
REMARK    6  A    between atoms: C_13  and  C_14
REMARK    7  A    between atoms: C_14  and  N_15
REMARK    8  A    between atoms: C_16  and  C_18
REMARK    9  A    between atoms: C_25  and  O_26
REMARK                            x       y       z     vdW  Elec       q    Type
REMARK                         _______ _______ _______ _____ _____    ______ ____
ROOT
ATOM      1  C   UNL     1      49.873   8.289  15.416  0.00  0.00    +0.000 A 
ATOM      2  C   UNL     1      48.548   8.739  15.438  0.00  0.00    +0.000 A 
ATOM      3  C   UNL     1      47.756   8.671  14.286  0.00  0.00    +0.000 A 
ATOM      4  C   UNL     1      48.268   8.132  13.097  0.00  0.00    +0.000 A 
ATOM      5  C   UNL     1      49.605   7.718  13.068  0.00  0.00    +0.000 A 
ATOM      6  C   UNL     1      50.399   7.796  14.215  0.00  0.00    +0.000 A 
ENDROOT
BRANCH   1   7
ATOM      7  C   UNL     1      50.720   8.306  16.667  0.00  0.00    +0.000 C 
BRANCH   7   8
ATOM      8  C   UNL     1      50.192   7.407  17.792  0.00  0.00    +0.000 C 
BRANCH   8   9
ATOM      9  C   UNL     1      50.660   5.952  17.686  0.00  0.00    +0.000 C 
BRANCH   9  15
ATOM     10  C   UNL     1      46.987   4.566  14.807  0.00  0.00    +0.000 C 
ATOM     11  C   UNL     1      47.751   4.345  16.075  0.00  0.00    +0.000 A 
ATOM     12  C   UNL     1      47.396   3.330  16.956  0.00  0.00    +0.000 A 
ATOM     13  C   UNL     1      48.137   3.165  18.122  0.00  0.00    +0.000 A 
ATOM     14  C   UNL     1      49.206   4.016  18.378  0.00  0.00    +0.000 A 
ATOM     15  C   UNL     1      49.500   5.014  17.454  0.00  0.00    +0.000 A 
ATOM     16  N   UNL     1      48.793   5.181  16.310  0.00  0.00    +0.000 NA
ENDBRANCH   9  15
ENDBRANCH   8   9
ENDBRANCH   7   8
ENDBRANCH   1   7
BRANCH   4  17
ATOM     17  C   UNL     1      47.410   8.029  11.861  0.00  0.00    +0.000 C 
BRANCH  17  18
ATOM     18  N   UNL     1      46.742   6.756  11.802  0.00  0.00    +0.000 N 
ATOM     19  C   UNL     1      45.381   6.645  11.926  0.00  0.00    +0.000 C 
ATOM     20  O   UNL     1      44.670   7.597  12.233  0.00  0.00    +0.000 OA
ATOM     21  H   UNL     1      47.259   5.991  11.387  0.00  0.00    +0.000 HD
BRANCH  19  22
ATOM     22  C   UNL     1      44.823   5.306  11.707  0.00  0.00    +0.000 A 
ATOM     23  C   UNL     1      44.117   4.671  12.720  0.00  0.00    +0.000 A 
ATOM     24  S   UNL     1      43.561   3.118  12.285  0.00  0.00    +0.000 S 
ATOM     25  C   UNL     1      44.210   3.267  10.722  0.00  0.00    +0.000 A 
ATOM     26  N   UNL     1      44.061   2.273   9.827  0.00  0.00    +0.000 NA
ATOM     27  C   UNL     1      44.618   2.552   8.646  0.00  0.00    +0.000 A 
ATOM     28  N   UNL     1      45.277   3.666   8.299  0.00  0.00    +0.000 NA
ATOM     29  C   UNL     1      45.389   4.609   9.235  0.00  0.00    +0.000 A 
ATOM     30  C   UNL     1      44.864   4.473  10.519  0.00  0.00    +0.000 A 
BRANCH  29  31
ATOM     31  O   UNL     1      46.083   5.709   8.822  0.00  0.00    +0.000 OA
ATOM     32  H   UNL     1      45.435   6.110   8.211  0.00  0.00    +0.000 HD
ENDBRANCH  29  31
ENDBRANCH  19  22
ENDBRANCH  17  18
ENDBRANCH   4  17
TORSDOF 8
ENDMDL
MODEL 4
REMARK VINA RESULT:    -6.838      2.448      4.359
REMARK INTER + INTRA:         -11.383
REMARK INTER:                 -10.077
REMARK INTRA:                  -1.306
REMARK UNBOUND:                -1.547
REMARK  Name = 
REMARK  9 active torsions:
REMARK  status: ('A' for Active; 'I' for Inactive)
REMARK    1  A    between atoms: C_1  and  C_2
REMARK    2  A    between atoms: C_6  and  C_7
REMARK    3  A    between atoms: C_7  and  C_8
REMARK    4  A    between atoms: C_8  and  C_9
REMARK    5  A    between atoms: C_9  and  C_10
REMARK    6  A    between atoms: C_13  and  C_14
REMARK    7  A    between atoms: C_14  and  N_15
REMARK    8  A    between atoms: C_16  and  C_18
REMARK    9  A    between atoms: C_25  and  O_26
REMARK                            x       y       z     vdW  Elec       q    Type
REMARK                         _______ _______ _______ _____ _____    ______ ____
ROOT
ATOM      1  C   UNL     1      47.514   5.879  13.763  0.00  0.00    +0.000 A 
ATOM      2  C   UNL     1      48.112   6.355  14.936  0.00  0.00    +0.000 A 
ATOM      3  C   UNL     1      48.139   5.565  16.091  0.00  0.00    +0.000 A 
ATOM      4  C   UNL     1      47.590   4.274  16.087  0.00  0.00    +0.000 A 
ATOM      5  C   UNL     1      46.959   3.816  14.924  0.00  0.00    +0.000 A 
ATOM      6  C   UNL     1      46.922   4.609  13.774  0.00  0.00    +0.000 A 
ENDROOT
BRANCH   1   7
ATOM      7  C   UNL     1      47.526   6.700  12.496  0.00  0.00    +0.000 C 
BRANCH   7   8
ATOM      8  C   UNL     1      46.136   7.157  12.034  0.00  0.00    +0.000 C 
BRANCH   8   9
ATOM      9  C   UNL     1      45.702   6.548  10.697  0.00  0.00    +0.000 C 
BRANCH   9  15
ATOM     10  C   UNL     1      44.681   2.042   9.163  0.00  0.00    +0.000 C 
ATOM     11  C   UNL     1      44.436   3.119  10.173  0.00  0.00    +0.000 A 
ATOM     12  C   UNL     1      43.543   2.925  11.222  0.00  0.00    +0.000 A 
ATOM     13  C   UNL     1      43.349   3.957  12.134  0.00  0.00    +0.000 A 
ATOM     14  C   UNL     1      44.045   5.150  11.976  0.00  0.00    +0.000 A 
ATOM     15  C   UNL     1      44.917   5.275  10.899  0.00  0.00    +0.000 A 
ATOM     16  N   UNL     1      45.123   4.276  10.007  0.00  0.00    +0.000 NA
ENDBRANCH   9  15
ENDBRANCH   8   9
ENDBRANCH   7   8
ENDBRANCH   1   7
BRANCH   4  17
ATOM     17  C   UNL     1      47.643   3.407  17.319  0.00  0.00    +0.000 C 
BRANCH  17  18
ATOM     18  N   UNL     1      49.003   3.146  17.707  0.00  0.00    +0.000 N 
ATOM     19  C   UNL     1      49.818   2.315  16.981  0.00  0.00    +0.000 C 
ATOM     20  O   UNL     1      49.401   1.641  16.045  0.00  0.00    +0.000 OA
ATOM     21  H   UNL     1      49.425   3.801  18.353  0.00  0.00    +0.000 HD
BRANCH  19  22
ATOM     22  C   UNL     1      51.219   2.251  17.413  0.00  0.00    +0.000 A 
ATOM     23  C   UNL     1      51.873   1.028  17.475  0.00  0.00    +0.000 A 
ATOM     24  S   UNL     1      53.487   1.150  18.013  0.00  0.00    +0.000 S 
ATOM     25  C   UNL     1      53.370   2.841  18.139  0.00  0.00    +0.000 A 
ATOM     26  N   UNL     1      54.430   3.568  18.536  0.00  0.00    +0.000 NA
ATOM     27  C   UNL     1      54.178   4.878  18.571  0.00  0.00    +0.000 A 
ATOM     28  N   UNL     1      53.025   5.493  18.268  0.00  0.00    +0.000 NA
ATOM     29  C   UNL     1      52.015   4.713  17.885  0.00  0.00    +0.000 A 
ATOM     30  C   UNL     1      52.116   3.325  17.796  0.00  0.00    +0.000 A 
BRANCH  29  31
ATOM     31  O   UNL     1      50.869   5.399  17.607  0.00  0.00    +0.000 OA
ATOM     32  H   UNL     1      50.870   5.361  16.631  0.00  0.00    +0.000 HD
ENDBRANCH  29  31
ENDBRANCH  19  22
ENDBRANCH  17  18
ENDBRANCH   4  17
TORSDOF 8
ENDMDL
MODEL 5
REMARK VINA RESULT:    -6.815      1.855      2.533
REMARK INTER + INTRA:         -11.351
REMARK INTER:                  -9.981
REMARK INTRA:                  -1.370
REMARK UNBOUND:                -1.547
REMARK  Name = 
REMARK  9 active torsions:
REMARK  status: ('A' for Active; 'I' for Inactive)
REMARK    1  A    between atoms: C_1  and  C_2
REMARK    2  A    between atoms: C_6  and  C_7
REMARK    3  A    between atoms: C_7  and  C_8
REMARK    4  A    between atoms: C_8  and  C_9
REMARK    5  A    between atoms: C_9  and  C_10
REMARK    6  A    between atoms: C_13  and  C_14
REMARK    7  A    between atoms: C_14  and  N_15
REMARK    8  A    between atoms: C_16  and  C_18
REMARK    9  A    between atoms: C_25  and  O_26
REMARK                            x       y       z     vdW  Elec       q    Type
REMARK                         _______ _______ _______ _____ _____    ______ ____
ROOT
ATOM      1  C   UNL     1      46.053   7.448  11.897  0.00  0.00    +0.000 A 
ATOM      2  C   UNL     1      47.297   6.823  11.753  0.00  0.00    +0.000 A 
ATOM      3  C   UNL     1      48.365   7.167  12.590  0.00  0.00    +0.000 A 
ATOM      4  C   UNL     1      48.202   8.124  13.601  0.00  0.00    +0.000 A 
ATOM      5  C   UNL     1      46.968   8.775  13.717  0.00  0.00    +0.000 A 
ATOM      6  C   UNL     1      45.904   8.440  12.875  0.00  0.00    +0.000 A 
ENDROOT
BRANCH   1   7
ATOM      7  C   UNL     1      44.878   7.047  11.036  0.00  0.00    +0.000 C 
BRANCH   7   8
ATOM      8  C   UNL     1      44.413   5.601  11.247  0.00  0.00    +0.000 C 
BRANCH   8   9
ATOM      9  C   UNL     1      43.649   5.020  10.053  0.00  0.00    +0.000 C 
BRANCH   9  15
ATOM     10  C   UNL     1      46.936   3.903   6.640  0.00  0.00    +0.000 C 
ATOM     11  C   UNL     1      46.029   3.418   7.728  0.00  0.00    +0.000 A 
ATOM     12  C   UNL     1      45.960   2.067   8.052  0.00  0.00    +0.000 A 
ATOM     13  C   UNL     1      45.102   1.666   9.070  0.00  0.00    +0.000 A 
ATOM     14  C   UNL     1      44.336   2.619   9.733  0.00  0.00    +0.000 A 
ATOM     15  C   UNL     1      44.452   3.952   9.351  0.00  0.00    +0.000 A 
ATOM     16  N   UNL     1      45.291   4.358   8.368  0.00  0.00    +0.000 NA
ENDBRANCH   9  15
ENDBRANCH   8   9
ENDBRANCH   7   8
ENDBRANCH   1   7
BRANCH   4  17
ATOM     17  C   UNL     1      49.340   8.476  14.525  0.00  0.00    +0.000 C 
BRANCH  17  18
ATOM     18  N   UNL     1      49.475   7.499  15.572  0.00  0.00    +0.000 N 
ATOM     19  C   UNL     1      48.884   7.664  16.798  0.00  0.00    +0.000 C 
ATOM     20  O   UNL     1      48.327   8.708  17.123  0.00  0.00    +0.000 OA
ATOM     21  H   UNL     1      49.771   6.572  15.292  0.00  0.00    +0.000 HD
BRANCH  19  22
ATOM     22  C   UNL     1      48.989   6.527  17.720  0.00  0.00    +0.000 A 
ATOM     23  C   UNL     1      49.672   6.664  18.921  0.00  0.00    +0.000 A 
ATOM     24  S   UNL     1      49.701   5.234  19.850  0.00  0.00    +0.000 S 
ATOM     25  C   UNL     1      48.770   4.405  18.696  0.00  0.00    +0.000 A 
ATOM     26  N   UNL     1      48.421   3.121  18.899  0.00  0.00    +0.000 NA
ATOM     27  C   UNL     1      47.682   2.621  17.906  0.00  0.00    +0.000 A 
ATOM     28  N   UNL     1      47.287   3.249  16.789  0.00  0.00    +0.000 NA
ATOM     29  C   UNL     1      47.670   4.518  16.650  0.00  0.00    +0.000 A 
ATOM     30  C   UNL     1      48.445   5.187  17.597  0.00  0.00    +0.000 A 
BRANCH  29  31
ATOM     31  O   UNL     1      47.249   5.093  15.486  0.00  0.00    +0.000 OA
ATOM     32  H   UNL     1      47.874   4.692  14.853  0.00  0.00    +0.000 HD
ENDBRANCH  29  31
ENDBRANCH  19  22
ENDBRANCH  17  18
ENDBRANCH   4  17
TORSDOF 8
ENDMDL
MODEL 6
REMARK VINA RESULT:    -6.630      3.488      9.396
REMARK INTER + INTRA:         -11.085
REMARK INTER:                  -9.261
REMARK INTRA:                  -1.824
REMARK UNBOUND:                -1.547
REMARK  Name = 
REMARK  9 active torsions:
REMARK  status: ('A' for Active; 'I' for Inactive)
REMARK    1  A    between atoms: C_1  and  C_2
REMARK    2  A    between atoms: C_6  and  C_7
REMARK    3  A    between atoms: C_7  and  C_8
REMARK    4  A    between atoms: C_8  and  C_9
REMARK    5  A    between atoms: C_9  and  C_10
REMARK    6  A    between atoms: C_13  and  C_14
REMARK    7  A    between atoms: C_14  and  N_15
REMARK    8  A    between atoms: C_16  and  C_18
REMARK    9  A    between atoms: C_25  and  O_26
REMARK                            x       y       z     vdW  Elec       q    Type
REMARK                         _______ _______ _______ _____ _____    ______ ____
ROOT
ATOM      1  C   UNL     1      47.959   5.662  20.555  0.00  0.00    +0.000 A 
ATOM      2  C   UNL     1      47.006   6.064  19.611  0.00  0.00    +0.000 A 
ATOM      3  C   UNL     1      46.955   5.457  18.351  0.00  0.00    +0.000 A 
ATOM      4  C   UNL     1      47.840   4.421  18.019  0.00  0.00    +0.000 A 
ATOM      5  C   UNL     1      48.817   4.048  18.950  0.00  0.00    +0.000 A 
ATOM      6  C   UNL     1      48.875   4.661  20.205  0.00  0.00    +0.000 A 
ENDROOT
BRANCH   1   7
ATOM      7  C   UNL     1      47.990   6.271  21.936  0.00  0.00    +0.000 C 
BRANCH   7   8
ATOM      8  C   UNL     1      47.949   7.804  21.944  0.00  0.00    +0.000 C 
BRANCH   8   9
ATOM      9  C   UNL     1      49.304   8.457  21.652  0.00  0.00    +0.000 C 
BRANCH   9  15
ATOM     10  C   UNL     1      48.073   9.527  17.066  0.00  0.00    +0.000 C 
ATOM     11  C   UNL     1      49.066   8.901  17.994  0.00  0.00    +0.000 A 
ATOM     12  C   UNL     1      50.224   8.305  17.506  0.00  0.00    +0.000 A 
ATOM     13  C   UNL     1      51.116   7.736  18.410  0.00  0.00    +0.000 A 
ATOM     14  C   UNL     1      50.829   7.774  19.769  0.00  0.00    +0.000 A 
ATOM     15  C   UNL     1      49.648   8.382  20.185  0.00  0.00    +0.000 A 
ATOM     16  N   UNL     1      48.775   8.948  19.318  0.00  0.00    +0.000 NA
ENDBRANCH   9  15
ENDBRANCH   8   9
ENDBRANCH   7   8
ENDBRANCH   1   7
BRANCH   4  17
ATOM     17  C   UNL     1      47.770   3.744  16.674  0.00  0.00    +0.000 C 
BRANCH  17  18
ATOM     18  N   UNL     1      47.184   4.613  15.689  0.00  0.00    +0.000 N 
ATOM     19  C   UNL     1      46.931   4.191  14.409  0.00  0.00    +0.000 C 
ATOM     20  O   UNL     1      47.313   3.104  13.988  0.00  0.00    +0.000 OA
ATOM     21  H   UNL     1      46.707   5.436  16.037  0.00  0.00    +0.000 HD
BRANCH  19  22
ATOM     22  C   UNL     1      46.204   5.137  13.553  0.00  0.00    +0.000 A 
ATOM     23  C   UNL     1      46.561   6.479  13.538  0.00  0.00    +0.000 A 
ATOM     24  S   UNL     1      45.594   7.424  12.498  0.00  0.00    +0.000 S 
ATOM     25  C   UNL     1      44.702   6.064  12.009  0.00  0.00    +0.000 A 
ATOM     26  N   UNL     1      43.716   6.188  11.100  0.00  0.00    +0.000 NA
ATOM     27  C   UNL     1      43.122   5.026  10.817  0.00  0.00    +0.000 A 
ATOM     28  N   UNL     1      43.403   3.821  11.333  0.00  0.00    +0.000 NA
ATOM     29  C   UNL     1      44.388   3.770  12.230  0.00  0.00    +0.000 A 
ATOM     30  C   UNL     1      45.108   4.894  12.634  0.00  0.00    +0.000 A 
BRANCH  29  31
ATOM     31  O   UNL     1      44.612   2.519  12.726  0.00  0.00    +0.000 OA
ATOM     32  H   UNL     1      43.798   2.386  13.249  0.00  0.00    +0.000 HD
ENDBRANCH  29  31
ENDBRANCH  19  22
ENDBRANCH  17  18
ENDBRANCH   4  17
TORSDOF 8
ENDMDL
MODEL 7
REMARK VINA RESULT:    -6.464      5.929      8.475
REMARK INTER + INTRA:         -10.845
REMARK INTER:                  -9.613
REMARK INTRA:                  -1.232
REMARK UNBOUND:                -1.547
REMARK  Name = 
REMARK  9 active torsions:
REMARK  status: ('A' for Active; 'I' for Inactive)
REMARK    1  A    between atoms: C_1  and  C_2
REMARK    2  A    between atoms: C_6  and  C_7
REMARK    3  A    between atoms: C_7  and  C_8
REMARK    4  A    between atoms: C_8  and  C_9
REMARK    5  A    between atoms: C_9  and  C_10
REMARK    6  A    between atoms: C_13  and  C_14
REMARK    7  A    between atoms: C_14  and  N_15
REMARK    8  A    between atoms: C_16  and  C_18
REMARK    9  A    between atoms: C_25  and  O_26
REMARK                            x       y       z     vdW  Elec       q    Type
REMARK                         _______ _______ _______ _____ _____    ______ ____
ROOT
ATOM      1  C   UNL     1      44.650  11.786   9.567  0.00  0.00    +0.000 A 
ATOM      2  C   UNL     1      45.801  11.906  10.355  0.00  0.00    +0.000 A 
ATOM      3  C   UNL     1      46.040  11.011  11.404  0.00  0.00    +0.000 A 
ATOM      4  C   UNL     1      45.144   9.965  11.671  0.00  0.00    +0.000 A 
ATOM      5  C   UNL     1      43.975   9.872  10.906  0.00  0.00    +0.000 A 
ATOM      6  C   UNL     1      43.731  10.772   9.865  0.00  0.00    +0.000 A 
ENDROOT
BRANCH   1   7
ATOM      7  C   UNL     1      44.408  12.711   8.398  0.00  0.00    +0.000 C 
BRANCH   7   8
ATOM      8  C   UNL     1      43.427  12.159   7.356  0.00  0.00    +0.000 C 
BRANCH   8   9
ATOM      9  C   UNL     1      44.083  11.240   6.321  0.00  0.00    +0.000 C 
BRANCH   9  15
ATOM     10  C   UNL     1      41.764   8.487   3.044  0.00  0.00    +0.000 C 
ATOM     11  C   UNL     1      42.156   9.861   3.489  0.00  0.00    +0.000 A 
ATOM     12  C   UNL     1      41.776  10.984   2.761  0.00  0.00    +0.000 A 
ATOM     13  C   UNL     1      42.166  12.239   3.215  0.00  0.00    +0.000 A 
ATOM     14  C   UNL     1      42.924  12.341   4.376  0.00  0.00    +0.000 A 
ATOM     15  C   UNL     1      43.273  11.175   5.049  0.00  0.00    +0.000 A 
ATOM     16  N   UNL     1      42.892   9.946   4.624  0.00  0.00    +0.000 NA
ENDBRANCH   9  15
ENDBRANCH   8   9
ENDBRANCH   7   8
ENDBRANCH   1   7
BRANCH   4  17
ATOM     17  C   UNL     1      45.411   8.981  12.780  0.00  0.00    +0.000 C 
BRANCH  17  18
ATOM     18  N   UNL     1      44.882   7.683  12.456  0.00  0.00    +0.000 N 
ATOM     19  C   UNL     1      45.661   6.701  11.899  0.00  0.00    +0.000 C 
ATOM     20  O   UNL     1      46.808   6.910  11.517  0.00  0.00    +0.000 OA
ATOM     21  H   UNL     1      44.013   7.423  12.905  0.00  0.00    +0.000 HD
BRANCH  19  22
ATOM     22  C   UNL     1      45.027   5.385  11.751  0.00  0.00    +0.000 A 
ATOM     23  C   UNL     1      44.383   4.797  12.832  0.00  0.00    +0.000 A 
ATOM     24  S   UNL     1      43.723   3.265  12.473  0.00  0.00    +0.000 S 
ATOM     25  C   UNL     1      44.241   3.364  10.858  0.00  0.00    +0.000 A 
ATOM     26  N   UNL     1      43.973   2.366   9.996  0.00  0.00    +0.000 NA
ATOM     27  C   UNL     1      44.437   2.603   8.767  0.00  0.00    +0.000 A 
ATOM     28  N   UNL     1      45.112   3.682   8.346  0.00  0.00    +0.000 NA
ATOM     29  C   UNL     1      45.347   4.631   9.252  0.00  0.00    +0.000 A 
ATOM     30  C   UNL     1      44.929   4.536  10.579  0.00  0.00    +0.000 A 
BRANCH  29  31
ATOM     31  O   UNL     1      46.051   5.692   8.763  0.00  0.00    +0.000 OA
ATOM     32  H   UNL     1      46.928   5.522   9.157  0.00  0.00    +0.000 HD
ENDBRANCH  29  31
ENDBRANCH  19  22
ENDBRANCH  17  18
ENDBRANCH   4  17
TORSDOF 8
ENDMDL
MODEL 8
REMARK VINA RESULT:    -6.455      3.249      7.802
REMARK INTER + INTRA:         -10.832
REMARK INTER:                  -8.814
REMARK INTRA:                  -2.018
REMARK UNBOUND:                -1.547
REMARK  Name = 
REMARK  9 active torsions:
REMARK  status: ('A' for Active; 'I' for Inactive)
REMARK    1  A    between atoms: C_1  and  C_2
REMARK    2  A    between atoms: C_6  and  C_7
REMARK    3  A    between atoms: C_7  and  C_8
REMARK    4  A    between atoms: C_8  and  C_9
REMARK    5  A    between atoms: C_9  and  C_10
REMARK    6  A    between atoms: C_13  and  C_14
REMARK    7  A    between atoms: C_14  and  N_15
REMARK    8  A    between atoms: C_16  and  C_18
REMARK    9  A    between atoms: C_25  and  O_26
REMARK                            x       y       z     vdW  Elec       q    Type
REMARK                         _______ _______ _______ _____ _____    ______ ____
ROOT
ATOM      1  C   UNL     1      49.647   7.890  18.199  0.00  0.00    +0.000 A 
ATOM      2  C   UNL     1      50.564   7.238  17.366  0.00  0.00    +0.000 A 
ATOM      3  C   UNL     1      50.527   7.434  15.980  0.00  0.00    +0.000 A 
ATOM      4  C   UNL     1      49.588   8.302  15.405  0.00  0.00    +0.000 A 
ATOM      5  C   UNL     1      48.649   8.923  16.238  0.00  0.00    +0.000 A 
ATOM      6  C   UNL     1      48.678   8.719  17.620  0.00  0.00    +0.000 A 
ENDROOT
BRANCH   1   7
ATOM      7  C   UNL     1      49.712   7.730  19.700  0.00  0.00    +0.000 C 
BRANCH   7   8
ATOM      8  C   UNL     1      49.582   6.278  20.179  0.00  0.00    +0.000 C 
BRANCH   8   9
ATOM      9  C   UNL     1      48.210   5.657  19.894  0.00  0.00    +0.000 C 
BRANCH   9  15
ATOM     10  C   UNL     1      50.849   2.416  17.398  0.00  0.00    +0.000 C 
ATOM     11  C   UNL     1      49.535   3.112  17.570  0.00  0.00    +0.000 A 
ATOM     12  C   UNL     1      48.465   2.836  16.726  0.00  0.00    +0.000 A 
ATOM     13  C   UNL     1      47.264   3.509  16.926  0.00  0.00    +0.000 A 
ATOM     14  C   UNL     1      47.164   4.437  17.955  0.00  0.00    +0.000 A 
ATOM     15  C   UNL     1      48.279   4.667  18.757  0.00  0.00    +0.000 A 
ATOM     16  N   UNL     1      49.451   4.012  18.580  0.00  0.00    +0.000 NA
ENDBRANCH   9  15
ENDBRANCH   8   9
ENDBRANCH   7   8
ENDBRANCH   1   7
BRANCH   4  17
ATOM     17  C   UNL     1      49.563   8.540  13.917  0.00  0.00    +0.000 C 
BRANCH  17  18
ATOM     18  N   UNL     1      48.299   8.149  13.353  0.00  0.00    +0.000 N 
ATOM     19  C   UNL     1      48.078   6.882  12.877  0.00  0.00    +0.000 C 
ATOM     20  O   UNL     1      48.977   6.054  12.773  0.00  0.00    +0.000 OA
ATOM     21  H   UNL     1      47.503   8.733  13.577  0.00  0.00    +0.000 HD
BRANCH  19  22
ATOM     22  C   UNL     1      46.703   6.583  12.460  0.00  0.00    +0.000 A 
ATOM     23  C   UNL     1      45.922   7.571  11.875  0.00  0.00    +0.000 A 
ATOM     24  S   UNL     1      44.351   7.042  11.474  0.00  0.00    +0.000 S 
ATOM     25  C   UNL     1      44.683   5.471  12.031  0.00  0.00    +0.000 A 
ATOM     26  N   UNL     1      43.744   4.509  11.953  0.00  0.00    +0.000 NA
ATOM     27  C   UNL     1      44.167   3.333  12.421  0.00  0.00    +0.000 A 
ATOM     28  N   UNL     1      45.371   3.047  12.937  0.00  0.00    +0.000 NA
ATOM     29  C   UNL     1      46.252   4.046  12.987  0.00  0.00    +0.000 A 
ATOM     30  C   UNL     1      45.967   5.335  12.539  0.00  0.00    +0.000 A 
BRANCH  29  31
ATOM     31  O   UNL     1      47.450   3.692  13.536  0.00  0.00    +0.000 OA
ATOM     32  H   UNL     1      48.021   3.711  12.745  0.00  0.00    +0.000 HD
ENDBRANCH  29  31
ENDBRANCH  19  22
ENDBRANCH  17  18
ENDBRANCH   4  17
TORSDOF 8
ENDMDL
MODEL 9
REMARK VINA RESULT:    -6.387      3.636      9.663
REMARK INTER + INTRA:         -10.736
REMARK INTER:                  -9.031
REMARK INTRA:                  -1.704
REMARK UNBOUND:                -1.547
REMARK  Name = 
REMARK  9 active torsions:
REMARK  status: ('A' for Active; 'I' for Inactive)
REMARK    1  A    between atoms: C_1  and  C_2
REMARK    2  A    between atoms: C_6  and  C_7
REMARK    3  A    between atoms: C_7  and  C_8
REMARK    4  A    between atoms: C_8  and  C_9
REMARK    5  A    between atoms: C_9  and  C_10
REMARK    6  A    between atoms: C_13  and  C_14
REMARK    7  A    between atoms: C_14  and  N_15
REMARK    8  A    between atoms: C_16  and  C_18
REMARK    9  A    between atoms: C_25  and  O_26
REMARK                            x       y       z     vdW  Elec       q    Type
REMARK                         _______ _______ _______ _____ _____    ______ ____
ROOT
ATOM      1  C   UNL     1      50.538   4.744  19.546  0.00  0.00    +0.000 A 
ATOM      2  C   UNL     1      49.181   4.649  19.877  0.00  0.00    +0.000 A 
ATOM      3  C   UNL     1      48.257   4.158  18.947  0.00  0.00    +0.000 A 
ATOM      4  C   UNL     1      48.676   3.732  17.678  0.00  0.00    +0.000 A 
ATOM      5  C   UNL     1      50.027   3.865  17.337  0.00  0.00    +0.000 A 
ATOM      6  C   UNL     1      50.949   4.365  18.262  0.00  0.00    +0.000 A 
ENDROOT
BRANCH   1   7
ATOM      7  C   UNL     1      51.553   5.220  20.559  0.00  0.00    +0.000 C 
BRANCH   7   8
ATOM      8  C   UNL     1      51.138   6.493  21.307  0.00  0.00    +0.000 C 
BRANCH   8   9
ATOM      9  C   UNL     1      51.176   7.756  20.440  0.00  0.00    +0.000 C 
BRANCH   9  15
ATOM     10  C   UNL     1      46.731   9.379  21.580  0.00  0.00    +0.000 C 
ATOM     11  C   UNL     1      47.675   8.928  20.510  0.00  0.00    +0.000 A 
ATOM     12  C   UNL     1      47.279   8.886  19.178  0.00  0.00    +0.000 A 
ATOM     13  C   UNL     1      48.193   8.459  18.221  0.00  0.00    +0.000 A 
ATOM     14  C   UNL     1      49.471   8.082  18.616  0.00  0.00    +0.000 A 
ATOM     15  C   UNL     1      49.796   8.143  19.968  0.00  0.00    +0.000 A 
ATOM     16  N   UNL     1      48.919   8.566  20.911  0.00  0.00    +0.000 NA
ENDBRANCH   9  15
ENDBRANCH   8   9
ENDBRANCH   7   8
ENDBRANCH   1   7
BRANCH   4  17
ATOM     17  C   UNL     1      47.689   3.175  16.684  0.00  0.00    +0.000 C 
BRANCH  17  18
ATOM     18  N   UNL     1      47.220   4.202  15.793  0.00  0.00    +0.000 N 
ATOM     19  C   UNL     1      46.998   3.961  14.461  0.00  0.00    +0.000 C 
ATOM     20  O   UNL     1      47.316   2.905  13.924  0.00  0.00    +0.000 OA
ATOM     21  H   UNL     1      46.791   5.013  16.221  0.00  0.00    +0.000 HD
BRANCH  19  22
ATOM     22  C   UNL     1      46.388   5.059  13.702  0.00  0.00    +0.000 A 
ATOM     23  C   UNL     1      46.953   6.327  13.736  0.00  0.00    +0.000 A 
ATOM     24  S   UNL     1      46.097   7.474  12.807  0.00  0.00    +0.000 S 
ATOM     25  C   UNL     1      44.974   6.303  12.303  0.00  0.00    +0.000 A 
ATOM     26  N   UNL     1      43.975   6.635  11.465  0.00  0.00    +0.000 NA
ATOM     27  C   UNL     1      43.190   5.600  11.158  0.00  0.00    +0.000 A 
ATOM     28  N   UNL     1      43.301   4.337  11.592  0.00  0.00    +0.000 NA
ATOM     29  C   UNL     1      44.311   4.077  12.422  0.00  0.00    +0.000 A 
ATOM     30  C   UNL     1      45.221   5.047  12.841  0.00  0.00    +0.000 A 
BRANCH  29  31
ATOM     31  O   UNL     1      44.357   2.778  12.838  0.00  0.00    +0.000 OA
ATOM     32  H   UNL     1      45.264   2.537  12.568  0.00  0.00    +0.000 HD
ENDBRANCH  29  31
ENDBRANCH  19  22
ENDBRANCH  17  18
ENDBRANCH   4  17
TORSDOF 8
ENDMDL
