MODEL 1
REMARK VINA RESULT:    -8.202      0.000      0.000
REMARK INTER + INTRA:         -13.369
REMARK INTER:                 -12.039
REMARK INTRA:                  -1.330
REMARK UNBOUND:                -1.330
REMARK  Name = 
REMARK  9 active torsions:
REMARK  status: ('A' for Active; 'I' for Inactive)
REMARK    1  A    between atoms: C_1  and  O_2
REMARK    2  A    between atoms: O_2  and  C_3
REMARK    3  A    between atoms: C_5  and  C_6
REMARK    4  A    between atoms: C_6  and  O_7
REMARK    5  A    between atoms: O_7  and  C_8
REMARK    6  A    between atoms: C_8  and  C_9
REMARK    7  A    between atoms: C_17  and  C_18
REMARK    8  A    between atoms: C_18  and  N_19
REMARK    9  A    between atoms: C_20  and  C_22
REMARK                            x       y       z     vdW  Elec       q    Type
REMARK                         _______ _______ _______ _____ _____    ______ ____
ROOT
ATOM      1  C   UNL     1      46.700   5.247  12.988  0.00  0.00    +0.000 A 
ATOM      2  C   UNL     1      45.664   4.584  12.323  0.00  0.00    +0.000 A 
ATOM      3  C   UNL     1      44.774   5.283  11.491  0.00  0.00    +0.000 A 
ATOM      4  C   UNL     1      44.932   6.660  11.323  0.00  0.00    +0.000 A 
ATOM      5  C   UNL     1      45.967   7.327  11.974  0.00  0.00    +0.000 A 
ATOM      6  C   UNL     1      46.857   6.633  12.812  0.00  0.00    +0.000 A 
ENDROOT
BRANCH   1   8
ATOM      7  C   UNL     1      47.002   3.912  14.934  0.00  0.00    +0.000 C 
ATOM      8  O   UNL     1      47.572   4.637  13.851  0.00  0.00    +0.000 OA
ENDBRANCH   1   8
BRANCH   3   9
ATOM      9  C   UNL     1      43.625   4.557  10.840  0.00  0.00    +0.000 C 
BRANCH   9  10
ATOM     10  O   UNL     1      43.987   4.089   9.542  0.00  0.00    +0.000 OA
BRANCH  10  11
ATOM     11  C   UNL     1      44.394   2.716   9.553  0.00  0.00    +0.000 C 
BRANCH  11  12
ATOM     12  C   UNL     1      45.452   2.488   8.503  0.00  0.00    +0.000 A 
ATOM     13  C   UNL     1      45.850   3.537   7.674  0.00  0.00    +0.000 A 
ATOM     14  C   UNL     1      46.849   3.310   6.733  0.00  0.00    +0.000 A 
ATOM     15  C   UNL     1      47.425   2.049   6.646  0.00  0.00    +0.000 A 
ATOM     16  C   UNL     1      46.977   1.065   7.510  0.00  0.00    +0.000 A 
ATOM     17  N   UNL     1      46.013   1.254   8.436  0.00  0.00    +0.000 NA
ENDBRANCH  11  12
ENDBRANCH  10  11
ENDBRANCH   9  10
ENDBRANCH   3   9
BRANCH   6  18
ATOM     18  C   UNL     1      48.008   7.393  13.422  0.00  0.00    +0.000 C 
BRANCH  18  19
ATOM     19  N   UNL     1      47.947   7.300  14.862  0.00  0.00    +0.000 N 
ATOM     20  C   UNL     1      49.053   7.063  15.633  0.00  0.00    +0.000 C 
ATOM     21  O   UNL     1      50.140   6.759  15.151  0.00  0.00    +0.000 OA
ATOM     22  H   UNL     1      47.126   7.719  15.287  0.00  0.00    +0.000 HD
BRANCH  20  23
ATOM     23  C   UNL     1      48.857   7.146  17.086  0.00  0.00    +0.000 A 
ATOM     24  C   UNL     1      48.466   8.348  17.662  0.00  0.00    +0.000 A 
ATOM     25  S   UNL     1      48.271   8.263  19.355  0.00  0.00    +0.000 S 
ATOM     26  C   UNL     1      48.663   6.607  19.372  0.00  0.00    +0.000 A 
ATOM     27  N   UNL     1      48.646   5.895  20.531  0.00  0.00    +0.000 NA
ATOM     28  C   UNL     1      48.923   4.643  20.394  0.00  0.00    +0.000 A 
ATOM     29  N   UNL     1      49.231   4.038  19.203  0.00  0.00    +0.000 N 
ATOM     30  C   UNL     1      49.322   4.728  18.015  0.00  0.00    +0.000 A 
ATOM     31  O   UNL     1      49.700   4.175  16.991  0.00  0.00    +0.000 OA
ATOM     32  C   UNL     1      48.972   6.132  18.110  0.00  0.00    +0.000 A 
ATOM     33  H   UNL     1      49.467   3.058  19.164  0.00  0.00    +0.000 HD
ENDBRANCH  20  23
ENDBRANCH  18  19
ENDBRANCH   6  18
TORSDOF 8
ENDMDL
MODEL 2
REMARK VINA RESULT:    -8.034      1.487      2.230
REMARK INTER + INTRA:         -13.122
REMARK INTER:                 -12.012
REMARK INTRA:                  -1.110
REMARK UNBOUND:                -1.330
REMARK  Name = 
REMARK  9 active torsions:
REMARK  status: ('A' for Active; 'I' for Inactive)
REMARK    1  A    between atoms: C_1  and  O_2
REMARK    2  A    between atoms: O_2  and  C_3
REMARK    3  A    between atoms: C_5  and  C_6
REMARK    4  A    between atoms: C_6  and  O_7
REMARK    5  A    between atoms: O_7  and  C_8
REMARK    6  A    between atoms: C_8  and  C_9
REMARK    7  A    between atoms: C_17  and  C_18
REMARK    8  A    between atoms: C_18  and  N_19
REMARK    9  A    between atoms: C_20  and  C_22
REMARK                            x       y       z     vdW  Elec       q    Type
REMARK                         _______ _______ _______ _____ _____    ______ ____
ROOT
ATOM      1  C   UNL     1      45.262   7.616  12.046  0.00  0.00    +0.000 A 
ATOM      2  C   UNL     1      44.340   6.763  11.430  0.00  0.00    +0.000 A 
ATOM      3  C   UNL     1      44.497   5.368  11.483  0.00  0.00    +0.000 A 
ATOM      4  C   UNL     1      45.588   4.827  12.165  0.00  0.00    +0.000 A 
ATOM      5  C   UNL     1      46.506   5.668  12.789  0.00  0.00    +0.000 A 
ATOM      6  C   UNL     1      46.356   7.064  12.735  0.00  0.00    +0.000 A 
ENDROOT
BRANCH   1   8
ATOM      7  C   UNL     1      44.214   9.546  11.133  0.00  0.00    +0.000 C 
ATOM      8  O   UNL     1      45.198   8.983  11.993  0.00  0.00    +0.000 OA
ENDBRANCH   1   8
BRANCH   3   9
ATOM      9  C   UNL     1      43.528   4.474  10.753  0.00  0.00    +0.000 C 
BRANCH   9  10
ATOM     10  O   UNL     1      44.052   4.079   9.486  0.00  0.00    +0.000 OA
BRANCH  10  11
ATOM     11  C   UNL     1      44.395   2.689   9.450  0.00  0.00    +0.000 C 
BRANCH  11  12
ATOM     12  C   UNL     1      45.477   2.457   8.425  0.00  0.00    +0.000 A 
ATOM     13  C   UNL     1      45.878   3.496   7.586  0.00  0.00    +0.000 A 
ATOM     14  C   UNL     1      46.898   3.266   6.668  0.00  0.00    +0.000 A 
ATOM     15  C   UNL     1      47.492   2.011   6.615  0.00  0.00    +0.000 A 
ATOM     16  C   UNL     1      47.040   1.036   7.487  0.00  0.00    +0.000 A 
ATOM     17  N   UNL     1      46.055   1.229   8.390  0.00  0.00    +0.000 NA
ENDBRANCH  11  12
ENDBRANCH  10  11
ENDBRANCH   9  10
ENDBRANCH   3   9
BRANCH   6  18
ATOM     18  C   UNL     1      47.334   7.921  13.501  0.00  0.00    +0.000 C 
BRANCH  18  19
ATOM     19  N   UNL     1      47.676   7.277  14.748  0.00  0.00    +0.000 N 
ATOM     20  C   UNL     1      48.957   6.908  15.060  0.00  0.00    +0.000 C 
ATOM     21  O   UNL     1      49.873   6.954  14.245  0.00  0.00    +0.000 OA
ATOM     22  H   UNL     1      46.997   7.392  15.493  0.00  0.00    +0.000 HD
BRANCH  20  23
ATOM     23  C   UNL     1      49.169   6.402  16.422  0.00  0.00    +0.000 A 
ATOM     24  C   UNL     1      49.858   7.178  17.346  0.00  0.00    +0.000 A 
ATOM     25  S   UNL     1      50.001   6.446  18.880  0.00  0.00    +0.000 S 
ATOM     26  C   UNL     1      49.113   5.085  18.375  0.00  0.00    +0.000 A 
ATOM     27  N   UNL     1      48.833   4.071  19.239  0.00  0.00    +0.000 NA
ATOM     28  C   UNL     1      48.118   3.123  18.735  0.00  0.00    +0.000 A 
ATOM     29  N   UNL     1      47.668   3.087  17.441  0.00  0.00    +0.000 N 
ATOM     30  C   UNL     1      47.977   4.057  16.515  0.00  0.00    +0.000 A 
ATOM     31  O   UNL     1      47.645   3.940  15.343  0.00  0.00    +0.000 OA
ATOM     32  C   UNL     1      48.741   5.170  17.046  0.00  0.00    +0.000 A 
ATOM     33  H   UNL     1      47.135   2.302  17.098  0.00  0.00    +0.000 HD
ENDBRANCH  20  23
ENDBRANCH  18  19
ENDBRANCH   6  18
TORSDOF 8
ENDMDL
MODEL 3
REMARK VINA RESULT:    -7.892      1.081      1.708
REMARK INTER + INTRA:         -12.913
REMARK INTER:                 -11.861
REMARK INTRA:                  -1.052
REMARK UNBOUND:                -1.330
REMARK  Name = 
REMARK  9 active torsions:
REMARK  status: ('A' for Active; 'I' for Inactive)
REMARK    1  A    between atoms: C_1  and  O_2
REMARK    2  A    between atoms: O_2  and  C_3
REMARK    3  A    between atoms: C_5  and  C_6
REMARK    4  A    between atoms: C_6  and  O_7
REMARK    5  A    between atoms: O_7  and  C_8
REMARK    6  A    between atoms: C_8  and  C_9
REMARK    7  A    between atoms: C_17  and  C_18
REMARK    8  A    between atoms: C_18  and  N_19
REMARK    9  A    between atoms: C_20  and  C_22
REMARK                            x       y       z     vdW  Elec       q    Type
REMARK                         _______ _______ _______ _____ _____    ______ ____
ROOT
ATOM      1  C   UNL     1      46.272   6.649  12.480  0.00  0.00    +0.000 A 
ATOM      2  C   UNL     1      45.160   5.992  11.943  0.00  0.00    +0.000 A 
ATOM      3  C   UNL     1      44.958   4.619  12.154  0.00  0.00    +0.000 A 
ATOM      4  C   UNL     1      45.882   3.900  12.916  0.00  0.00    +0.000 A 
ATOM      5  C   UNL     1      46.987   4.547  13.463  0.00  0.00    +0.000 A 
ATOM      6  C   UNL     1      47.196   5.921  13.250  0.00  0.00    +0.000 A 
ENDROOT
BRANCH   1   8
ATOM      7  C   UNL     1      45.510   8.902  12.534  0.00  0.00    +0.000 C 
ATOM      8  O   UNL     1      46.555   7.973  12.273  0.00  0.00    +0.000 OA
ENDBRANCH   1   8
BRANCH   3   9
ATOM      9  C   UNL     1      43.789   3.921  11.508  0.00  0.00    +0.000 C 
BRANCH   9  10
ATOM     10  O   UNL     1      44.010   3.743  10.109  0.00  0.00    +0.000 OA
BRANCH  10  11
ATOM     11  C   UNL     1      44.381   2.398   9.785  0.00  0.00    +0.000 C 
BRANCH  11  12
ATOM     12  C   UNL     1      45.387   2.403   8.660  0.00  0.00    +0.000 A 
ATOM     13  C   UNL     1      45.624   3.575   7.942  0.00  0.00    +0.000 A 
ATOM     14  C   UNL     1      46.578   3.562   6.929  0.00  0.00    +0.000 A 
ATOM     15  C   UNL     1      47.269   2.387   6.663  0.00  0.00    +0.000 A 
ATOM     16  C   UNL     1      46.977   1.270   7.426  0.00  0.00    +0.000 A 
ATOM     17  N   UNL     1      46.061   1.251   8.418  0.00  0.00    +0.000 NA
ENDBRANCH  11  12
ENDBRANCH  10  11
ENDBRANCH   9  10
ENDBRANCH   3   9
BRANCH   6  18
ATOM     18  C   UNL     1      48.364   6.585  13.937  0.00  0.00    +0.000 C 
BRANCH  18  19
ATOM     19  N   UNL     1      48.101   6.693  15.353  0.00  0.00    +0.000 N 
ATOM     20  C   UNL     1      49.072   6.508  16.299  0.00  0.00    +0.000 C 
ATOM     21  O   UNL     1      50.190   6.084  16.023  0.00  0.00    +0.000 OA
ATOM     22  H   UNL     1      47.262   7.209  15.597  0.00  0.00    +0.000 HD
BRANCH  20  23
ATOM     23  C   UNL     1      48.686   6.799  17.686  0.00  0.00    +0.000 A 
ATOM     24  C   UNL     1      48.266   8.077  18.031  0.00  0.00    +0.000 A 
ATOM     25  S   UNL     1      47.843   8.236  19.676  0.00  0.00    +0.000 S 
ATOM     26  C   UNL     1      48.169   6.593  19.976  0.00  0.00    +0.000 A 
ATOM     27  N   UNL     1      47.971   6.053  21.209  0.00  0.00    +0.000 NA
ATOM     28  C   UNL     1      48.218   4.789  21.285  0.00  0.00    +0.000 A 
ATOM     29  N   UNL     1      48.661   4.017  20.244  0.00  0.00    +0.000 N 
ATOM     30  C   UNL     1      48.934   4.529  18.996  0.00  0.00    +0.000 A 
ATOM     31  O   UNL     1      49.426   3.830  18.119  0.00  0.00    +0.000 OA
ATOM     32  C   UNL     1      48.626   5.939  18.846  0.00  0.00    +0.000 A 
ATOM     33  H   UNL     1      48.864   3.037  20.373  0.00  0.00    +0.000 HD
ENDBRANCH  20  23
ENDBRANCH  18  19
ENDBRANCH   6  18
TORSDOF 8
ENDMDL
MODEL 4
REMARK VINA RESULT:    -7.344      1.778      2.759
REMARK INTER + INTRA:         -12.109
REMARK INTER:                 -10.888
REMARK INTRA:                  -1.221
REMARK UNBOUND:                -1.330
REMARK  Name = 
REMARK  9 active torsions:
REMARK  status: ('A' for Active; 'I' for Inactive)
REMARK    1  A    between atoms: C_1  and  O_2
REMARK    2  A    between atoms: O_2  and  C_3
REMARK    3  A    between atoms: C_5  and  C_6
REMARK    4  A    between atoms: C_6  and  O_7
REMARK    5  A    between atoms: O_7  and  C_8
REMARK    6  A    between atoms: C_8  and  C_9
REMARK    7  A    between atoms: C_17  and  C_18
REMARK    8  A    between atoms: C_18  and  N_19
REMARK    9  A    between atoms: C_20  and  C_22
REMARK                            x       y       z     vdW  Elec       q    Type
REMARK                         _______ _______ _______ _____ _____    ______ ____
ROOT
ATOM      1  C   UNL     1      45.819   7.780  12.396  0.00  0.00    +0.000 A 
ATOM      2  C   UNL     1      44.790   7.115  11.721  0.00  0.00    +0.000 A 
ATOM      3  C   UNL     1      44.746   5.712  11.670  0.00  0.00    +0.000 A 
ATOM      4  C   UNL     1      45.745   4.972  12.308  0.00  0.00    +0.000 A 
ATOM      5  C   UNL     1      46.768   5.626  12.990  0.00  0.00    +0.000 A 
ATOM      6  C   UNL     1      46.819   7.030  13.039  0.00  0.00    +0.000 A 
ENDROOT
BRANCH   1   8
ATOM      7  C   UNL     1      44.847   9.911  11.978  0.00  0.00    +0.000 C 
ATOM      8  O   UNL     1      45.951   9.143  12.444  0.00  0.00    +0.000 OA
ENDBRANCH   1   8
BRANCH   3   9
ATOM      9  C   UNL     1      43.665   5.021  10.880  0.00  0.00    +0.000 C 
BRANCH   9  10
ATOM     10  O   UNL     1      44.209   3.970  10.082  0.00  0.00    +0.000 OA
BRANCH  10  11
ATOM     11  C   UNL     1      44.674   4.438   8.811  0.00  0.00    +0.000 C 
BRANCH  11  12
ATOM     12  C   UNL     1      45.635   3.438   8.219  0.00  0.00    +0.000 A 
ATOM     13  C   UNL     1      45.548   2.092   8.575  0.00  0.00    +0.000 A 
ATOM     14  C   UNL     1      46.427   1.183   7.994  0.00  0.00    +0.000 A 
ATOM     15  C   UNL     1      47.362   1.639   7.073  0.00  0.00    +0.000 A 
ATOM     16  C   UNL     1      47.377   2.989   6.769  0.00  0.00    +0.000 A 
ATOM     17  N   UNL     1      46.537   3.895   7.314  0.00  0.00    +0.000 NA
ENDBRANCH  11  12
ENDBRANCH  10  11
ENDBRANCH   9  10
ENDBRANCH   3   9
BRANCH   6  18
ATOM     18  C   UNL     1      47.903   7.679  13.864  0.00  0.00    +0.000 C 
BRANCH  18  19
ATOM     19  N   UNL     1      47.916   7.110  15.191  0.00  0.00    +0.000 N 
ATOM     20  C   UNL     1      49.065   6.679  15.796  0.00  0.00    +0.000 C 
ATOM     21  O   UNL     1      50.135   6.600  15.201  0.00  0.00    +0.000 OA
ATOM     22  H   UNL     1      47.105   7.327  15.761  0.00  0.00    +0.000 HD
BRANCH  20  23
ATOM     23  C   UNL     1      48.939   6.264  17.200  0.00  0.00    +0.000 A 
ATOM     24  C   UNL     1      49.351   4.995  17.584  0.00  0.00    +0.000 A 
ATOM     25  S   UNL     1      49.147   4.686  19.250  0.00  0.00    +0.000 S 
ATOM     26  C   UNL     1      48.538   6.251  19.522  0.00  0.00    +0.000 A 
ATOM     27  N   UNL     1      48.196   6.662  20.773  0.00  0.00    +0.000 NA
ATOM     28  C   UNL     1      47.788   7.884  20.842  0.00  0.00    +0.000 A 
ATOM     29  N   UNL     1      47.676   8.730  19.770  0.00  0.00    +0.000 N 
ATOM     30  C   UNL     1      47.950   8.342  18.479  0.00  0.00    +0.000 A 
ATOM     31  O   UNL     1      47.740   9.093  17.535  0.00  0.00    +0.000 OA
ATOM     32  C   UNL     1      48.459   6.989  18.355  0.00  0.00    +0.000 A 
ATOM     33  H   UNL     1      47.323   9.669  19.884  0.00  0.00    +0.000 HD
ENDBRANCH  20  23
ENDBRANCH  18  19
ENDBRANCH   6  18
TORSDOF 8
ENDMDL
MODEL 5
REMARK VINA RESULT:    -7.014      1.598      2.145
REMARK INTER + INTRA:         -11.624
REMARK INTER:                 -10.101
REMARK INTRA:                  -1.523
REMARK UNBOUND:                -1.330
REMARK  Name = 
REMARK  9 active torsions:
REMARK  status: ('A' for Active; 'I' for Inactive)
REMARK    1  A    between atoms: C_1  and  O_2
REMARK    2  A    between atoms: O_2  and  C_3
REMARK    3  A    between atoms: C_5  and  C_6
REMARK    4  A    between atoms: C_6  and  O_7
REMARK    5  A    between atoms: O_7  and  C_8
REMARK    6  A    between atoms: C_8  and  C_9
REMARK    7  A    between atoms: C_17  and  C_18
REMARK    8  A    between atoms: C_18  and  N_19
REMARK    9  A    between atoms: C_20  and  C_22
REMARK                            x       y       z     vdW  Elec       q    Type
REMARK                         _______ _______ _______ _____ _____    ______ ____
ROOT
ATOM      1  C   UNL     1      47.930   7.208  12.396  0.00  0.00    +0.000 A 
ATOM      2  C   UNL     1      47.011   6.494  11.620  0.00  0.00    +0.000 A 
ATOM      3  C   UNL     1      45.638   6.780  11.678  0.00  0.00    +0.000 A 
ATOM      4  C   UNL     1      45.185   7.797  12.523  0.00  0.00    +0.000 A 
ATOM      5  C   UNL     1      46.093   8.519  13.292  0.00  0.00    +0.000 A 
ATOM      6  C   UNL     1      47.469   8.233  13.241  0.00  0.00    +0.000 A 
ENDROOT
BRANCH   1   8
ATOM      7  C   UNL     1      50.074   7.594  11.439  0.00  0.00    +0.000 C 
ATOM      8  O   UNL     1      49.275   6.950  12.425  0.00  0.00    +0.000 OA
ENDBRANCH   1   8
BRANCH   3   9
ATOM      9  C   UNL     1      44.661   5.952  10.884  0.00  0.00    +0.000 C 
BRANCH   9  10
ATOM     10  O   UNL     1      45.091   4.594  10.804  0.00  0.00    +0.000 OA
BRANCH  10  11
ATOM     11  C   UNL     1      44.326   3.836   9.859  0.00  0.00    +0.000 C 
BRANCH  11  12
ATOM     12  C   UNL     1      45.248   3.201   8.849  0.00  0.00    +0.000 A 
ATOM     13  C   UNL     1      45.896   3.992   7.901  0.00  0.00    +0.000 A 
ATOM     14  C   UNL     1      46.764   3.386   6.998  0.00  0.00    +0.000 A 
ATOM     15  C   UNL     1      46.965   2.014   7.066  0.00  0.00    +0.000 A 
ATOM     16  C   UNL     1      46.288   1.302   8.041  0.00  0.00    +0.000 A 
ATOM     17  N   UNL     1      45.442   1.860   8.933  0.00  0.00    +0.000 NA
ENDBRANCH  11  12
ENDBRANCH  10  11
ENDBRANCH   9  10
ENDBRANCH   3   9
BRANCH   6  18
ATOM     18  C   UNL     1      48.413   9.104  14.032  0.00  0.00    +0.000 C 
BRANCH  18  19
ATOM     19  N   UNL     1      48.936   8.363  15.156  0.00  0.00    +0.000 N 
ATOM     20  C   UNL     1      48.494   8.558  16.437  0.00  0.00    +0.000 C 
ATOM     21  O   UNL     1      47.741   9.478  16.742  0.00  0.00    +0.000 OA
ATOM     22  H   UNL     1      49.407   7.496  14.919  0.00  0.00    +0.000 HD
BRANCH  20  23
ATOM     23  C   UNL     1      49.013   7.627  17.447  0.00  0.00    +0.000 A 
ATOM     24  C   UNL     1      49.598   8.121  18.605  0.00  0.00    +0.000 A 
ATOM     25  S   UNL     1      50.132   6.903  19.674  0.00  0.00    +0.000 S 
ATOM     26  C   UNL     1      49.561   5.673  18.645  0.00  0.00    +0.000 A 
ATOM     27  N   UNL     1      49.671   4.362  18.993  0.00  0.00    +0.000 NA
ATOM     28  C   UNL     1      49.161   3.539  18.140  0.00  0.00    +0.000 A 
ATOM     29  N   UNL     1      48.565   3.905  16.962  0.00  0.00    +0.000 N 
ATOM     30  C   UNL     1      48.486   5.213  16.539  0.00  0.00    +0.000 A 
ATOM     31  O   UNL     1      48.039   5.493  15.434  0.00  0.00    +0.000 OA
ATOM     32  C   UNL     1      49.003   6.181  17.486  0.00  0.00    +0.000 A 
ATOM     33  H   UNL     1      48.209   3.211  16.322  0.00  0.00    +0.000 HD
ENDBRANCH  20  23
ENDBRANCH  18  19
ENDBRANCH   6  18
TORSDOF 8
ENDMDL
MODEL 6
REMARK VINA RESULT:    -6.780      2.212      2.948
REMARK INTER + INTRA:         -11.282
REMARK INTER:                 -10.052
REMARK INTRA:                  -1.229
REMARK UNBOUND:                -1.330
REMARK  Name = 
REMARK  9 active torsions:
REMARK  status: ('A' for Active; 'I' for Inactive)
REMARK    1  A    between atoms: C_1  and  O_2
REMARK    2  A    between atoms: O_2  and  C_3
REMARK    3  A    between atoms: C_5  and  C_6
REMARK    4  A    between atoms: C_6  and  O_7
REMARK    5  A    between atoms: O_7  and  C_8
REMARK    6  A    between atoms: C_8  and  C_9
REMARK    7  A    between atoms: C_17  and  C_18
REMARK    8  A    between atoms: C_18  and  N_19
REMARK    9  A    between atoms: C_20  and  C_22
REMARK                            x       y       z     vdW  Elec       q    Type
REMARK                         _______ _______ _______ _____ _____    ______ ____
ROOT
ATOM      1  C   UNL     1      46.151   7.669  12.341  0.00  0.00    +0.000 A 
ATOM      2  C   UNL     1      45.094   6.754  12.281  0.00  0.00    +0.000 A 
ATOM      3  C   UNL     1      45.288   5.402  12.607  0.00  0.00    +0.000 A 
ATOM      4  C   UNL     1      46.555   4.967  13.001  0.00  0.00    +0.000 A 
ATOM      5  C   UNL     1      47.611   5.872  13.073  0.00  0.00    +0.000 A 
ATOM      6  C   UNL     1      47.423   7.226  12.743  0.00  0.00    +0.000 A 
ENDROOT
BRANCH   1   8
ATOM      7  C   UNL     1      44.760   9.442  11.579  0.00  0.00    +0.000 C 
ATOM      8  O   UNL     1      46.044   8.989  11.991  0.00  0.00    +0.000 OA
ENDBRANCH   1   8
BRANCH   3   9
ATOM      9  C   UNL     1      44.150   4.423  12.468  0.00  0.00    +0.000 C 
BRANCH   9  10
ATOM     10  O   UNL     1      44.432   3.452  11.461  0.00  0.00    +0.000 OA
BRANCH  10  11
ATOM     11  C   UNL     1      44.039   3.893  10.156  0.00  0.00    +0.000 C 
BRANCH  11  12
ATOM     12  C   UNL     1      45.039   3.416   9.133  0.00  0.00    +0.000 A 
ATOM     13  C   UNL     1      45.341   2.059   9.032  0.00  0.00    +0.000 A 
ATOM     14  C   UNL     1      46.246   1.640   8.061  0.00  0.00    +0.000 A 
ATOM     15  C   UNL     1      46.820   2.583   7.218  0.00  0.00    +0.000 A 
ATOM     16  C   UNL     1      46.461   3.910   7.380  0.00  0.00    +0.000 A 
ATOM     17  N   UNL     1      45.585   4.347   8.310  0.00  0.00    +0.000 NA
ENDBRANCH  11  12
ENDBRANCH  10  11
ENDBRANCH   9  10
ENDBRANCH   3   9
BRANCH   6  18
ATOM     18  C   UNL     1      48.582   8.176  12.922  0.00  0.00    +0.000 C 
BRANCH  18  19
ATOM     19  N   UNL     1      49.610   7.548  13.719  0.00  0.00    +0.000 N 
ATOM     20  C   UNL     1      49.961   8.004  14.961  0.00  0.00    +0.000 C 
ATOM     21  O   UNL     1      49.541   9.062  15.418  0.00  0.00    +0.000 OA
ATOM     22  H   UNL     1      49.835   6.594  13.458  0.00  0.00    +0.000 HD
BRANCH  20  23
ATOM     23  C   UNL     1      50.914   7.173  15.708  0.00  0.00    +0.000 A 
ATOM     24  C   UNL     1      52.275   7.436  15.620  0.00  0.00    +0.000 A 
ATOM     25  S   UNL     1      53.236   6.386  16.561  0.00  0.00    +0.000 S 
ATOM     26  C   UNL     1      51.864   5.570  17.150  0.00  0.00    +0.000 A 
ATOM     27  N   UNL     1      51.984   4.558  18.052  0.00  0.00    +0.000 NA
ATOM     28  C   UNL     1      50.863   4.055  18.445  0.00  0.00    +0.000 A 
ATOM     29  N   UNL     1      49.630   4.462  18.007  0.00  0.00    +0.000 N 
ATOM     30  C   UNL     1      49.460   5.437  17.051  0.00  0.00    +0.000 A 
ATOM     31  O   UNL     1      48.350   5.702  16.608  0.00  0.00    +0.000 OA
ATOM     32  C   UNL     1      50.691   6.067  16.612  0.00  0.00    +0.000 A 
ATOM     33  H   UNL     1      48.788   4.010  18.331  0.00  0.00    +0.000 HD
ENDBRANCH  20  23
ENDBRANCH  18  19
ENDBRANCH   6  18
TORSDOF 8
ENDMDL
MODEL 7
REMARK VINA RESULT:    -6.760      3.026      4.371
REMARK INTER + INTRA:         -11.251
REMARK INTER:                 -10.040
REMARK INTRA:                  -1.211
REMARK UNBOUND:                -1.330
REMARK  Name = 
REMARK  9 active torsions:
REMARK  status: ('A' for Active; 'I' for Inactive)
REMARK    1  A    between atoms: C_1  and  O_2
REMARK    2  A    between atoms: O_2  and  C_3
REMARK    3  A    between atoms: C_5  and  C_6
REMARK    4  A    between atoms: C_6  and  O_7
REMARK    5  A    between atoms: O_7  and  C_8
REMARK    6  A    between atoms: C_8  and  C_9
REMARK    7  A    between atoms: C_17  and  C_18
REMARK    8  A    between atoms: C_18  and  N_19
REMARK    9  A    between atoms: C_20  and  C_22
REMARK                            x       y       z     vdW  Elec       q    Type
REMARK                         _______ _______ _______ _____ _____    ______ ____
ROOT
ATOM      1  C   UNL     1      48.473   6.560  15.083  0.00  0.00    +0.000 A 
ATOM      2  C   UNL     1      47.685   6.174  13.994  0.00  0.00    +0.000 A 
ATOM      3  C   UNL     1      46.910   5.004  14.040  0.00  0.00    +0.000 A 
ATOM      4  C   UNL     1      46.924   4.218  15.194  0.00  0.00    +0.000 A 
ATOM      5  C   UNL     1      47.699   4.599  16.287  0.00  0.00    +0.000 A 
ATOM      6  C   UNL     1      48.481   5.766  16.244  0.00  0.00    +0.000 A 
ENDROOT
BRANCH   1   8
ATOM      7  C   UNL     1      48.991   8.686  14.149  0.00  0.00    +0.000 C 
ATOM      8  O   UNL     1      49.290   7.660  15.088  0.00  0.00    +0.000 OA
ENDBRANCH   1   8
BRANCH   3   9
ATOM      9  C   UNL     1      46.122   4.574  12.829  0.00  0.00    +0.000 C 
BRANCH   9  10
ATOM     10  O   UNL     1      45.637   5.706  12.108  0.00  0.00    +0.000 OA
BRANCH  10  11
ATOM     11  C   UNL     1      44.439   5.413  11.379  0.00  0.00    +0.000 C 
BRANCH  11  12
ATOM     12  C   UNL     1      44.755   4.492  10.227  0.00  0.00    +0.000 A 
ATOM     13  C   UNL     1      45.553   4.940   9.175  0.00  0.00    +0.000 A 
ATOM     14  C   UNL     1      45.855   4.063   8.137  0.00  0.00    +0.000 A 
ATOM     15  C   UNL     1      45.358   2.767   8.179  0.00  0.00    +0.000 A 
ATOM     16  C   UNL     1      44.578   2.400   9.263  0.00  0.00    +0.000 A 
ATOM     17  N   UNL     1      44.270   3.226  10.286  0.00  0.00    +0.000 NA
ENDBRANCH  11  12
ENDBRANCH  10  11
ENDBRANCH   9  10
ENDBRANCH   3   9
BRANCH   6  18
ATOM     18  C   UNL     1      49.232   6.173  17.487  0.00  0.00    +0.000 C 
BRANCH  18  19
ATOM     19  N   UNL     1      50.241   5.186  17.794  0.00  0.00    +0.000 N 
ATOM     20  C   UNL     1      51.530   5.286  17.344  0.00  0.00    +0.000 C 
ATOM     21  O   UNL     1      51.879   6.130  16.524  0.00  0.00    +0.000 OA
ATOM     22  H   UNL     1      50.039   4.598  18.595  0.00  0.00    +0.000 HD
BRANCH  20  23
ATOM     23  C   UNL     1      52.474   4.287  17.862  0.00  0.00    +0.000 A 
ATOM     24  C   UNL     1      53.643   4.701  18.486  0.00  0.00    +0.000 A 
ATOM     25  S   UNL     1      54.615   3.413  19.040  0.00  0.00    +0.000 S 
ATOM     26  C   UNL     1      53.488   2.258  18.501  0.00  0.00    +0.000 A 
ATOM     27  N   UNL     1      53.696   0.929  18.703  0.00  0.00    +0.000 NA
ATOM     28  C   UNL     1      52.743   0.168  18.281  0.00  0.00    +0.000 A 
ATOM     29  N   UNL     1      51.606   0.614  17.660  0.00  0.00    +0.000 N 
ATOM     30  C   UNL     1      51.379   1.942  17.379  0.00  0.00    +0.000 A 
ATOM     31  O   UNL     1      50.401   2.293  16.732  0.00  0.00    +0.000 OA
ATOM     32  C   UNL     1      52.401   2.843  17.877  0.00  0.00    +0.000 A 
ATOM     33  H   UNL     1      50.908  -0.033  17.327  0.00  0.00    +0.000 HD
ENDBRANCH  20  23
ENDBRANCH  18  19
ENDBRANCH   6  18
TORSDOF 8
ENDMDL
MODEL 8
REMARK VINA RESULT:    -6.694      3.658      9.492
REMARK INTER + INTRA:         -11.155
REMARK INTER:                  -9.773
REMARK INTRA:                  -1.382
REMARK UNBOUND:                -1.330
REMARK  Name = 
REMARK  9 active torsions:
REMARK  status: ('A' for Active; 'I' for Inactive)
REMARK    1  A    between atoms: C_1  and  O_2
REMARK    2  A    between atoms: O_2  and  C_3
REMARK    3  A    between atoms: C_5  and  C_6
REMARK    4  A    between atoms: C_6  and  O_7
REMARK    5  A    between atoms: O_7  and  C_8
REMARK    6  A    between atoms: C_8  and  C_9
REMARK    7  A    between atoms: C_17  and  C_18
REMARK    8  A    between atoms: C_18  and  N_19
REMARK    9  A    between atoms: C_20  and  C_22
REMARK                            x       y       z     vdW  Elec       q    Type
REMARK                         _______ _______ _______ _____ _____    ______ ____
ROOT
ATOM      1  C   UNL     1      49.517   4.089  17.874  0.00  0.00    +0.000 A 
ATOM      2  C   UNL     1      50.149   4.698  18.962  0.00  0.00    +0.000 A 
ATOM      3  C   UNL     1      49.424   5.481  19.875  0.00  0.00    +0.000 A 
ATOM      4  C   UNL     1      48.050   5.649  19.693  0.00  0.00    +0.000 A 
ATOM      5  C   UNL     1      47.410   5.039  18.617  0.00  0.00    +0.000 A 
ATOM      6  C   UNL     1      48.132   4.258  17.698  0.00  0.00    +0.000 A 
ENDROOT
BRANCH   1   8
ATOM      7  C   UNL     1      50.747   2.123  17.341  0.00  0.00    +0.000 C 
ATOM      8  O   UNL     1      50.169   3.353  16.920  0.00  0.00    +0.000 OA
ENDBRANCH   1   8
BRANCH   3   9
ATOM      9  C   UNL     1      50.140   6.182  21.001  0.00  0.00    +0.000 C 
BRANCH   9  10
ATOM     10  O   UNL     1      49.786   7.563  21.049  0.00  0.00    +0.000 OA
BRANCH  10  11
ATOM     11  C   UNL     1      50.492   8.341  20.076  0.00  0.00    +0.000 C 
BRANCH  11  12
ATOM     12  C   UNL     1      49.528   9.235  19.338  0.00  0.00    +0.000 A 
ATOM     13  C   UNL     1      48.909   8.783  18.173  0.00  0.00    +0.000 A 
ATOM     14  C   UNL     1      48.001   9.615  17.526  0.00  0.00    +0.000 A 
ATOM     15  C   UNL     1      47.732  10.869  18.059  0.00  0.00    +0.000 A 
ATOM     16  C   UNL     1      48.384  11.239  19.222  0.00  0.00    +0.000 A 
ATOM     17  N   UNL     1      49.267  10.454  19.875  0.00  0.00    +0.000 NA
ENDBRANCH  11  12
ENDBRANCH  10  11
ENDBRANCH   9  10
ENDBRANCH   3   9
BRANCH   6  18
ATOM     18  C   UNL     1      47.372   3.553  16.602  0.00  0.00    +0.000 C 
BRANCH  18  19
ATOM     19  N   UNL     1      46.888   4.519  15.643  0.00  0.00    +0.000 N 
ATOM     20  C   UNL     1      46.771   4.237  14.309  0.00  0.00    +0.000 C 
ATOM     21  O   UNL     1      47.214   3.207  13.811  0.00  0.00    +0.000 OA
ATOM     22  H   UNL     1      46.356   5.288  16.037  0.00  0.00    +0.000 HD
BRANCH  20  23
ATOM     23  C   UNL     1      46.124   5.268  13.486  0.00  0.00    +0.000 A 
ATOM     24  C   UNL     1      46.778   6.469  13.244  0.00  0.00    +0.000 A 
ATOM     25  S   UNL     1      45.891   7.543  12.260  0.00  0.00    +0.000 S 
ATOM     26  C   UNL     1      44.620   6.425  12.090  0.00  0.00    +0.000 A 
ATOM     27  N   UNL     1      43.535   6.710  11.319  0.00  0.00    +0.000 NA
ATOM     28  C   UNL     1      42.667   5.758  11.246  0.00  0.00    +0.000 A 
ATOM     29  N   UNL     1      42.778   4.550  11.884  0.00  0.00    +0.000 N 
ATOM     30  C   UNL     1      43.825   4.240  12.722  0.00  0.00    +0.000 A 
ATOM     31  O   UNL     1      43.838   3.193  13.356  0.00  0.00    +0.000 OA
ATOM     32  C   UNL     1      44.851   5.261  12.800  0.00  0.00    +0.000 A 
ATOM     33  H   UNL     1      42.050   3.855  11.810  0.00  0.00    +0.000 HD
ENDBRANCH  20  23
ENDBRANCH  18  19
ENDBRANCH   6  18
TORSDOF 8
ENDMDL
MODEL 9
REMARK VINA RESULT:    -6.664      3.388      9.758
REMARK INTER + INTRA:         -11.110
REMARK INTER:                  -9.457
REMARK INTRA:                  -1.653
REMARK UNBOUND:                -1.330
REMARK  Name = 
REMARK  9 active torsions:
REMARK  status: ('A' for Active; 'I' for Inactive)
REMARK    1  A    between atoms: C_1  and  O_2
REMARK    2  A    between atoms: O_2  and  C_3
REMARK    3  A    between atoms: C_5  and  C_6
REMARK    4  A    between atoms: C_6  and  O_7
REMARK    5  A    between atoms: O_7  and  C_8
REMARK    6  A    between atoms: C_8  and  C_9
REMARK    7  A    between atoms: C_17  and  C_18
REMARK    8  A    between atoms: C_18  and  N_19
REMARK    9  A    between atoms: C_20  and  C_22
REMARK                            x       y       z     vdW  Elec       q    Type
REMARK                         _______ _______ _______ _____ _____    ______ ____
ROOT
ATOM      1  C   UNL     1      47.479   5.263  17.971  0.00  0.00    +0.000 A 
ATOM      2  C   UNL     1      47.076   5.516  19.286  0.00  0.00    +0.000 A 
ATOM      3  C   UNL     1      47.688   6.523  20.050  0.00  0.00    +0.000 A 
ATOM      4  C   UNL     1      48.712   7.286  19.482  0.00  0.00    +0.000 A 
ATOM      5  C   UNL     1      49.113   7.047  18.171  0.00  0.00    +0.000 A 
ATOM      6  C   UNL     1      48.507   6.036  17.404  0.00  0.00    +0.000 A 
ENDROOT
BRANCH   1   8
ATOM      7  C   UNL     1      47.380   2.938  17.477  0.00  0.00    +0.000 C 
ATOM      8  O   UNL     1      46.960   4.266  17.188  0.00  0.00    +0.000 OA
ENDBRANCH   1   8
BRANCH   3   9
ATOM      9  C   UNL     1      47.283   6.731  21.486  0.00  0.00    +0.000 C 
BRANCH   9  10
ATOM     10  O   UNL     1      47.824   7.948  21.998  0.00  0.00    +0.000 OA
BRANCH  10  11
ATOM     11  C   UNL     1      46.834   8.976  22.117  0.00  0.00    +0.000 C 
BRANCH  11  12
ATOM     12  C   UNL     1      47.195  10.137  21.224  0.00  0.00    +0.000 A 
ATOM     13  C   UNL     1      46.546  10.304  20.001  0.00  0.00    +0.000 A 
ATOM     14  C   UNL     1      46.875  11.399  19.208  0.00  0.00    +0.000 A 
ATOM     15  C   UNL     1      47.836  12.296  19.656  0.00  0.00    +0.000 A 
ATOM     16  C   UNL     1      48.428  12.062  20.885  0.00  0.00    +0.000 A 
ATOM     17  N   UNL     1      48.128  11.011  21.679  0.00  0.00    +0.000 NA
ENDBRANCH  11  12
ENDBRANCH  10  11
ENDBRANCH   9  10
ENDBRANCH   3   9
BRANCH   6  18
ATOM     18  C   UNL     1      48.925   5.881  15.963  0.00  0.00    +0.000 C 
BRANCH  18  19
ATOM     19  N   UNL     1      47.765   5.959  15.106  0.00  0.00    +0.000 N 
ATOM     20  C   UNL     1      47.857   6.195  13.761  0.00  0.00    +0.000 C 
ATOM     21  O   UNL     1      48.910   6.510  13.217  0.00  0.00    +0.000 OA
ATOM     22  H   UNL     1      46.924   5.531  15.479  0.00  0.00    +0.000 HD
BRANCH  20  23
ATOM     23  C   UNL     1      46.604   6.096  13.001  0.00  0.00    +0.000 A 
ATOM     24  C   UNL     1      46.043   7.238  12.444  0.00  0.00    +0.000 A 
ATOM     25  S   UNL     1      44.600   6.942  11.585  0.00  0.00    +0.000 S 
ATOM     26  C   UNL     1      44.694   5.271  11.894  0.00  0.00    +0.000 A 
ATOM     27  N   UNL     1      43.764   4.412  11.395  0.00  0.00    +0.000 NA
ATOM     28  C   UNL     1      43.980   3.171  11.672  0.00  0.00    +0.000 A 
ATOM     29  N   UNL     1      45.034   2.709  12.415  0.00  0.00    +0.000 N 
ATOM     30  C   UNL     1      45.965   3.543  12.992  0.00  0.00    +0.000 A 
ATOM     31  O   UNL     1      46.833   3.103  13.734  0.00  0.00    +0.000 OA
ATOM     32  C   UNL     1      45.792   4.946  12.670  0.00  0.00    +0.000 A 
ATOM     33  H   UNL     1      45.133   1.726  12.621  0.00  0.00    +0.000 HD
ENDBRANCH  20  23
ENDBRANCH  18  19
ENDBRANCH   6  18
TORSDOF 8
ENDMDL
