MODEL 1
REMARK VINA RESULT:    -8.593      0.000      0.000
REMARK INTER + INTRA:         -12.791
REMARK INTER:                 -11.607
REMARK INTRA:                  -1.185
REMARK UNBOUND:                -1.185
REMARK  Name = 
REMARK  7 active torsions:
REMARK  status: ('A' for Active; 'I' for Inactive)
REMARK    1  A    between atoms: C_1  and  O_2
REMARK    2  A    between atoms: O_2  and  C_3
REMARK    3  A    between atoms: C_6  and  N_7
REMARK    4  A    between atoms: N_7  and  C_8
REMARK    5  A    between atoms: C_8  and  C_9
REMARK    6  A    between atoms: C_13  and  C_14
REMARK    7  A    between atoms: C_22  and  C_23
REMARK                            x       y       z     vdW  Elec       q    Type
REMARK                         _______ _______ _______ _____ _____    ______ ____
ROOT
ATOM      1  N   UNL     1      43.995   6.715  12.463  0.00  0.00    +0.000 N 
ATOM      2  H   UNL     1      43.388   6.192  13.082  0.00  0.00    +0.000 HD
ENDROOT
BRANCH   1   6
ATOM      3  C   UNL     1      47.936   6.475  13.813  0.00  0.00    +0.000 A 
ATOM      4  C   UNL     1      47.450   7.499  13.015  0.00  0.00    +0.000 A 
ATOM      5  N   UNL     1      46.197   7.569  12.520  0.00  0.00    +0.000 NA
ATOM      6  C   UNL     1      45.341   6.574  12.805  0.00  0.00    +0.000 A 
ATOM      7  C   UNL     1      45.749   5.480  13.555  0.00  0.00    +0.000 A 
ATOM      8  C   UNL     1      47.055   5.416  14.062  0.00  0.00    +0.000 A 
BRANCH   8   9
ATOM      9  C   UNL     1      47.374   4.216  14.900  0.00  0.00    +0.000 C 
ATOM     10  N   UNL     1      47.679   4.392  16.217  0.00  0.00    +0.000 N 
ATOM     11  O   UNL     1      47.360   3.087  14.425  0.00  0.00    +0.000 OA
ATOM     12  H   UNL     1      47.732   5.310  16.642  0.00  0.00    +0.000 HD
ATOM     13  H   UNL     1      47.874   3.571  16.774  0.00  0.00    +0.000 HD
ENDBRANCH   8   9
BRANCH   3  15
ATOM     14  C   UNL     1      49.499   7.552  15.207  0.00  0.00    +0.000 C 
ATOM     15  O   UNL     1      49.210   6.468  14.318  0.00  0.00    +0.000 OA
ENDBRANCH   3  15
ENDBRANCH   1   6
BRANCH   1  16
ATOM     16  C   UNL     1      43.681   6.508  11.055  0.00  0.00    +0.000 C 
BRANCH  16  17
ATOM     17  C   UNL     1      43.755   5.034  10.747  0.00  0.00    +0.000 A 
ATOM     18  C   UNL     1      43.124   4.074  11.534  0.00  0.00    +0.000 A 
ATOM     19  C   UNL     1      43.310   2.740  11.213  0.00  0.00    +0.000 A 
ATOM     20  N   UNL     1      44.077   2.308  10.187  0.00  0.00    +0.000 NA
ATOM     21  C   UNL     1      44.690   3.242   9.416  0.00  0.00    +0.000 A 
ATOM     22  C   UNL     1      44.542   4.602   9.672  0.00  0.00    +0.000 A 
BRANCH  21  23
ATOM     23  C   UNL     1      45.557   2.736   8.333  0.00  0.00    +0.000 A 
ATOM     24  C   UNL     1      45.930   3.542   7.240  0.00  0.00    +0.000 A 
ATOM     25  C   UNL     1      46.785   3.062   6.241  0.00  0.00    +0.000 A 
ATOM     26  C   UNL     1      47.279   1.765   6.313  0.00  0.00    +0.000 A 
ATOM     27  C   UNL     1      46.917   0.943   7.376  0.00  0.00    +0.000 A 
ATOM     28  C   UNL     1      46.065   1.425   8.373  0.00  0.00    +0.000 A 
ENDBRANCH  21  23
ENDBRANCH  16  17
ENDBRANCH   1  16
TORSDOF 6
ENDMDL
MODEL 2
REMARK VINA RESULT:    -7.919      1.628      1.959
REMARK INTER + INTRA:         -11.882
REMARK INTER:                 -10.916
REMARK INTRA:                  -0.965
REMARK UNBOUND:                -1.185
REMARK  Name = 
REMARK  7 active torsions:
REMARK  status: ('A' for Active; 'I' for Inactive)
REMARK    1  A    between atoms: C_1  and  O_2
REMARK    2  A    between atoms: O_2  and  C_3
REMARK    3  A    between atoms: C_6  and  N_7
REMARK    4  A    between atoms: N_7  and  C_8
REMARK    5  A    between atoms: C_8  and  C_9
REMARK    6  A    between atoms: C_13  and  C_14
REMARK    7  A    between atoms: C_22  and  C_23
REMARK                            x       y       z     vdW  Elec       q    Type
REMARK                         _______ _______ _______ _____ _____    ______ ____
ROOT
ATOM      1  N   UNL     1      46.590   5.867  12.628  0.00  0.00    +0.000 N 
ATOM      2  H   UNL     1      46.856   6.669  12.070  0.00  0.00    +0.000 HD
ENDROOT
BRANCH   1   6
ATOM      3  C   UNL     1      48.528   5.743  16.322  0.00  0.00    +0.000 A 
ATOM      4  C   UNL     1      48.642   6.790  15.421  0.00  0.00    +0.000 A 
ATOM      5  N   UNL     1      48.072   6.828  14.199  0.00  0.00    +0.000 NA
ATOM      6  C   UNL     1      47.339   5.774  13.803  0.00  0.00    +0.000 A 
ATOM      7  C   UNL     1      47.207   4.656  14.616  0.00  0.00    +0.000 A 
ATOM      8  C   UNL     1      47.807   4.626  15.883  0.00  0.00    +0.000 A 
BRANCH   8   9
ATOM      9  C   UNL     1      47.559   3.393  16.696  0.00  0.00    +0.000 C 
ATOM     10  N   UNL     1      48.508   2.414  16.717  0.00  0.00    +0.000 N 
ATOM     11  O   UNL     1      46.527   3.252  17.340  0.00  0.00    +0.000 OA
ATOM     12  H   UNL     1      49.362   2.476  16.175  0.00  0.00    +0.000 HD
ATOM     13  H   UNL     1      48.334   1.596  17.284  0.00  0.00    +0.000 HD
ENDBRANCH   8   9
BRANCH   3  15
ATOM     14  C   UNL     1      50.489   5.417  17.586  0.00  0.00    +0.000 C 
ATOM     15  O   UNL     1      49.102   5.769  17.567  0.00  0.00    +0.000 OA
ENDBRANCH   3  15
ENDBRANCH   1   6
BRANCH   1  16
ATOM     16  C   UNL     1      45.147   5.744  12.793  0.00  0.00    +0.000 C 
BRANCH  16  17
ATOM     17  C   UNL     1      44.647   4.622  11.920  0.00  0.00    +0.000 A 
ATOM     18  C   UNL     1      43.593   3.795  12.298  0.00  0.00    +0.000 A 
ATOM     19  C   UNL     1      43.253   2.745  11.461  0.00  0.00    +0.000 A 
ATOM     20  N   UNL     1      43.888   2.465  10.301  0.00  0.00    +0.000 NA
ATOM     21  C   UNL     1      44.913   3.273   9.928  0.00  0.00    +0.000 A 
ATOM     22  C   UNL     1      45.307   4.352  10.714  0.00  0.00    +0.000 A 
BRANCH  21  23
ATOM     23  C   UNL     1      45.616   2.912   8.680  0.00  0.00    +0.000 A 
ATOM     24  C   UNL     1      45.915   3.868   7.691  0.00  0.00    +0.000 A 
ATOM     25  C   UNL     1      46.616   3.520   6.531  0.00  0.00    +0.000 A 
ATOM     26  C   UNL     1      47.028   2.206   6.336  0.00  0.00    +0.000 A 
ATOM     27  C   UNL     1      46.736   1.240   7.292  0.00  0.00    +0.000 A 
ATOM     28  C   UNL     1      46.037   1.590   8.450  0.00  0.00    +0.000 A 
ENDBRANCH  21  23
ENDBRANCH  16  17
ENDBRANCH   1  16
TORSDOF 6
ENDMDL
MODEL 3
REMARK VINA RESULT:    -7.917      1.785      2.321
REMARK INTER + INTRA:         -11.878
REMARK INTER:                 -10.692
REMARK INTRA:                  -1.186
REMARK UNBOUND:                -1.185
REMARK  Name = 
REMARK  7 active torsions:
REMARK  status: ('A' for Active; 'I' for Inactive)
REMARK    1  A    between atoms: C_1  and  O_2
REMARK    2  A    between atoms: O_2  and  C_3
REMARK    3  A    between atoms: C_6  and  N_7
REMARK    4  A    between atoms: N_7  and  C_8
REMARK    5  A    between atoms: C_8  and  C_9
REMARK    6  A    between atoms: C_13  and  C_14
REMARK    7  A    between atoms: C_22  and  C_23
REMARK                            x       y       z     vdW  Elec       q    Type
REMARK                         _______ _______ _______ _____ _____    ______ ____
ROOT
ATOM      1  N   UNL     1      44.268   6.788  12.570  0.00  0.00    +0.000 N 
ATOM      2  H   UNL     1      44.440   5.959  13.125  0.00  0.00    +0.000 HD
ENDROOT
BRANCH   1   6
ATOM      3  C   UNL     1      47.691   9.172  12.432  0.00  0.00    +0.000 A 
ATOM      4  C   UNL     1      46.416   9.626  12.129  0.00  0.00    +0.000 A 
ATOM      5  N   UNL     1      45.304   8.862  12.111  0.00  0.00    +0.000 NA
ATOM      6  C   UNL     1      45.422   7.555  12.399  0.00  0.00    +0.000 A 
ATOM      7  C   UNL     1      46.664   6.997  12.667  0.00  0.00    +0.000 A 
ATOM      8  C   UNL     1      47.815   7.799  12.680  0.00  0.00    +0.000 A 
BRANCH   8   9
ATOM      9  C   UNL     1      49.094   7.104  13.030  0.00  0.00    +0.000 C 
ATOM     10  N   UNL     1      50.150   7.192  12.172  0.00  0.00    +0.000 N 
ATOM     11  O   UNL     1      49.207   6.465  14.068  0.00  0.00    +0.000 OA
ATOM     12  H   UNL     1      50.089   7.685  11.288  0.00  0.00    +0.000 HD
ATOM     13  H   UNL     1      51.012   6.733  12.430  0.00  0.00    +0.000 HD
ENDBRANCH   8   9
BRANCH   3  15
ATOM     14  C   UNL     1      48.587  11.267  11.836  0.00  0.00    +0.000 C 
ATOM     15  O   UNL     1      48.784   9.997  12.468  0.00  0.00    +0.000 OA
ENDBRANCH   3  15
ENDBRANCH   1   6
BRANCH   1  16
ATOM     16  C   UNL     1      43.515   6.509  11.353  0.00  0.00    +0.000 C 
BRANCH  16  17
ATOM     17  C   UNL     1      43.650   5.046  11.018  0.00  0.00    +0.000 A 
ATOM     18  C   UNL     1      43.087   4.045  11.805  0.00  0.00    +0.000 A 
ATOM     19  C   UNL     1      43.327   2.726  11.455  0.00  0.00    +0.000 A 
ATOM     20  N   UNL     1      44.084   2.348  10.401  0.00  0.00    +0.000 NA
ATOM     21  C   UNL     1      44.630   3.322   9.630  0.00  0.00    +0.000 A 
ATOM     22  C   UNL     1      44.426   4.669   9.915  0.00  0.00    +0.000 A 
BRANCH  21  23
ATOM     23  C   UNL     1      45.490   2.876   8.515  0.00  0.00    +0.000 A 
ATOM     24  C   UNL     1      45.887   3.750   7.485  0.00  0.00    +0.000 A 
ATOM     25  C   UNL     1      46.734   3.324   6.455  0.00  0.00    +0.000 A 
ATOM     26  C   UNL     1      47.197   2.013   6.434  0.00  0.00    +0.000 A 
ATOM     27  C   UNL     1      46.811   1.126   7.434  0.00  0.00    +0.000 A 
ATOM     28  C   UNL     1      45.966   1.554   8.461  0.00  0.00    +0.000 A 
ENDBRANCH  21  23
ENDBRANCH  16  17
ENDBRANCH   1  16
TORSDOF 6
ENDMDL
MODEL 4
REMARK VINA RESULT:    -7.775      2.091      3.099
REMARK INTER + INTRA:         -11.687
REMARK INTER:                 -10.577
REMARK INTRA:                  -1.110
REMARK UNBOUND:                -1.185
REMARK  Name = 
REMARK  7 active torsions:
REMARK  status: ('A' for Active; 'I' for Inactive)
REMARK    1  A    between atoms: C_1  and  O_2
REMARK    2  A    between atoms: O_2  and  C_3
REMARK    3  A    between atoms: C_6  and  N_7
REMARK    4  A    between atoms: N_7  and  C_8
REMARK    5  A    between atoms: C_8  and  C_9
REMARK    6  A    between atoms: C_13  and  C_14
REMARK    7  A    between atoms: C_22  and  C_23
REMARK                            x       y       z     vdW  Elec       q    Type
REMARK                         _______ _______ _______ _____ _____    ______ ____
ROOT
ATOM      1  N   UNL     1      44.350   6.660  12.717  0.00  0.00    +0.000 N 
ATOM      2  H   UNL     1      44.279   5.837  13.303  0.00  0.00    +0.000 HD
ENDROOT
BRANCH   1   6
ATOM      3  C   UNL     1      48.204   8.191  12.250  0.00  0.00    +0.000 A 
ATOM      4  C   UNL     1      47.916   6.841  12.388  0.00  0.00    +0.000 A 
ATOM      5  N   UNL     1      46.686   6.328  12.597  0.00  0.00    +0.000 NA
ATOM      6  C   UNL     1      45.647   7.174  12.689  0.00  0.00    +0.000 A 
ATOM      7  C   UNL     1      45.842   8.547  12.614  0.00  0.00    +0.000 A 
ATOM      8  C   UNL     1      47.125   9.071  12.400  0.00  0.00    +0.000 A 
BRANCH   8   9
ATOM      9  C   UNL     1      47.213  10.561  12.285  0.00  0.00    +0.000 C 
ATOM     10  N   UNL     1      47.993  11.247  13.168  0.00  0.00    +0.000 N 
ATOM     11  O   UNL     1      46.603  11.169  11.414  0.00  0.00    +0.000 OA
ATOM     12  H   UNL     1      48.490  10.787  13.922  0.00  0.00    +0.000 HD
ATOM     13  H   UNL     1      48.057  12.250  13.067  0.00  0.00    +0.000 HD
ENDBRANCH   8   9
BRANCH   3  15
ATOM     14  C   UNL     1      50.342   7.708  11.389  0.00  0.00    +0.000 C 
ATOM     15  O   UNL     1      49.469   8.659  12.006  0.00  0.00    +0.000 OA
ENDBRANCH   3  15
ENDBRANCH   1   6
BRANCH   1  16
ATOM     16  C   UNL     1      43.716   6.486  11.416  0.00  0.00    +0.000 C 
BRANCH  16  17
ATOM     17  C   UNL     1      43.768   5.028  11.036  0.00  0.00    +0.000 A 
ATOM     18  C   UNL     1      43.141   4.038  11.788  0.00  0.00    +0.000 A 
ATOM     19  C   UNL     1      43.307   2.719  11.399  0.00  0.00    +0.000 A 
ATOM     20  N   UNL     1      44.050   2.329  10.340  0.00  0.00    +0.000 NA
ATOM     21  C   UNL     1      44.658   3.293   9.602  0.00  0.00    +0.000 A 
ATOM     22  C   UNL     1      44.530   4.641   9.927  0.00  0.00    +0.000 A 
BRANCH  21  23
ATOM     23  C   UNL     1      45.499   2.832   8.480  0.00  0.00    +0.000 A 
ATOM     24  C   UNL     1      45.840   3.679   7.407  0.00  0.00    +0.000 A 
ATOM     25  C   UNL     1      46.671   3.240   6.370  0.00  0.00    +0.000 A 
ATOM     26  C   UNL     1      47.173   1.944   6.382  0.00  0.00    +0.000 A 
ATOM     27  C   UNL     1      46.843   1.083   7.424  0.00  0.00    +0.000 A 
ATOM     28  C   UNL     1      46.014   1.524   8.460  0.00  0.00    +0.000 A 
ENDBRANCH  21  23
ENDBRANCH  16  17
ENDBRANCH   1  16
TORSDOF 6
ENDMDL
MODEL 5
REMARK VINA RESULT:    -7.451      1.618      2.758
REMARK INTER + INTRA:         -11.249
REMARK INTER:                 -10.196
REMARK INTRA:                  -1.053
REMARK UNBOUND:                -1.185
REMARK  Name = 
REMARK  7 active torsions:
REMARK  status: ('A' for Active; 'I' for Inactive)
REMARK    1  A    between atoms: C_1  and  O_2
REMARK    2  A    between atoms: O_2  and  C_3
REMARK    3  A    between atoms: C_6  and  N_7
REMARK    4  A    between atoms: N_7  and  C_8
REMARK    5  A    between atoms: C_8  and  C_9
REMARK    6  A    between atoms: C_13  and  C_14
REMARK    7  A    between atoms: C_22  and  C_23
REMARK                            x       y       z     vdW  Elec       q    Type
REMARK                         _______ _______ _______ _____ _____    ______ ____
ROOT
ATOM      1  N   UNL     1      45.450   6.989  11.152  0.00  0.00    +0.000 N 
ATOM      2  H   UNL     1      45.279   7.863  10.670  0.00  0.00    +0.000 HD
ENDROOT
BRANCH   1   6
ATOM      3  C   UNL     1      48.788   6.917  13.655  0.00  0.00    +0.000 A 
ATOM      4  C   UNL     1      47.538   6.437  14.015  0.00  0.00    +0.000 A 
ATOM      5  N   UNL     1      46.431   6.501  13.245  0.00  0.00    +0.000 NA
ATOM      6  C   UNL     1      46.527   7.077  12.036  0.00  0.00    +0.000 A 
ATOM      7  C   UNL     1      47.725   7.632  11.607  0.00  0.00    +0.000 A 
ATOM      8  C   UNL     1      48.868   7.564  12.416  0.00  0.00    +0.000 A 
BRANCH   8   9
ATOM      9  C   UNL     1      50.118   8.149  11.835  0.00  0.00    +0.000 C 
ATOM     10  N   UNL     1      51.133   7.314  11.474  0.00  0.00    +0.000 N 
ATOM     11  O   UNL     1      50.240   9.358  11.675  0.00  0.00    +0.000 OA
ATOM     12  H   UNL     1      51.086   6.312  11.618  0.00  0.00    +0.000 HD
ATOM     13  H   UNL     1      51.963   7.722  11.067  0.00  0.00    +0.000 HD
ENDBRANCH   8   9
BRANCH   3  15
ATOM     14  C   UNL     1      49.898   7.687  15.585  0.00  0.00    +0.000 C 
ATOM     15  O   UNL     1      49.889   6.798  14.463  0.00  0.00    +0.000 OA
ENDBRANCH   3  15
ENDBRANCH   1   6
BRANCH   1  16
ATOM     16  C   UNL     1      44.236   6.397  11.699  0.00  0.00    +0.000 C 
BRANCH  16  17
ATOM     17  C   UNL     1      44.094   4.992  11.174  0.00  0.00    +0.000 A 
ATOM     18  C   UNL     1      43.284   4.042  11.791  0.00  0.00    +0.000 A 
ATOM     19  C   UNL     1      43.276   2.756  11.276  0.00  0.00    +0.000 A 
ATOM     20  N   UNL     1      44.015   2.360  10.216  0.00  0.00    +0.000 NA
ATOM     21  C   UNL     1      44.801   3.285   9.610  0.00  0.00    +0.000 A 
ATOM     22  C   UNL     1      44.856   4.599  10.066  0.00  0.00    +0.000 A 
BRANCH  21  23
ATOM     23  C   UNL     1      45.631   2.809   8.484  0.00  0.00    +0.000 A 
ATOM     24  C   UNL     1      46.129   1.493   8.430  0.00  0.00    +0.000 A 
ATOM     25  C   UNL     1      46.880   1.044   7.338  0.00  0.00    +0.000 A 
ATOM     26  C   UNL     1      47.153   1.905   6.281  0.00  0.00    +0.000 A 
ATOM     27  C   UNL     1      46.682   3.213   6.314  0.00  0.00    +0.000 A 
ATOM     28  C   UNL     1      45.931   3.659   7.405  0.00  0.00    +0.000 A 
ENDBRANCH  21  23
ENDBRANCH  16  17
ENDBRANCH   1  16
TORSDOF 6
ENDMDL
MODEL 6
REMARK VINA RESULT:    -7.286      1.530      2.396
REMARK INTER + INTRA:         -11.026
REMARK INTER:                 -10.226
REMARK INTRA:                  -0.801
REMARK UNBOUND:                -1.185
REMARK  Name = 
REMARK  7 active torsions:
REMARK  status: ('A' for Active; 'I' for Inactive)
REMARK    1  A    between atoms: C_1  and  O_2
REMARK    2  A    between atoms: O_2  and  C_3
REMARK    3  A    between atoms: C_6  and  N_7
REMARK    4  A    between atoms: N_7  and  C_8
REMARK    5  A    between atoms: C_8  and  C_9
REMARK    6  A    between atoms: C_13  and  C_14
REMARK    7  A    between atoms: C_22  and  C_23
REMARK                            x       y       z     vdW  Elec       q    Type
REMARK                         _______ _______ _______ _____ _____    ______ ____
ROOT
ATOM      1  N   UNL     1      46.651   6.605  11.876  0.00  0.00    +0.000 N 
ATOM      2  H   UNL     1      47.181   7.430  11.621  0.00  0.00    +0.000 HD
ENDROOT
BRANCH   1   6
ATOM      3  C   UNL     1      47.857   5.094  15.575  0.00  0.00    +0.000 A 
ATOM      4  C   UNL     1      46.917   4.486  14.757  0.00  0.00    +0.000 A 
ATOM      5  N   UNL     1      46.469   4.983  13.586  0.00  0.00    +0.000 NA
ATOM      6  C   UNL     1      46.956   6.163  13.165  0.00  0.00    +0.000 A 
ATOM      7  C   UNL     1      47.864   6.873  13.938  0.00  0.00    +0.000 A 
ATOM      8  C   UNL     1      48.320   6.348  15.157  0.00  0.00    +0.000 A 
BRANCH   8   9
ATOM      9  C   UNL     1      49.336   7.172  15.885  0.00  0.00    +0.000 C 
ATOM     10  N   UNL     1      50.535   6.609  16.208  0.00  0.00    +0.000 N 
ATOM     11  O   UNL     1      49.110   8.337  16.190  0.00  0.00    +0.000 OA
ATOM     12  H   UNL     1      50.751   5.641  16.003  0.00  0.00    +0.000 HD
ATOM     13  H   UNL     1      51.217   7.184  16.684  0.00  0.00    +0.000 HD
ENDBRANCH   8   9
BRANCH   3  15
ATOM     14  C   UNL     1      47.396   4.655  17.842  0.00  0.00    +0.000 C 
ATOM     15  O   UNL     1      48.302   4.530  16.741  0.00  0.00    +0.000 OA
ENDBRANCH   3  15
ENDBRANCH   1   6
BRANCH   1  16
ATOM     16  C   UNL     1      45.231   6.728  11.575  0.00  0.00    +0.000 C 
BRANCH  16  17
ATOM     17  C   UNL     1      44.736   5.425  11.001  0.00  0.00    +0.000 A 
ATOM     18  C   UNL     1      43.669   4.722  11.556  0.00  0.00    +0.000 A 
ATOM     19  C   UNL     1      43.334   3.497  11.003  0.00  0.00    +0.000 A 
ATOM     20  N   UNL     1      43.986   2.934   9.962  0.00  0.00    +0.000 NA
ATOM     21  C   UNL     1      45.023   3.618   9.416  0.00  0.00    +0.000 A 
ATOM     22  C   UNL     1      45.412   4.859   9.913  0.00  0.00    +0.000 A 
BRANCH  21  23
ATOM     23  C   UNL     1      45.743   2.954   8.311  0.00  0.00    +0.000 A 
ATOM     24  C   UNL     1      46.122   3.648   7.145  0.00  0.00    +0.000 A 
ATOM     25  C   UNL     1      46.838   3.015   6.123  0.00  0.00    +0.000 A 
ATOM     26  C   UNL     1      47.186   1.675   6.244  0.00  0.00    +0.000 A 
ATOM     27  C   UNL     1      46.814   0.963   7.380  0.00  0.00    +0.000 A 
ATOM     28  C   UNL     1      46.100   1.597   8.400  0.00  0.00    +0.000 A 
ENDBRANCH  21  23
ENDBRANCH  16  17
ENDBRANCH   1  16
TORSDOF 6
ENDMDL
MODEL 7
REMARK VINA RESULT:    -6.935      2.370      3.515
REMARK INTER + INTRA:         -10.552
REMARK INTER:                  -9.594
REMARK INTRA:                  -0.958
REMARK UNBOUND:                -1.185
REMARK  Name = 
REMARK  7 active torsions:
REMARK  status: ('A' for Active; 'I' for Inactive)
REMARK    1  A    between atoms: C_1  and  O_2
REMARK    2  A    between atoms: O_2  and  C_3
REMARK    3  A    between atoms: C_6  and  N_7
REMARK    4  A    between atoms: N_7  and  C_8
REMARK    5  A    between atoms: C_8  and  C_9
REMARK    6  A    between atoms: C_13  and  C_14
REMARK    7  A    between atoms: C_22  and  C_23
REMARK                            x       y       z     vdW  Elec       q    Type
REMARK                         _______ _______ _______ _____ _____    ______ ____
ROOT
ATOM      1  N   UNL     1      46.590   3.842  14.084  0.00  0.00    +0.000 N 
ATOM      2  H   UNL     1      47.129   3.661  13.246  0.00  0.00    +0.000 HD
ENDROOT
BRANCH   1   6
ATOM      3  C   UNL     1      49.256   3.789  17.295  0.00  0.00    +0.000 A 
ATOM      4  C   UNL     1      48.806   2.652  16.640  0.00  0.00    +0.000 A 
ATOM      5  N   UNL     1      47.902   2.640  15.639  0.00  0.00    +0.000 NA
ATOM      6  C   UNL     1      47.380   3.810  15.235  0.00  0.00    +0.000 A 
ATOM      7  C   UNL     1      47.730   4.998  15.862  0.00  0.00    +0.000 A 
ATOM      8  C   UNL     1      48.669   4.999  16.905  0.00  0.00    +0.000 A 
BRANCH   8   9
ATOM      9  C   UNL     1      49.011   6.340  17.476  0.00  0.00    +0.000 C 
ATOM     10  N   UNL     1      50.320   6.717  17.537  0.00  0.00    +0.000 N 
ATOM     11  O   UNL     1      48.140   7.100  17.882  0.00  0.00    +0.000 OA
ATOM     12  H   UNL     1      51.073   6.108  17.241  0.00  0.00    +0.000 HD
ATOM     13  H   UNL     1      50.534   7.633  17.908  0.00  0.00    +0.000 HD
ENDBRANCH   8   9
BRANCH   3  15
ATOM     14  C   UNL     1      51.485   3.281  17.859  0.00  0.00    +0.000 C 
ATOM     15  O   UNL     1      50.201   3.749  18.285  0.00  0.00    +0.000 OA
ENDBRANCH   3  15
ENDBRANCH   1   6
BRANCH   1  16
ATOM     16  C   UNL     1      45.716   5.002  13.956  0.00  0.00    +0.000 C 
BRANCH  16  17
ATOM     17  C   UNL     1      44.928   4.883  12.677  0.00  0.00    +0.000 A 
ATOM     18  C   UNL     1      43.581   5.229  12.596  0.00  0.00    +0.000 A 
ATOM     19  C   UNL     1      42.923   5.016  11.396  0.00  0.00    +0.000 A 
ATOM     20  N   UNL     1      43.503   4.482  10.298  0.00  0.00    +0.000 NA
ATOM     21  C   UNL     1      44.817   4.149  10.374  0.00  0.00    +0.000 A 
ATOM     22  C   UNL     1      45.546   4.341  11.543  0.00  0.00    +0.000 A 
BRANCH  21  23
ATOM     23  C   UNL     1      45.408   3.525   9.173  0.00  0.00    +0.000 A 
ATOM     24  C   UNL     1      45.878   4.293   8.090  0.00  0.00    +0.000 A 
ATOM     25  C   UNL     1      46.472   3.691   6.974  0.00  0.00    +0.000 A 
ATOM     26  C   UNL     1      46.603   2.308   6.919  0.00  0.00    +0.000 A 
ATOM     27  C   UNL     1      46.137   1.525   7.970  0.00  0.00    +0.000 A 
ATOM     28  C   UNL     1      45.546   2.129   9.083  0.00  0.00    +0.000 A 
ENDBRANCH  21  23
ENDBRANCH  16  17
ENDBRANCH   1  16
TORSDOF 6
ENDMDL
MODEL 8
REMARK VINA RESULT:    -6.854      2.593      4.493
REMARK INTER + INTRA:         -10.443
REMARK INTER:                  -9.476
REMARK INTRA:                  -0.966
REMARK UNBOUND:                -1.185
REMARK  Name = 
REMARK  7 active torsions:
REMARK  status: ('A' for Active; 'I' for Inactive)
REMARK    1  A    between atoms: C_1  and  O_2
REMARK    2  A    between atoms: O_2  and  C_3
REMARK    3  A    between atoms: C_6  and  N_7
REMARK    4  A    between atoms: N_7  and  C_8
REMARK    5  A    between atoms: C_8  and  C_9
REMARK    6  A    between atoms: C_13  and  C_14
REMARK    7  A    between atoms: C_22  and  C_23
REMARK                            x       y       z     vdW  Elec       q    Type
REMARK                         _______ _______ _______ _____ _____    ______ ____
ROOT
ATOM      1  N   UNL     1      48.110   7.277  15.084  0.00  0.00    +0.000 N 
ATOM      2  H   UNL     1      47.109   7.247  15.234  0.00  0.00    +0.000 HD
ENDROOT
BRANCH   1   6
ATOM      3  C   UNL     1      50.058   4.575  17.598  0.00  0.00    +0.000 A 
ATOM      4  C   UNL     1      50.701   5.582  16.894  0.00  0.00    +0.000 A 
ATOM      5  N   UNL     1      50.102   6.430  16.032  0.00  0.00    +0.000 NA
ATOM      6  C   UNL     1      48.782   6.300  15.822  0.00  0.00    +0.000 A 
ATOM      7  C   UNL     1      48.060   5.291  16.443  0.00  0.00    +0.000 A 
ATOM      8  C   UNL     1      48.693   4.412  17.334  0.00  0.00    +0.000 A 
BRANCH   8   9
ATOM      9  C   UNL     1      47.810   3.393  17.987  0.00  0.00    +0.000 C 
ATOM     10  N   UNL     1      48.112   2.967  19.246  0.00  0.00    +0.000 N 
ATOM     11  O   UNL     1      46.827   2.942  17.412  0.00  0.00    +0.000 OA
ATOM     12  H   UNL     1      48.932   3.290  19.745  0.00  0.00    +0.000 HD
ATOM     13  H   UNL     1      47.497   2.292  19.680  0.00  0.00    +0.000 HD
ENDBRANCH   8   9
BRANCH   3  15
ATOM     14  C   UNL     1      51.986   4.246  18.910  0.00  0.00    +0.000 C 
ATOM     15  O   UNL     1      50.708   3.760  18.488  0.00  0.00    +0.000 OA
ENDBRANCH   3  15
ENDBRANCH   1   6
BRANCH   1  16
ATOM     16  C   UNL     1      48.469   7.356  13.674  0.00  0.00    +0.000 C 
BRANCH  16  17
ATOM     17  C   UNL     1      47.210   7.353  12.846  0.00  0.00    +0.000 A 
ATOM     18  C   UNL     1      46.287   8.396  12.887  0.00  0.00    +0.000 A 
ATOM     19  C   UNL     1      45.125   8.269  12.145  0.00  0.00    +0.000 A 
ATOM     20  N   UNL     1      44.822   7.190  11.390  0.00  0.00    +0.000 NA
ATOM     21  C   UNL     1      45.722   6.174  11.345  0.00  0.00    +0.000 A 
ATOM     22  C   UNL     1      46.916   6.234  12.057  0.00  0.00    +0.000 A 
BRANCH  21  23
ATOM     23  C   UNL     1      45.341   4.991  10.548  0.00  0.00    +0.000 A 
ATOM     24  C   UNL     1      44.723   3.868  11.131  0.00  0.00    +0.000 A 
ATOM     25  C   UNL     1      44.331   2.769  10.358  0.00  0.00    +0.000 A 
ATOM     26  C   UNL     1      44.555   2.770   8.986  0.00  0.00    +0.000 A 
ATOM     27  C   UNL     1      45.174   3.862   8.386  0.00  0.00    +0.000 A 
ATOM     28  C   UNL     1      45.563   4.958   9.160  0.00  0.00    +0.000 A 
ENDBRANCH  21  23
ENDBRANCH  16  17
ENDBRANCH   1  16
TORSDOF 6
ENDMDL
MODEL 9
REMARK VINA RESULT:    -6.556      2.433      7.419
REMARK INTER + INTRA:         -10.041
REMARK INTER:                  -8.982
REMARK INTRA:                  -1.059
REMARK UNBOUND:                -1.185
REMARK  Name = 
REMARK  7 active torsions:
REMARK  status: ('A' for Active; 'I' for Inactive)
REMARK    1  A    between atoms: C_1  and  O_2
REMARK    2  A    between atoms: O_2  and  C_3
REMARK    3  A    between atoms: C_6  and  N_7
REMARK    4  A    between atoms: N_7  and  C_8
REMARK    5  A    between atoms: C_8  and  C_9
REMARK    6  A    between atoms: C_13  and  C_14
REMARK    7  A    between atoms: C_22  and  C_23
REMARK                            x       y       z     vdW  Elec       q    Type
REMARK                         _______ _______ _______ _____ _____    ______ ____
ROOT
ATOM      1  N   UNL     1      46.256   7.223  11.829  0.00  0.00    +0.000 N 
ATOM      2  H   UNL     1      45.828   8.100  11.558  0.00  0.00    +0.000 HD
ENDROOT
BRANCH   1   6
ATOM      3  C   UNL     1      44.793   3.755  10.025  0.00  0.00    +0.000 A 
ATOM      4  C   UNL     1      45.499   4.742   9.353  0.00  0.00    +0.000 A 
ATOM      5  N   UNL     1      45.932   5.896   9.901  0.00  0.00    +0.000 NA
ATOM      6  C   UNL     1      45.661   6.130  11.196  0.00  0.00    +0.000 A 
ATOM      7  C   UNL     1      44.918   5.224  11.940  0.00  0.00    +0.000 A 
ATOM      8  C   UNL     1      44.469   4.029  11.359  0.00  0.00    +0.000 A 
BRANCH   8   9
ATOM      9  C   UNL     1      43.720   3.102  12.266  0.00  0.00    +0.000 C 
ATOM     10  N   UNL     1      43.319   1.890  11.787  0.00  0.00    +0.000 N 
ATOM     11  O   UNL     1      43.466   3.411  13.424  0.00  0.00    +0.000 OA
ATOM     12  H   UNL     1      43.481   1.607  10.828  0.00  0.00    +0.000 HD
ATOM     13  H   UNL     1      42.830   1.268  12.416  0.00  0.00    +0.000 HD
ENDBRANCH   8   9
BRANCH   3  15
ATOM     14  C   UNL     1      45.461   1.876   8.772  0.00  0.00    +0.000 C 
ATOM     15  O   UNL     1      44.405   2.584   9.429  0.00  0.00    +0.000 OA
ENDBRANCH   3  15
ENDBRANCH   1   6
BRANCH   1  16
ATOM     16  C   UNL     1      47.711   7.263  11.777  0.00  0.00    +0.000 C 
BRANCH  16  17
ATOM     17  C   UNL     1      48.249   7.408  13.178  0.00  0.00    +0.000 A 
ATOM     18  C   UNL     1      48.999   8.511  13.579  0.00  0.00    +0.000 A 
ATOM     19  C   UNL     1      49.512   8.519  14.866  0.00  0.00    +0.000 A 
ATOM     20  N   UNL     1      49.339   7.517  15.757  0.00  0.00    +0.000 NA
ATOM     21  C   UNL     1      48.604   6.444  15.370  0.00  0.00    +0.000 A 
ATOM     22  C   UNL     1      48.050   6.368  14.095  0.00  0.00    +0.000 A 
BRANCH  21  23
ATOM     23  C   UNL     1      48.473   5.347  16.350  0.00  0.00    +0.000 A 
ATOM     24  C   UNL     1      49.312   5.250  17.476  0.00  0.00    +0.000 A 
ATOM     25  C   UNL     1      49.152   4.227  18.418  0.00  0.00    +0.000 A 
ATOM     26  C   UNL     1      48.151   3.278  18.248  0.00  0.00    +0.000 A 
ATOM     27  C   UNL     1      47.315   3.343  17.138  0.00  0.00    +0.000 A 
ATOM     28  C   UNL     1      47.476   4.366  16.200  0.00  0.00    +0.000 A 
ENDBRANCH  21  23
ENDBRANCH  16  17
ENDBRANCH   1  16
TORSDOF 6
ENDMDL
