MODEL 1
REMARK VINA RESULT:    -9.017      0.000      0.000
REMARK INTER + INTRA:         -13.445
REMARK INTER:                 -12.179
REMARK INTRA:                  -1.265
REMARK UNBOUND:                -1.265
REMARK  Name = 
REMARK  6 active torsions:
REMARK  status: ('A' for Active; 'I' for Inactive)
REMARK    1  A    between atoms: C_2  and  C_4
REMARK    2  A    between atoms: N_8  and  C_9
REMARK    3  A    between atoms: C_9  and  C_10
REMARK    4  A    between atoms: C_15  and  C_16
REMARK    5  A    between atoms: C_20  and  O_21
REMARK    6  A    between atoms: O_21  and  C_22
REMARK                            x       y       z     vdW  Elec       q    Type
REMARK                         _______ _______ _______ _____ _____    ______ ____
ROOT
ATOM      1  C   UNL     1      44.679   4.892  11.951  0.00  0.00    +0.000 A 
ATOM      2  C   UNL     1      45.323   4.130  12.929  0.00  0.00    +0.000 A 
ATOM      3  C   UNL     1      46.367   4.686  13.655  0.00  0.00    +0.000 A 
ATOM      4  F   UNL     1      46.989   3.947  14.583  0.00  0.00    +0.000 F 
ATOM      5  C   UNL     1      46.779   5.998  13.437  0.00  0.00    +0.000 A 
ATOM      6  C   UNL     1      46.131   6.809  12.491  0.00  0.00    +0.000 A 
ATOM      7  C   UNL     1      45.077   6.227  11.756  0.00  0.00    +0.000 A 
ENDROOT
BRANCH   6   8
ATOM      8  C   UNL     1      46.503   8.229  12.296  0.00  0.00    +0.000 A 
ATOM      9  C   UNL     1      47.835   8.621  12.083  0.00  0.00    +0.000 A 
ATOM     10  C   UNL     1      48.170   9.958  11.849  0.00  0.00    +0.000 A 
ATOM     11  C   UNL     1      47.179  10.937  11.822  0.00  0.00    +0.000 A 
ATOM     12  C   UNL     1      45.847  10.576  11.994  0.00  0.00    +0.000 A 
ATOM     13  C   UNL     1      45.526   9.240  12.268  0.00  0.00    +0.000 A 
BRANCH  12  14
ATOM     14  O   UNL     1      44.786  11.428  11.970  0.00  0.00    +0.000 OA
BRANCH  14  15
ATOM     15  C   UNL     1      43.986  11.502  10.796  0.00  0.00    +0.000 C 
ATOM     16  F   UNL     1      44.602  11.089   9.669  0.00  0.00    +0.000 F 
ATOM     17  F   UNL     1      42.890  10.729  10.973  0.00  0.00    +0.000 F 
ATOM     18  F   UNL     1      43.577  12.777  10.623  0.00  0.00    +0.000 F 
ENDBRANCH  14  15
ENDBRANCH  12  14
ENDBRANCH   6   8
BRANCH   1  19
ATOM     19  C   UNL     1      43.556   4.298  11.136  0.00  0.00    +0.000 C 
BRANCH  19  24
ATOM     20  C   UNL     1      46.429   2.410   7.648  0.00  0.00    +0.000 A 
ATOM     21  C   UNL     1      45.695   1.887   8.683  0.00  0.00    +0.000 A 
ATOM     22  N   UNL     1      44.802   2.605   9.397  0.00  0.00    +0.000 NA
ATOM     23  C   UNL     1      44.644   3.894   9.070  0.00  0.00    +0.000 A 
ATOM     24  N   UNL     1      43.715   4.669   9.747  0.00  0.00    +0.000 N 
ATOM     25  N   UNL     1      45.340   4.506   8.101  0.00  0.00    +0.000 NA
ATOM     26  C   UNL     1      46.226   3.750   7.408  0.00  0.00    +0.000 A 
ATOM     27  H   UNL     1      43.951   5.640   9.574  0.00  0.00    +0.000 HD
BRANCH  20  29
ATOM     28  N   UNL     1      48.467   2.299   6.337  0.00  0.00    +0.000 N 
ATOM     29  C   UNL     1      47.390   1.634   6.857  0.00  0.00    +0.000 C 
ATOM     30  O   UNL     1      47.248   0.430   6.695  0.00  0.00    +0.000 OA
ATOM     31  H   UNL     1      49.168   1.727   5.881  0.00  0.00    +0.000 HD
ATOM     32  H   UNL     1      48.760   3.213   6.654  0.00  0.00    +0.000 HD
ENDBRANCH  20  29
ENDBRANCH  19  24
ENDBRANCH   1  19
TORSDOF 6
ENDMDL
MODEL 2
REMARK VINA RESULT:    -8.742      3.195      3.853
REMARK INTER + INTRA:         -13.074
REMARK INTER:                 -12.093
REMARK INTRA:                  -0.980
REMARK UNBOUND:                -1.265
REMARK  Name = 
REMARK  6 active torsions:
REMARK  status: ('A' for Active; 'I' for Inactive)
REMARK    1  A    between atoms: C_2  and  C_4
REMARK    2  A    between atoms: N_8  and  C_9
REMARK    3  A    between atoms: C_9  and  C_10
REMARK    4  A    between atoms: C_15  and  C_16
REMARK    5  A    between atoms: C_20  and  O_21
REMARK    6  A    between atoms: O_21  and  C_22
REMARK                            x       y       z     vdW  Elec       q    Type
REMARK                         _______ _______ _______ _____ _____    ______ ____
ROOT
ATOM      1  C   UNL     1      45.034   4.934  11.898  0.00  0.00    +0.000 A 
ATOM      2  C   UNL     1      45.437   4.032  12.886  0.00  0.00    +0.000 A 
ATOM      3  C   UNL     1      46.609   4.267  13.592  0.00  0.00    +0.000 A 
ATOM      4  F   UNL     1      46.997   3.393  14.530  0.00  0.00    +0.000 F 
ATOM      5  C   UNL     1      47.387   5.395  13.345  0.00  0.00    +0.000 A 
ATOM      6  C   UNL     1      46.994   6.345  12.388  0.00  0.00    +0.000 A 
ATOM      7  C   UNL     1      45.806   6.088  11.672  0.00  0.00    +0.000 A 
ENDROOT
BRANCH   6   8
ATOM      8  C   UNL     1      47.767   7.588  12.162  0.00  0.00    +0.000 A 
ATOM      9  C   UNL     1      47.139   8.840  12.058  0.00  0.00    +0.000 A 
ATOM     10  C   UNL     1      47.881  10.013  11.895  0.00  0.00    +0.000 A 
ATOM     11  C   UNL     1      49.272   9.963  11.832  0.00  0.00    +0.000 A 
ATOM     12  C   UNL     1      49.926   8.743  11.967  0.00  0.00    +0.000 A 
ATOM     13  C   UNL     1      49.172   7.568  12.089  0.00  0.00    +0.000 A 
BRANCH  12  14
ATOM     14  O   UNL     1      51.274   8.559  11.944  0.00  0.00    +0.000 OA
BRANCH  14  15
ATOM     15  C   UNL     1      51.939   8.472  10.690  0.00  0.00    +0.000 C 
ATOM     16  F   UNL     1      51.765   9.542   9.887  0.00  0.00    +0.000 F 
ATOM     17  F   UNL     1      53.266   8.338  10.915  0.00  0.00    +0.000 F 
ATOM     18  F   UNL     1      51.510   7.369  10.041  0.00  0.00    +0.000 F 
ENDBRANCH  14  15
ENDBRANCH  12  14
ENDBRANCH   6   8
BRANCH   1  19
ATOM     19  C   UNL     1      43.775   4.685  11.103  0.00  0.00    +0.000 C 
BRANCH  19  24
ATOM     20  C   UNL     1      46.443   2.363   7.716  0.00  0.00    +0.000 A 
ATOM     21  C   UNL     1      45.628   1.963   8.744  0.00  0.00    +0.000 A 
ATOM     22  N   UNL     1      44.823   2.806   9.425  0.00  0.00    +0.000 NA
ATOM     23  C   UNL     1      44.841   4.098   9.070  0.00  0.00    +0.000 A 
ATOM     24  N   UNL     1      44.009   5.002   9.711  0.00  0.00    +0.000 N 
ATOM     25  N   UNL     1      45.630   4.593   8.105  0.00  0.00    +0.000 NA
ATOM     26  C   UNL     1      46.422   3.712   7.446  0.00  0.00    +0.000 A 
ATOM     27  H   UNL     1      44.373   5.930   9.525  0.00  0.00    +0.000 HD
BRANCH  20  29
ATOM     28  N   UNL     1      48.473   1.959   6.452  0.00  0.00    +0.000 N 
ATOM     29  C   UNL     1      47.310   1.450   6.961  0.00  0.00    +0.000 C 
ATOM     30  O   UNL     1      47.015   0.272   6.821  0.00  0.00    +0.000 OA
ATOM     31  H   UNL     1      49.102   1.290   6.022  0.00  0.00    +0.000 HD
ATOM     32  H   UNL     1      48.878   2.834   6.757  0.00  0.00    +0.000 HD
ENDBRANCH  20  29
ENDBRANCH  19  24
ENDBRANCH   1  19
TORSDOF 6
ENDMDL
MODEL 3
REMARK VINA RESULT:    -8.620      3.403      5.793
REMARK INTER + INTRA:         -12.908
REMARK INTER:                 -11.986
REMARK INTRA:                  -0.922
REMARK UNBOUND:                -1.265
REMARK  Name = 
REMARK  6 active torsions:
REMARK  status: ('A' for Active; 'I' for Inactive)
REMARK    1  A    between atoms: C_2  and  C_4
REMARK    2  A    between atoms: N_8  and  C_9
REMARK    3  A    between atoms: C_9  and  C_10
REMARK    4  A    between atoms: C_15  and  C_16
REMARK    5  A    between atoms: C_20  and  O_21
REMARK    6  A    between atoms: O_21  and  C_22
REMARK                            x       y       z     vdW  Elec       q    Type
REMARK                         _______ _______ _______ _____ _____    ______ ____
ROOT
ATOM      1  C   UNL     1      45.513   5.213  12.081  0.00  0.00    +0.000 A 
ATOM      2  C   UNL     1      46.262   6.241  11.503  0.00  0.00    +0.000 A 
ATOM      3  C   UNL     1      47.370   6.742  12.171  0.00  0.00    +0.000 A 
ATOM      4  F   UNL     1      48.077   7.736  11.616  0.00  0.00    +0.000 F 
ATOM      5  C   UNL     1      47.761   6.232  13.405  0.00  0.00    +0.000 A 
ATOM      6  C   UNL     1      47.058   5.172  14.001  0.00  0.00    +0.000 A 
ATOM      7  C   UNL     1      45.929   4.678  13.314  0.00  0.00    +0.000 A 
ENDROOT
BRANCH   6   8
ATOM      8  C   UNL     1      47.501   4.563  15.277  0.00  0.00    +0.000 A 
ATOM      9  C   UNL     1      47.727   3.182  15.398  0.00  0.00    +0.000 A 
ATOM     10  C   UNL     1      48.193   2.625  16.592  0.00  0.00    +0.000 A 
ATOM     11  C   UNL     1      48.444   3.436  17.696  0.00  0.00    +0.000 A 
ATOM     12  C   UNL     1      48.264   4.812  17.598  0.00  0.00    +0.000 A 
ATOM     13  C   UNL     1      47.759   5.356  16.410  0.00  0.00    +0.000 A 
BRANCH  12  14
ATOM     14  O   UNL     1      48.493   5.714  18.591  0.00  0.00    +0.000 OA
BRANCH  14  15
ATOM     15  C   UNL     1      47.394   6.187  19.361  0.00  0.00    +0.000 C 
ATOM     16  F   UNL     1      46.196   5.687  18.997  0.00  0.00    +0.000 F 
ATOM     17  F   UNL     1      47.602   5.856  20.656  0.00  0.00    +0.000 F 
ATOM     18  F   UNL     1      47.346   7.534  19.275  0.00  0.00    +0.000 F 
ENDBRANCH  14  15
ENDBRANCH  12  14
ENDBRANCH   6   8
BRANCH   1  19
ATOM     19  C   UNL     1      44.292   4.669  11.381  0.00  0.00    +0.000 C 
BRANCH  19  24
ATOM     20  C   UNL     1      46.516   2.403   7.653  0.00  0.00    +0.000 A 
ATOM     21  C   UNL     1      45.838   1.986   8.771  0.00  0.00    +0.000 A 
ATOM     22  N   UNL     1      45.123   2.817   9.559  0.00  0.00    +0.000 NA
ATOM     23  C   UNL     1      45.094   4.113   9.222  0.00  0.00    +0.000 A 
ATOM     24  N   UNL     1      44.347   5.006   9.976  0.00  0.00    +0.000 N 
ATOM     25  N   UNL     1      45.754   4.624   8.173  0.00  0.00    +0.000 NA
ATOM     26  C   UNL     1      46.459   3.756   7.407  0.00  0.00    +0.000 A 
ATOM     27  H   UNL     1      44.683   5.937   9.758  0.00  0.00    +0.000 HD
BRANCH  20  29
ATOM     28  N   UNL     1      48.342   2.036   6.099  0.00  0.00    +0.000 N 
ATOM     29  C   UNL     1      47.283   1.504   6.783  0.00  0.00    +0.000 C 
ATOM     30  O   UNL     1      47.002   0.316   6.698  0.00  0.00    +0.000 OA
ATOM     31  H   UNL     1      48.916   1.378   5.585  0.00  0.00    +0.000 HD
ATOM     32  H   UNL     1      48.764   2.924   6.332  0.00  0.00    +0.000 HD
ENDBRANCH  20  29
ENDBRANCH  19  24
ENDBRANCH   1  19
TORSDOF 6
ENDMDL
MODEL 4
REMARK VINA RESULT:    -8.336      2.750      5.658
REMARK INTER + INTRA:         -12.525
REMARK INTER:                 -11.351
REMARK INTRA:                  -1.174
REMARK UNBOUND:                -1.265
REMARK  Name = 
REMARK  6 active torsions:
REMARK  status: ('A' for Active; 'I' for Inactive)
REMARK    1  A    between atoms: C_2  and  C_4
REMARK    2  A    between atoms: N_8  and  C_9
REMARK    3  A    between atoms: C_9  and  C_10
REMARK    4  A    between atoms: C_15  and  C_16
REMARK    5  A    between atoms: C_20  and  O_21
REMARK    6  A    between atoms: O_21  and  C_22
REMARK                            x       y       z     vdW  Elec       q    Type
REMARK                         _______ _______ _______ _____ _____    ______ ____
ROOT
ATOM      1  C   UNL     1      44.575   5.822  11.633  0.00  0.00    +0.000 A 
ATOM      2  C   UNL     1      44.440   7.149  11.219  0.00  0.00    +0.000 A 
ATOM      3  C   UNL     1      45.198   8.139  11.827  0.00  0.00    +0.000 A 
ATOM      4  F   UNL     1      45.055   9.411  11.433  0.00  0.00    +0.000 F 
ATOM      5  C   UNL     1      46.106   7.834  12.838  0.00  0.00    +0.000 A 
ATOM      6  C   UNL     1      46.300   6.507  13.255  0.00  0.00    +0.000 A 
ATOM      7  C   UNL     1      45.516   5.513  12.633  0.00  0.00    +0.000 A 
ENDROOT
BRANCH   6   8
ATOM      8  C   UNL     1      47.314   6.152  14.275  0.00  0.00    +0.000 A 
ATOM      9  C   UNL     1      48.303   7.061  14.682  0.00  0.00    +0.000 A 
ATOM     10  C   UNL     1      49.223   6.734  15.682  0.00  0.00    +0.000 A 
ATOM     11  C   UNL     1      49.176   5.486  16.301  0.00  0.00    +0.000 A 
ATOM     12  C   UNL     1      48.186   4.577  15.946  0.00  0.00    +0.000 A 
ATOM     13  C   UNL     1      47.293   4.898  14.914  0.00  0.00    +0.000 A 
BRANCH  12  14
ATOM     14  O   UNL     1      48.016   3.339  16.485  0.00  0.00    +0.000 OA
BRANCH  14  15
ATOM     15  C   UNL     1      47.445   3.222  17.782  0.00  0.00    +0.000 C 
ATOM     16  F   UNL     1      46.625   2.162  17.942  0.00  0.00    +0.000 F 
ATOM     17  F   UNL     1      48.446   3.106  18.684  0.00  0.00    +0.000 F 
ATOM     18  F   UNL     1      46.756   4.349  18.061  0.00  0.00    +0.000 F 
ENDBRANCH  14  15
ENDBRANCH  12  14
ENDBRANCH   6   8
BRANCH   1  19
ATOM     19  C   UNL     1      43.743   4.734  11.000  0.00  0.00    +0.000 C 
BRANCH  19  24
ATOM     20  C   UNL     1      46.386   2.254   7.706  0.00  0.00    +0.000 A 
ATOM     21  C   UNL     1      45.732   1.924   8.867  0.00  0.00    +0.000 A 
ATOM     22  N   UNL     1      44.883   2.758   9.504  0.00  0.00    +0.000 NA
ATOM     23  C   UNL     1      44.688   3.970   8.967  0.00  0.00    +0.000 A 
ATOM     24  N   UNL     1      43.801   4.854   9.560  0.00  0.00    +0.000 N 
ATOM     25  N   UNL     1      45.309   4.400   7.858  0.00  0.00    +0.000 NA
ATOM     26  C   UNL     1      46.153   3.531   7.249  0.00  0.00    +0.000 A 
ATOM     27  H   UNL     1      44.014   5.778   9.202  0.00  0.00    +0.000 HD
BRANCH  20  29
ATOM     28  N   UNL     1      48.452   1.881   6.492  0.00  0.00    +0.000 N 
ATOM     29  C   UNL     1      47.298   1.348   6.999  0.00  0.00    +0.000 C 
ATOM     30  O   UNL     1      47.048   0.156   6.895  0.00  0.00    +0.000 OA
ATOM     31  H   UNL     1      49.112   1.221   6.098  0.00  0.00    +0.000 HD
ATOM     32  H   UNL     1      48.819   2.780   6.773  0.00  0.00    +0.000 HD
ENDBRANCH  20  29
ENDBRANCH  19  24
ENDBRANCH   1  19
TORSDOF 6
ENDMDL
MODEL 5
REMARK VINA RESULT:    -8.288      2.806      3.484
REMARK INTER + INTRA:         -12.461
REMARK INTER:                 -11.340
REMARK INTRA:                  -1.121
REMARK UNBOUND:                -1.265
REMARK  Name = 
REMARK  6 active torsions:
REMARK  status: ('A' for Active; 'I' for Inactive)
REMARK    1  A    between atoms: C_2  and  C_4
REMARK    2  A    between atoms: N_8  and  C_9
REMARK    3  A    between atoms: C_9  and  C_10
REMARK    4  A    between atoms: C_15  and  C_16
REMARK    5  A    between atoms: C_20  and  O_21
REMARK    6  A    between atoms: O_21  and  C_22
REMARK                            x       y       z     vdW  Elec       q    Type
REMARK                         _______ _______ _______ _____ _____    ______ ____
ROOT
ATOM      1  C   UNL     1      44.882   4.786  11.949  0.00  0.00    +0.000 A 
ATOM      2  C   UNL     1      45.466   3.809  12.760  0.00  0.00    +0.000 A 
ATOM      3  C   UNL     1      46.584   4.126  13.519  0.00  0.00    +0.000 A 
ATOM      4  F   UNL     1      47.146   3.183  14.286  0.00  0.00    +0.000 F 
ATOM      5  C   UNL     1      47.131   5.406  13.498  0.00  0.00    +0.000 A 
ATOM      6  C   UNL     1      46.549   6.425  12.727  0.00  0.00    +0.000 A 
ATOM      7  C   UNL     1      45.419   6.086  11.955  0.00  0.00    +0.000 A 
ENDROOT
BRANCH   6   8
ATOM      8  C   UNL     1      47.070   7.812  12.748  0.00  0.00    +0.000 A 
ATOM      9  C   UNL     1      46.410   8.859  12.085  0.00  0.00    +0.000 A 
ATOM     10  C   UNL     1      46.881  10.173  12.153  0.00  0.00    +0.000 A 
ATOM     11  C   UNL     1      48.025  10.473  12.888  0.00  0.00    +0.000 A 
ATOM     12  C   UNL     1      48.682   9.465  13.586  0.00  0.00    +0.000 A 
ATOM     13  C   UNL     1      48.225   8.144  13.479  0.00  0.00    +0.000 A 
BRANCH  12  14
ATOM     14  O   UNL     1      49.793   9.626  14.355  0.00  0.00    +0.000 OA
BRANCH  14  15
ATOM     15  C   UNL     1      49.653   9.679  15.770  0.00  0.00    +0.000 C 
ATOM     16  F   UNL     1      50.546  10.474  16.394  0.00  0.00    +0.000 F 
ATOM     17  F   UNL     1      48.416  10.140  16.063  0.00  0.00    +0.000 F 
ATOM     18  F   UNL     1      49.764   8.429  16.268  0.00  0.00    +0.000 F 
ENDBRANCH  14  15
ENDBRANCH  12  14
ENDBRANCH   6   8
BRANCH   1  19
ATOM     19  C   UNL     1      43.679   4.455  11.100  0.00  0.00    +0.000 C 
BRANCH  19  24
ATOM     20  C   UNL     1      46.525   2.481   7.638  0.00  0.00    +0.000 A 
ATOM     21  C   UNL     1      45.713   1.978   8.623  0.00  0.00    +0.000 A 
ATOM     22  N   UNL     1      44.853   2.737   9.336  0.00  0.00    +0.000 NA
ATOM     23  C   UNL     1      44.810   4.047   9.058  0.00  0.00    +0.000 A 
ATOM     24  N   UNL     1      43.920   4.867   9.735  0.00  0.00    +0.000 N 
ATOM     25  N   UNL     1      45.589   4.639   8.141  0.00  0.00    +0.000 NA
ATOM     26  C   UNL     1      46.438   3.841   7.448  0.00  0.00    +0.000 A 
ATOM     27  H   UNL     1      44.239   5.822   9.611  0.00  0.00    +0.000 HD
BRANCH  20  29
ATOM     28  N   UNL     1      48.473   2.304   6.204  0.00  0.00    +0.000 N 
ATOM     29  C   UNL     1      47.451   1.661   6.849  0.00  0.00    +0.000 C 
ATOM     30  O   UNL     1      47.331   0.445   6.797  0.00  0.00    +0.000 OA
ATOM     31  H   UNL     1      49.157   1.710   5.749  0.00  0.00    +0.000 HD
ATOM     32  H   UNL     1      48.763   3.247   6.424  0.00  0.00    +0.000 HD
ENDBRANCH  20  29
ENDBRANCH  19  24
ENDBRANCH   1  19
TORSDOF 6
ENDMDL
MODEL 6
REMARK VINA RESULT:    -8.125      5.690      8.020
REMARK INTER + INTRA:         -12.240
REMARK INTER:                 -11.167
REMARK INTRA:                  -1.073
REMARK UNBOUND:                -1.265
REMARK  Name = 
REMARK  6 active torsions:
REMARK  status: ('A' for Active; 'I' for Inactive)
REMARK    1  A    between atoms: C_2  and  C_4
REMARK    2  A    between atoms: N_8  and  C_9
REMARK    3  A    between atoms: C_9  and  C_10
REMARK    4  A    between atoms: C_15  and  C_16
REMARK    5  A    between atoms: C_20  and  O_21
REMARK    6  A    between atoms: O_21  and  C_22
REMARK                            x       y       z     vdW  Elec       q    Type
REMARK                         _______ _______ _______ _____ _____    ______ ____
ROOT
ATOM      1  C   UNL     1      48.332   6.748  14.542  0.00  0.00    +0.000 A 
ATOM      2  C   UNL     1      48.991   7.626  13.677  0.00  0.00    +0.000 A 
ATOM      3  C   UNL     1      48.589   7.713  12.352  0.00  0.00    +0.000 A 
ATOM      4  F   UNL     1      49.231   8.548  11.524  0.00  0.00    +0.000 F 
ATOM      5  C   UNL     1      47.531   6.950  11.866  0.00  0.00    +0.000 A 
ATOM      6  C   UNL     1      46.818   6.086  12.714  0.00  0.00    +0.000 A 
ATOM      7  C   UNL     1      47.243   6.002  14.056  0.00  0.00    +0.000 A 
ENDROOT
BRANCH   6   8
ATOM      8  C   UNL     1      45.642   5.322  12.237  0.00  0.00    +0.000 A 
ATOM      9  C   UNL     1      44.689   4.800  13.128  0.00  0.00    +0.000 A 
ATOM     10  C   UNL     1      43.556   4.125  12.665  0.00  0.00    +0.000 A 
ATOM     11  C   UNL     1      43.348   3.954  11.299  0.00  0.00    +0.000 A 
ATOM     12  C   UNL     1      44.255   4.489  10.390  0.00  0.00    +0.000 A 
ATOM     13  C   UNL     1      45.407   5.129  10.863  0.00  0.00    +0.000 A 
BRANCH  12  14
ATOM     14  O   UNL     1      44.158   4.411   9.034  0.00  0.00    +0.000 OA
BRANCH  14  15
ATOM     15  C   UNL     1      45.072   3.586   8.322  0.00  0.00    +0.000 C 
ATOM     16  F   UNL     1      45.427   2.455   8.966  0.00  0.00    +0.000 F 
ATOM     17  F   UNL     1      44.505   3.230   7.147  0.00  0.00    +0.000 F 
ATOM     18  F   UNL     1      46.187   4.298   8.052  0.00  0.00    +0.000 F 
ENDBRANCH  14  15
ENDBRANCH  12  14
ENDBRANCH   6   8
BRANCH   1  19
ATOM     19  C   UNL     1      48.769   6.622  15.981  0.00  0.00    +0.000 C 
BRANCH  19  24
ATOM     20  C   UNL     1      51.049   2.523  17.387  0.00  0.00    +0.000 A 
ATOM     21  C   UNL     1      51.337   3.862  17.462  0.00  0.00    +0.000 A 
ATOM     22  N   UNL     1      50.439   4.831  17.183  0.00  0.00    +0.000 NA
ATOM     23  C   UNL     1      49.212   4.447  16.808  0.00  0.00    +0.000 A 
ATOM     24  N   UNL     1      48.240   5.399  16.544  0.00  0.00    +0.000 N 
ATOM     25  N   UNL     1      48.845   3.164  16.669  0.00  0.00    +0.000 NA
ATOM     26  C   UNL     1      49.776   2.223  16.959  0.00  0.00    +0.000 A 
ATOM     27  H   UNL     1      47.512   4.944  16.005  0.00  0.00    +0.000 HD
BRANCH  20  29
ATOM     28  N   UNL     1      51.519   0.266  18.141  0.00  0.00    +0.000 N 
ATOM     29  C   UNL     1      52.014   1.464  17.702  0.00  0.00    +0.000 C 
ATOM     30  O   UNL     1      53.215   1.638  17.549  0.00  0.00    +0.000 OA
ATOM     31  H   UNL     1      52.194  -0.481  18.256  0.00  0.00    +0.000 HD
ATOM     32  H   UNL     1      50.551  -0.007  18.035  0.00  0.00    +0.000 HD
ENDBRANCH  20  29
ENDBRANCH  19  24
ENDBRANCH   1  19
TORSDOF 6
ENDMDL
MODEL 7
REMARK VINA RESULT:    -7.878      5.457      8.538
REMARK INTER + INTRA:         -11.906
REMARK INTER:                 -10.840
REMARK INTRA:                  -1.066
REMARK UNBOUND:                -1.265
REMARK  Name = 
REMARK  6 active torsions:
REMARK  status: ('A' for Active; 'I' for Inactive)
REMARK    1  A    between atoms: C_2  and  C_4
REMARK    2  A    between atoms: N_8  and  C_9
REMARK    3  A    between atoms: C_9  and  C_10
REMARK    4  A    between atoms: C_15  and  C_16
REMARK    5  A    between atoms: C_20  and  O_21
REMARK    6  A    between atoms: O_21  and  C_22
REMARK                            x       y       z     vdW  Elec       q    Type
REMARK                         _______ _______ _______ _____ _____    ______ ____
ROOT
ATOM      1  C   UNL     1      47.739   7.321  13.337  0.00  0.00    +0.000 A 
ATOM      2  C   UNL     1      47.006   8.506  13.445  0.00  0.00    +0.000 A 
ATOM      3  C   UNL     1      45.774   8.610  12.816  0.00  0.00    +0.000 A 
ATOM      4  F   UNL     1      45.081   9.752  12.913  0.00  0.00    +0.000 F 
ATOM      5  C   UNL     1      45.243   7.549  12.087  0.00  0.00    +0.000 A 
ATOM      6  C   UNL     1      45.930   6.328  11.989  0.00  0.00    +0.000 A 
ATOM      7  C   UNL     1      47.186   6.240  12.626  0.00  0.00    +0.000 A 
ENDROOT
BRANCH   6   8
ATOM      8  C   UNL     1      45.351   5.162  11.283  0.00  0.00    +0.000 A 
ATOM      9  C   UNL     1      44.628   4.169  11.964  0.00  0.00    +0.000 A 
ATOM     10  C   UNL     1      44.042   3.100  11.282  0.00  0.00    +0.000 A 
ATOM     11  C   UNL     1      44.164   2.997   9.898  0.00  0.00    +0.000 A 
ATOM     12  C   UNL     1      44.843   3.982   9.189  0.00  0.00    +0.000 A 
ATOM     13  C   UNL     1      45.462   5.029   9.886  0.00  0.00    +0.000 A 
BRANCH  12  14
ATOM     14  O   UNL     1      45.017   4.012   7.840  0.00  0.00    +0.000 OA
BRANCH  14  15
ATOM     15  C   UNL     1      46.223   3.501   7.286  0.00  0.00    +0.000 C 
ATOM     16  F   UNL     1      47.257   4.367   7.296  0.00  0.00    +0.000 F 
ATOM     17  F   UNL     1      46.593   2.410   7.995  0.00  0.00    +0.000 F 
ATOM     18  F   UNL     1      45.993   3.116   6.012  0.00  0.00    +0.000 F 
ENDBRANCH  14  15
ENDBRANCH  12  14
ENDBRANCH   6   8
BRANCH   1  19
ATOM     19  C   UNL     1      49.092   7.196  13.994  0.00  0.00    +0.000 C 
BRANCH  19  24
ATOM     20  C   UNL     1      48.998   5.307  18.511  0.00  0.00    +0.000 A 
ATOM     21  C   UNL     1      49.626   4.973  17.337  0.00  0.00    +0.000 A 
ATOM     22  N   UNL     1      49.659   5.782  16.257  0.00  0.00    +0.000 NA
ATOM     23  C   UNL     1      49.035   6.964  16.351  0.00  0.00    +0.000 A 
ATOM     24  N   UNL     1      49.067   7.849  15.285  0.00  0.00    +0.000 N 
ATOM     25  N   UNL     1      48.363   7.365  17.440  0.00  0.00    +0.000 NA
ATOM     26  C   UNL     1      48.354   6.523  18.503  0.00  0.00    +0.000 A 
ATOM     27  H   UNL     1      48.318   8.517  15.427  0.00  0.00    +0.000 HD
BRANCH  20  29
ATOM     28  N   UNL     1      48.344   3.230  19.578  0.00  0.00    +0.000 N 
ATOM     29  C   UNL     1      48.970   4.440  19.695  0.00  0.00    +0.000 C 
ATOM     30  O   UNL     1      49.515   4.777  20.737  0.00  0.00    +0.000 OA
ATOM     31  H   UNL     1      48.423   2.607  20.374  0.00  0.00    +0.000 HD
ATOM     32  H   UNL     1      48.115   2.806  18.689  0.00  0.00    +0.000 HD
ENDBRANCH  20  29
ENDBRANCH  19  24
ENDBRANCH   1  19
TORSDOF 6
ENDMDL
MODEL 8
REMARK VINA RESULT:    -7.658      1.677      2.263
REMARK INTER + INTRA:         -11.609
REMARK INTER:                 -10.870
REMARK INTRA:                  -0.738
REMARK UNBOUND:                -1.265
REMARK  Name = 
REMARK  6 active torsions:
REMARK  status: ('A' for Active; 'I' for Inactive)
REMARK    1  A    between atoms: C_2  and  C_4
REMARK    2  A    between atoms: N_8  and  C_9
REMARK    3  A    between atoms: C_9  and  C_10
REMARK    4  A    between atoms: C_15  and  C_16
REMARK    5  A    between atoms: C_20  and  O_21
REMARK    6  A    between atoms: O_21  and  C_22
REMARK                            x       y       z     vdW  Elec       q    Type
REMARK                         _______ _______ _______ _____ _____    ______ ____
ROOT
ATOM      1  C   UNL     1      44.377   5.098  11.750  0.00  0.00    +0.000 A 
ATOM      2  C   UNL     1      45.287   4.781  12.762  0.00  0.00    +0.000 A 
ATOM      3  C   UNL     1      46.043   5.788  13.344  0.00  0.00    +0.000 A 
ATOM      4  F   UNL     1      46.923   5.477  14.306  0.00  0.00    +0.000 F 
ATOM      5  C   UNL     1      45.904   7.116  12.950  0.00  0.00    +0.000 A 
ATOM      6  C   UNL     1      44.971   7.480  11.966  0.00  0.00    +0.000 A 
ATOM      7  C   UNL     1      44.216   6.445  11.376  0.00  0.00    +0.000 A 
ENDROOT
BRANCH   6   8
ATOM      8  C   UNL     1      44.752   8.895  11.584  0.00  0.00    +0.000 A 
ATOM      9  C   UNL     1      45.664   9.904  11.935  0.00  0.00    +0.000 A 
ATOM     10  C   UNL     1      45.475  11.227  11.527  0.00  0.00    +0.000 A 
ATOM     11  C   UNL     1      44.368  11.574  10.756  0.00  0.00    +0.000 A 
ATOM     12  C   UNL     1      43.465  10.592  10.362  0.00  0.00    +0.000 A 
ATOM     13  C   UNL     1      43.641   9.276  10.810  0.00  0.00    +0.000 A 
BRANCH  12  14
ATOM     14  O   UNL     1      42.359  10.793   9.595  0.00  0.00    +0.000 OA
BRANCH  14  15
ATOM     15  C   UNL     1      41.110  11.029  10.232  0.00  0.00    +0.000 C 
ATOM     16  F   UNL     1      40.441   9.912  10.588  0.00  0.00    +0.000 F 
ATOM     17  F   UNL     1      41.328  11.752  11.354  0.00  0.00    +0.000 F 
ATOM     18  F   UNL     1      40.327  11.758   9.408  0.00  0.00    +0.000 F 
ENDBRANCH  14  15
ENDBRANCH  12  14
ENDBRANCH   6   8
BRANCH   1  19
ATOM     19  C   UNL     1      43.562   4.014  11.088  0.00  0.00    +0.000 C 
BRANCH  19  24
ATOM     20  C   UNL     1      46.497   2.754   7.376  0.00  0.00    +0.000 A 
ATOM     21  C   UNL     1      46.202   3.931   8.018  0.00  0.00    +0.000 A 
ATOM     22  N   UNL     1      45.502   3.993   9.171  0.00  0.00    +0.000 NA
ATOM     23  C   UNL     1      45.075   2.837   9.696  0.00  0.00    +0.000 A 
ATOM     24  N   UNL     1      44.382   2.838  10.897  0.00  0.00    +0.000 N 
ATOM     25  N   UNL     1      45.280   1.640   9.126  0.00  0.00    +0.000 NA
ATOM     26  C   UNL     1      45.987   1.623   7.970  0.00  0.00    +0.000 A 
ATOM     27  H   UNL     1      43.901   1.948  10.967  0.00  0.00    +0.000 HD
BRANCH  20  29
ATOM     28  N   UNL     1      48.608   2.411   6.233  0.00  0.00    +0.000 N 
ATOM     29  C   UNL     1      47.270   2.677   6.132  0.00  0.00    +0.000 C 
ATOM     30  O   UNL     1      46.729   2.816   5.043  0.00  0.00    +0.000 OA
ATOM     31  H   UNL     1      49.101   2.263   5.360  0.00  0.00    +0.000 HD
ATOM     32  H   UNL     1      49.039   2.038   7.068  0.00  0.00    +0.000 HD
ENDBRANCH  20  29
ENDBRANCH  19  24
ENDBRANCH   1  19
TORSDOF 6
ENDMDL
MODEL 9
REMARK VINA RESULT:    -7.185      4.395      8.252
REMARK INTER + INTRA:         -10.971
REMARK INTER:                  -9.959
REMARK INTRA:                  -1.011
REMARK UNBOUND:                -1.265
REMARK  Name = 
REMARK  6 active torsions:
REMARK  status: ('A' for Active; 'I' for Inactive)
REMARK    1  A    between atoms: C_2  and  C_4
REMARK    2  A    between atoms: N_8  and  C_9
REMARK    3  A    between atoms: C_9  and  C_10
REMARK    4  A    between atoms: C_15  and  C_16
REMARK    5  A    between atoms: C_20  and  O_21
REMARK    6  A    between atoms: O_21  and  C_22
REMARK                            x       y       z     vdW  Elec       q    Type
REMARK                         _______ _______ _______ _____ _____    ______ ____
ROOT
ATOM      1  C   UNL     1      46.009   9.922  11.907  0.00  0.00    +0.000 A 
ATOM      2  C   UNL     1      47.373  10.203  12.027  0.00  0.00    +0.000 A 
ATOM      3  C   UNL     1      48.281   9.161  12.145  0.00  0.00    +0.000 A 
ATOM      4  F   UNL     1      49.586   9.438  12.271  0.00  0.00    +0.000 F 
ATOM      5  C   UNL     1      47.862   7.834  12.134  0.00  0.00    +0.000 A 
ATOM      6  C   UNL     1      46.505   7.509  11.976  0.00  0.00    +0.000 A 
ATOM      7  C   UNL     1      45.593   8.579  11.865  0.00  0.00    +0.000 A 
ENDROOT
BRANCH   6   8
ATOM      8  C   UNL     1      46.046   6.103  11.886  0.00  0.00    +0.000 A 
ATOM      9  C   UNL     1      46.112   5.232  12.986  0.00  0.00    +0.000 A 
ATOM     10  C   UNL     1      45.629   3.923  12.907  0.00  0.00    +0.000 A 
ATOM     11  C   UNL     1      45.067   3.452  11.723  0.00  0.00    +0.000 A 
ATOM     12  C   UNL     1      44.953   4.300  10.626  0.00  0.00    +0.000 A 
ATOM     13  C   UNL     1      45.477   5.597  10.703  0.00  0.00    +0.000 A 
BRANCH  12  14
ATOM     14  O   UNL     1      44.408   3.972   9.423  0.00  0.00    +0.000 OA
BRANCH  14  15
ATOM     15  C   UNL     1      45.242   3.420   8.413  0.00  0.00    +0.000 C 
ATOM     16  F   UNL     1      45.785   2.224   8.724  0.00  0.00    +0.000 F 
ATOM     17  F   UNL     1      44.508   3.258   7.289  0.00  0.00    +0.000 F 
ATOM     18  F   UNL     1      46.238   4.290   8.142  0.00  0.00    +0.000 F 
ENDBRANCH  14  15
ENDBRANCH  12  14
ENDBRANCH   6   8
BRANCH   1  19
ATOM     19  C   UNL     1      45.004  11.042  11.800  0.00  0.00    +0.000 C 
BRANCH  19  24
ATOM     20  C   UNL     1      40.110  10.884  11.898  0.00  0.00    +0.000 A 
ATOM     21  C   UNL     1      41.063  11.688  12.473  0.00  0.00    +0.000 A 
ATOM     22  N   UNL     1      42.367  11.660  12.124  0.00  0.00    +0.000 NA
ATOM     23  C   UNL     1      42.733  10.790  11.174  0.00  0.00    +0.000 A 
ATOM     24  N   UNL     1      44.052  10.742  10.752  0.00  0.00    +0.000 N 
ATOM     25  N   UNL     1      41.885   9.937  10.580  0.00  0.00    +0.000 NA
ATOM     26  C   UNL     1      40.585   9.998  10.959  0.00  0.00    +0.000 A 
ATOM     27  H   UNL     1      44.184   9.856  10.277  0.00  0.00    +0.000 HD
BRANCH  20  29
ATOM     28  N   UNL     1      38.181  12.106  12.714  0.00  0.00    +0.000 N 
ATOM     29  C   UNL     1      38.689  10.920  12.260  0.00  0.00    +0.000 C 
ATOM     30  O   UNL     1      37.979   9.932  12.130  0.00  0.00    +0.000 OA
ATOM     31  H   UNL     1      37.179  12.135  12.862  0.00  0.00    +0.000 HD
ATOM     32  H   UNL     1      38.649  12.994  12.593  0.00  0.00    +0.000 HD
ENDBRANCH  20  29
ENDBRANCH  19  24
ENDBRANCH   1  19
TORSDOF 6
ENDMDL
