MODEL 1
REMARK VINA RESULT:    -8.225      0.000      0.000
REMARK INTER + INTRA:         -12.545
REMARK INTER:                 -11.591
REMARK INTRA:                  -0.954
REMARK UNBOUND:                -0.954
REMARK  Name = 
REMARK  8 active torsions:
REMARK  status: ('A' for Active; 'I' for Inactive)
REMARK    1  A    between atoms: C_1  and  O_2
REMARK    2  A    between atoms: O_2  and  C_3
REMARK    3  A    between atoms: C_7  and  C_8
REMARK    4  A    between atoms: C_8  and  C_9
REMARK    5  A    between atoms: C_9  and  N_10
REMARK    6  A    between atoms: C_14  and  C_15
REMARK    7  A    between atoms: C_15  and  N_16
REMARK    8  A    between atoms: C_17  and  C_19
REMARK                            x       y       z     vdW  Elec       q    Type
REMARK                         _______ _______ _______ _____ _____    ______ ____
ROOT
ATOM      1  N   UNL     1      44.823   3.161  12.463  0.00  0.00    +0.000 N 
ATOM      2  C   UNL     1      45.712   4.176  12.884  0.00  0.00    +0.000 A 
ATOM      3  C   UNL     1      46.829   3.878  13.653  0.00  0.00    +0.000 A 
ATOM      4  N   UNL     1      47.715   4.795  14.118  0.00  0.00    +0.000 NA
ATOM      5  C   UNL     1      47.421   6.075  13.819  0.00  0.00    +0.000 A 
ATOM      6  N   UNL     1      46.330   6.438  13.108  0.00  0.00    +0.000 NA
ATOM      7  N   UNL     1      45.470   5.475  12.641  0.00  0.00    +0.000 NA
ATOM      8  H   UNL     1      45.346   2.312  12.260  0.00  0.00    +0.000 HD
ENDROOT
BRANCH   1   9
ATOM      9  C   UNL     1      44.021   3.575  11.298  0.00  0.00    +0.000 C 
BRANCH   9  10
ATOM     10  C   UNL     1      44.013   2.473  10.238  0.00  0.00    +0.000 C 
BRANCH  10  15
ATOM     11  C   UNL     1      46.584   1.819   7.696  0.00  0.00    +0.000 A 
ATOM     12  C   UNL     1      46.873   3.056   7.144  0.00  0.00    +0.000 A 
ATOM     13  C   UNL     1      46.219   4.169   7.655  0.00  0.00    +0.000 A 
ATOM     14  C   UNL     1      45.290   4.005   8.682  0.00  0.00    +0.000 A 
ATOM     15  C   UNL     1      45.040   2.723   9.163  0.00  0.00    +0.000 A 
ATOM     16  N   UNL     1      45.691   1.633   8.693  0.00  0.00    +0.000 NA
BRANCH  11  18
ATOM     17  C   UNL     1      46.716  -0.509   7.619  0.00  0.00    +0.000 C 
ATOM     18  O   UNL     1      47.255   0.732   7.171  0.00  0.00    +0.000 OA
ENDBRANCH  11  18
ENDBRANCH  10  15
ENDBRANCH   9  10
ENDBRANCH   1   9
BRANCH   5  19
ATOM     19  C   UNL     1      48.348   7.177  14.277  0.00  0.00    +0.000 C 
BRANCH  19  20
ATOM     20  N   UNL     1      48.399   7.310  15.723  0.00  0.00    +0.000 N 
ATOM     21  C   UNL     1      49.436   6.779  16.445  0.00  0.00    +0.000 C 
ATOM     22  O   UNL     1      50.395   6.241  15.898  0.00  0.00    +0.000 OA
ATOM     23  H   UNL     1      47.520   7.512  16.192  0.00  0.00    +0.000 HD
BRANCH  21  24
ATOM     24  C   UNL     1      49.372   6.933  17.902  0.00  0.00    +0.000 A 
ATOM     25  C   UNL     1      49.644   8.167  18.477  0.00  0.00    +0.000 A 
ATOM     26  S   UNL     1      49.507   8.177  20.177  0.00  0.00    +0.000 S 
ATOM     27  C   UNL     1      49.126   6.520  20.211  0.00  0.00    +0.000 A 
ATOM     28  N   UNL     1      48.916   5.867  21.393  0.00  0.00    +0.000 NA
ATOM     29  C   UNL     1      48.664   4.606  21.266  0.00  0.00    +0.000 A 
ATOM     30  N   UNL     1      48.593   3.941  20.072  0.00  0.00    +0.000 N 
ATOM     31  C   UNL     1      48.748   4.565  18.859  0.00  0.00    +0.000 A 
ATOM     32  O   UNL     1      48.598   3.960  17.805  0.00  0.00    +0.000 OA
ATOM     33  C   UNL     1      49.070   5.976  18.939  0.00  0.00    +0.000 A 
ATOM     34  H   UNL     1      48.367   2.957  20.041  0.00  0.00    +0.000 HD
ENDBRANCH  21  24
ENDBRANCH  19  20
ENDBRANCH   5  19
TORSDOF 7
ENDMDL
MODEL 2
REMARK VINA RESULT:    -8.212      3.450      4.361
REMARK INTER + INTRA:         -12.527
REMARK INTER:                 -11.598
REMARK INTRA:                  -0.929
REMARK UNBOUND:                -0.954
REMARK  Name = 
REMARK  8 active torsions:
REMARK  status: ('A' for Active; 'I' for Inactive)
REMARK    1  A    between atoms: C_1  and  O_2
REMARK    2  A    between atoms: O_2  and  C_3
REMARK    3  A    between atoms: C_7  and  C_8
REMARK    4  A    between atoms: C_8  and  C_9
REMARK    5  A    between atoms: C_9  and  N_10
REMARK    6  A    between atoms: C_14  and  C_15
REMARK    7  A    between atoms: C_15  and  N_16
REMARK    8  A    between atoms: C_17  and  C_19
REMARK                            x       y       z     vdW  Elec       q    Type
REMARK                         _______ _______ _______ _____ _____    ______ ____
ROOT
ATOM      1  N   UNL     1      46.739   6.190  12.657  0.00  0.00    +0.000 N 
ATOM      2  C   UNL     1      46.980   5.472  13.851  0.00  0.00    +0.000 A 
ATOM      3  C   UNL     1      47.919   5.910  14.774  0.00  0.00    +0.000 A 
ATOM      4  N   UNL     1      48.227   5.268  15.930  0.00  0.00    +0.000 NA
ATOM      5  C   UNL     1      47.577   4.104  16.126  0.00  0.00    +0.000 A 
ATOM      6  N   UNL     1      46.679   3.601  15.250  0.00  0.00    +0.000 NA
ATOM      7  N   UNL     1      46.384   4.295  14.103  0.00  0.00    +0.000 NA
ATOM      8  H   UNL     1      46.822   7.187  12.836  0.00  0.00    +0.000 HD
ENDROOT
BRANCH   1   9
ATOM      9  C   UNL     1      45.425   5.868  12.073  0.00  0.00    +0.000 C 
BRANCH   9  10
ATOM     10  C   UNL     1      45.421   6.163  10.573  0.00  0.00    +0.000 C 
BRANCH  10  15
ATOM     11  C   UNL     1      45.991   3.854   7.772  0.00  0.00    +0.000 A 
ATOM     12  C   UNL     1      45.523   2.627   8.210  0.00  0.00    +0.000 A 
ATOM     13  C   UNL     1      44.957   2.558   9.476  0.00  0.00    +0.000 A 
ATOM     14  C   UNL     1      44.896   3.708  10.262  0.00  0.00    +0.000 A 
ATOM     15  C   UNL     1      45.412   4.896   9.754  0.00  0.00    +0.000 A 
ATOM     16  N   UNL     1      45.942   4.984   8.512  0.00  0.00    +0.000 NA
BRANCH  11  18
ATOM     17  C   UNL     1      46.763   2.592   5.967  0.00  0.00    +0.000 C 
ATOM     18  O   UNL     1      46.544   3.893   6.507  0.00  0.00    +0.000 OA
ENDBRANCH  11  18
ENDBRANCH  10  15
ENDBRANCH   9  10
ENDBRANCH   1   9
BRANCH   5  19
ATOM     19  C   UNL     1      47.834   3.313  17.386  0.00  0.00    +0.000 C 
BRANCH  19  20
ATOM     20  N   UNL     1      49.249   3.173  17.689  0.00  0.00    +0.000 N 
ATOM     21  C   UNL     1      50.027   2.264  17.022  0.00  0.00    +0.000 C 
ATOM     22  O   UNL     1      49.584   1.590  16.096  0.00  0.00    +0.000 OA
ATOM     23  H   UNL     1      49.556   3.520  18.594  0.00  0.00    +0.000 HD
BRANCH  21  24
ATOM     24  C   UNL     1      51.433   2.174  17.432  0.00  0.00    +0.000 A 
ATOM     25  C   UNL     1      52.006   0.929  17.657  0.00  0.00    +0.000 A 
ATOM     26  S   UNL     1      53.650   1.003  18.108  0.00  0.00    +0.000 S 
ATOM     27  C   UNL     1      53.642   2.703  18.067  0.00  0.00    +0.000 A 
ATOM     28  N   UNL     1      54.757   3.423  18.394  0.00  0.00    +0.000 NA
ATOM     29  C   UNL     1      54.595   4.704  18.345  0.00  0.00    +0.000 A 
ATOM     30  N   UNL     1      53.430   5.330  17.993  0.00  0.00    +0.000 N 
ATOM     31  C   UNL     1      52.301   4.649  17.610  0.00  0.00    +0.000 A 
ATOM     32  O   UNL     1      51.301   5.237  17.222  0.00  0.00    +0.000 OA
ATOM     33  C   UNL     1      52.411   3.206  17.679  0.00  0.00    +0.000 A 
ATOM     34  H   UNL     1      53.377   6.339  17.951  0.00  0.00    +0.000 HD
ENDBRANCH  21  24
ENDBRANCH  19  20
ENDBRANCH   5  19
TORSDOF 7
ENDMDL
MODEL 3
REMARK VINA RESULT:    -7.940      3.527      4.258
REMARK INTER + INTRA:         -12.143
REMARK INTER:                 -11.320
REMARK INTRA:                  -0.823
REMARK UNBOUND:                -0.954
REMARK  Name = 
REMARK  8 active torsions:
REMARK  status: ('A' for Active; 'I' for Inactive)
REMARK    1  A    between atoms: C_1  and  O_2
REMARK    2  A    between atoms: O_2  and  C_3
REMARK    3  A    between atoms: C_7  and  C_8
REMARK    4  A    between atoms: C_8  and  C_9
REMARK    5  A    between atoms: C_9  and  N_10
REMARK    6  A    between atoms: C_14  and  C_15
REMARK    7  A    between atoms: C_15  and  N_16
REMARK    8  A    between atoms: C_17  and  C_19
REMARK                            x       y       z     vdW  Elec       q    Type
REMARK                         _______ _______ _______ _____ _____    ______ ____
ROOT
ATOM      1  N   UNL     1      46.488   5.909  12.459  0.00  0.00    +0.000 N 
ATOM      2  C   UNL     1      46.916   5.378  13.697  0.00  0.00    +0.000 A 
ATOM      3  C   UNL     1      47.877   6.025  14.461  0.00  0.00    +0.000 A 
ATOM      4  N   UNL     1      48.360   5.571  15.646  0.00  0.00    +0.000 NA
ATOM      5  C   UNL     1      47.868   4.381  16.043  0.00  0.00    +0.000 A 
ATOM      6  N   UNL     1      46.959   3.679  15.329  0.00  0.00    +0.000 NA
ATOM      7  N   UNL     1      46.484   4.187  14.145  0.00  0.00    +0.000 NA
ATOM      8  H   UNL     1      46.471   6.924  12.510  0.00  0.00    +0.000 HD
ENDROOT
BRANCH   1   9
ATOM      9  C   UNL     1      45.172   5.381  12.056  0.00  0.00    +0.000 C 
BRANCH   9  10
ATOM     10  C   UNL     1      44.903   5.687  10.582  0.00  0.00    +0.000 C 
BRANCH  10  15
ATOM     11  C   UNL     1      45.947   3.622   7.727  0.00  0.00    +0.000 A 
ATOM     12  C   UNL     1      45.629   2.322   8.083  0.00  0.00    +0.000 A 
ATOM     13  C   UNL     1      45.008   2.113   9.307  0.00  0.00    +0.000 A 
ATOM     14  C   UNL     1      44.742   3.203  10.135  0.00  0.00    +0.000 A 
ATOM     15  C   UNL     1      45.117   4.474   9.711  0.00  0.00    +0.000 A 
ATOM     16  N   UNL     1      45.699   4.696   8.510  0.00  0.00    +0.000 NA
BRANCH  11  18
ATOM     17  C   UNL     1      47.399   2.703   6.148  0.00  0.00    +0.000 C 
ATOM     18  O   UNL     1      46.560   3.800   6.502  0.00  0.00    +0.000 OA
ENDBRANCH  11  18
ENDBRANCH  10  15
ENDBRANCH   9  10
ENDBRANCH   1   9
BRANCH   5  19
ATOM     19  C   UNL     1      48.327   3.787  17.354  0.00  0.00    +0.000 C 
BRANCH  19  20
ATOM     20  N   UNL     1      49.746   3.475  17.368  0.00  0.00    +0.000 N 
ATOM     21  C   UNL     1      50.581   4.027  18.304  0.00  0.00    +0.000 C 
ATOM     22  O   UNL     1      50.156   4.741  19.208  0.00  0.00    +0.000 OA
ATOM     23  H   UNL     1      50.140   3.111  16.504  0.00  0.00    +0.000 HD
BRANCH  21  24
ATOM     24  C   UNL     1      52.003   3.679  18.206  0.00  0.00    +0.000 A 
ATOM     25  C   UNL     1      52.968   4.647  18.448  0.00  0.00    +0.000 A 
ATOM     26  S   UNL     1      54.567   4.071  18.310  0.00  0.00    +0.000 S 
ATOM     27  C   UNL     1      54.029   2.518  17.874  0.00  0.00    +0.000 A 
ATOM     28  N   UNL     1      54.915   1.521  17.574  0.00  0.00    +0.000 NA
ATOM     29  C   UNL     1      54.362   0.404  17.234  0.00  0.00    +0.000 A 
ATOM     30  N   UNL     1      53.012   0.188  17.173  0.00  0.00    +0.000 N 
ATOM     31  C   UNL     1      52.086   1.144  17.512  0.00  0.00    +0.000 A 
ATOM     32  O   UNL     1      50.888   0.896  17.527  0.00  0.00    +0.000 OA
ATOM     33  C   UNL     1      52.647   2.432  17.869  0.00  0.00    +0.000 A 
ATOM     34  H   UNL     1      52.644  -0.719  16.922  0.00  0.00    +0.000 HD
ENDBRANCH  21  24
ENDBRANCH  19  20
ENDBRANCH   5  19
TORSDOF 7
ENDMDL
MODEL 4
REMARK VINA RESULT:    -7.882      3.224      8.990
REMARK INTER + INTRA:         -12.061
REMARK INTER:                 -10.558
REMARK INTRA:                  -1.504
REMARK UNBOUND:                -0.954
REMARK  Name = 
REMARK  8 active torsions:
REMARK  status: ('A' for Active; 'I' for Inactive)
REMARK    1  A    between atoms: C_1  and  O_2
REMARK    2  A    between atoms: O_2  and  C_3
REMARK    3  A    between atoms: C_7  and  C_8
REMARK    4  A    between atoms: C_8  and  C_9
REMARK    5  A    between atoms: C_9  and  N_10
REMARK    6  A    between atoms: C_14  and  C_15
REMARK    7  A    between atoms: C_15  and  N_16
REMARK    8  A    between atoms: C_17  and  C_19
REMARK                            x       y       z     vdW  Elec       q    Type
REMARK                         _______ _______ _______ _____ _____    ______ ____
ROOT
ATOM      1  N   UNL     1      50.215   7.654  17.082  0.00  0.00    +0.000 N 
ATOM      2  C   UNL     1      49.602   7.686  15.809  0.00  0.00    +0.000 A 
ATOM      3  C   UNL     1      48.896   8.802  15.379  0.00  0.00    +0.000 A 
ATOM      4  N   UNL     1      48.260   8.903  14.184  0.00  0.00    +0.000 NA
ATOM      5  C   UNL     1      48.312   7.797  13.415  0.00  0.00    +0.000 A 
ATOM      6  N   UNL     1      48.948   6.664  13.789  0.00  0.00    +0.000 NA
ATOM      7  N   UNL     1      49.596   6.614  14.998  0.00  0.00    +0.000 NA
ATOM      8  H   UNL     1      50.571   8.579  17.312  0.00  0.00    +0.000 HD
ENDROOT
BRANCH   1   9
ATOM      9  C   UNL     1      51.285   6.645  17.157  0.00  0.00    +0.000 C 
BRANCH   9  10
ATOM     10  C   UNL     1      50.997   5.644  18.277  0.00  0.00    +0.000 C 
BRANCH  10  15
ATOM     11  C   UNL     1      48.464   3.360  16.909  0.00  0.00    +0.000 A 
ATOM     12  C   UNL     1      49.128   2.163  16.700  0.00  0.00    +0.000 A 
ATOM     13  C   UNL     1      50.467   2.088  17.057  0.00  0.00    +0.000 A 
ATOM     14  C   UNL     1      51.097   3.210  17.594  0.00  0.00    +0.000 A 
ATOM     15  C   UNL     1      50.362   4.382  17.749  0.00  0.00    +0.000 A 
ATOM     16  N   UNL     1      49.049   4.462  17.429  0.00  0.00    +0.000 NA
BRANCH  11  18
ATOM     17  C   UNL     1      46.916   4.141  15.348  0.00  0.00    +0.000 C 
ATOM     18  O   UNL     1      47.132   3.404  16.548  0.00  0.00    +0.000 OA
ENDBRANCH  11  18
ENDBRANCH  10  15
ENDBRANCH   9  10
ENDBRANCH   1   9
BRANCH   5  19
ATOM     19  C   UNL     1      47.648   7.804  12.059  0.00  0.00    +0.000 C 
BRANCH  19  20
ATOM     20  N   UNL     1      46.930   6.573  11.773  0.00  0.00    +0.000 N 
ATOM     21  C   UNL     1      45.560   6.529  11.810  0.00  0.00    +0.000 C 
ATOM     22  O   UNL     1      44.887   7.537  12.007  0.00  0.00    +0.000 OA
ATOM     23  H   UNL     1      47.456   5.708  11.865  0.00  0.00    +0.000 HD
BRANCH  21  24
ATOM     24  C   UNL     1      44.935   5.229  11.547  0.00  0.00    +0.000 A 
ATOM     25  C   UNL     1      44.213   4.596  12.550  0.00  0.00    +0.000 A 
ATOM     26  S   UNL     1      43.539   3.104  12.072  0.00  0.00    +0.000 S 
ATOM     27  C   UNL     1      44.227   3.226  10.522  0.00  0.00    +0.000 A 
ATOM     28  N   UNL     1      44.064   2.234   9.596  0.00  0.00    +0.000 NA
ATOM     29  C   UNL     1      44.666   2.451   8.473  0.00  0.00    +0.000 A 
ATOM     30  N   UNL     1      45.406   3.566   8.188  0.00  0.00    +0.000 N 
ATOM     31  C   UNL     1      45.557   4.609   9.068  0.00  0.00    +0.000 A 
ATOM     32  O   UNL     1      46.157   5.628   8.754  0.00  0.00    +0.000 OA
ATOM     33  C   UNL     1      44.933   4.407  10.360  0.00  0.00    +0.000 A 
ATOM     34  H   UNL     1      45.833   3.685   7.279  0.00  0.00    +0.000 HD
ENDBRANCH  21  24
ENDBRANCH  19  20
ENDBRANCH   5  19
TORSDOF 7
ENDMDL
MODEL 5
REMARK VINA RESULT:    -7.792      2.393      3.360
REMARK INTER + INTRA:         -11.934
REMARK INTER:                 -10.909
REMARK INTRA:                  -1.025
REMARK UNBOUND:                -0.954
REMARK  Name = 
REMARK  8 active torsions:
REMARK  status: ('A' for Active; 'I' for Inactive)
REMARK    1  A    between atoms: C_1  and  O_2
REMARK    2  A    between atoms: O_2  and  C_3
REMARK    3  A    between atoms: C_7  and  C_8
REMARK    4  A    between atoms: C_8  and  C_9
REMARK    5  A    between atoms: C_9  and  N_10
REMARK    6  A    between atoms: C_14  and  C_15
REMARK    7  A    between atoms: C_15  and  N_16
REMARK    8  A    between atoms: C_17  and  C_19
REMARK                            x       y       z     vdW  Elec       q    Type
REMARK                         _______ _______ _______ _____ _____    ______ ____
ROOT
ATOM      1  N   UNL     1      45.566   5.482  11.747  0.00  0.00    +0.000 N 
ATOM      2  C   UNL     1      46.183   5.258  12.999  0.00  0.00    +0.000 A 
ATOM      3  C   UNL     1      47.346   5.925  13.356  0.00  0.00    +0.000 A 
ATOM      4  N   UNL     1      48.012   5.749  14.526  0.00  0.00    +0.000 NA
ATOM      5  C   UNL     1      47.488   4.817  15.346  0.00  0.00    +0.000 A 
ATOM      6  N   UNL     1      46.381   4.103  15.044  0.00  0.00    +0.000 NA
ATOM      7  N   UNL     1      45.728   4.329  13.857  0.00  0.00    +0.000 NA
ATOM      8  H   UNL     1      45.670   6.459  11.486  0.00  0.00    +0.000 HD
ENDROOT
BRANCH   1   9
ATOM      9  C   UNL     1      44.146   5.087  11.751  0.00  0.00    +0.000 C 
BRANCH   9  10
ATOM     10  C   UNL     1      43.615   4.994  10.320  0.00  0.00    +0.000 C 
BRANCH  10  15
ATOM     11  C   UNL     1      45.828   3.608   7.734  0.00  0.00    +0.000 A 
ATOM     12  C   UNL     1      45.889   2.250   7.998  0.00  0.00    +0.000 A 
ATOM     13  C   UNL     1      45.139   1.755   9.056  0.00  0.00    +0.000 A 
ATOM     14  C   UNL     1      44.371   2.633   9.820  0.00  0.00    +0.000 A 
ATOM     15  C   UNL     1      44.385   3.988   9.502  0.00  0.00    +0.000 A 
ATOM     16  N   UNL     1      45.090   4.480   8.457  0.00  0.00    +0.000 NA
BRANCH  11  18
ATOM     17  C   UNL     1      46.946   3.031   5.769  0.00  0.00    +0.000 C 
ATOM     18  O   UNL     1      46.581   4.070   6.673  0.00  0.00    +0.000 OA
ENDBRANCH  11  18
ENDBRANCH  10  15
ENDBRANCH   9  10
ENDBRANCH   1   9
BRANCH   5  19
ATOM     19  C   UNL     1      48.143   4.549  16.680  0.00  0.00    +0.000 C 
BRANCH  19  20
ATOM     20  N   UNL     1      47.741   5.494  17.709  0.00  0.00    +0.000 N 
ATOM     21  C   UNL     1      48.609   6.451  18.165  0.00  0.00    +0.000 C 
ATOM     22  O   UNL     1      49.725   6.599  17.674  0.00  0.00    +0.000 OA
ATOM     23  H   UNL     1      46.948   5.226  18.286  0.00  0.00    +0.000 HD
BRANCH  21  24
ATOM     24  C   UNL     1      48.119   7.329  19.234  0.00  0.00    +0.000 A 
ATOM     25  C   UNL     1      47.943   6.822  20.515  0.00  0.00    +0.000 A 
ATOM     26  S   UNL     1      47.386   7.979  21.638  0.00  0.00    +0.000 S 
ATOM     27  C   UNL     1      47.313   9.186  20.444  0.00  0.00    +0.000 A 
ATOM     28  N   UNL     1      46.870  10.445  20.737  0.00  0.00    +0.000 NA
ATOM     29  C   UNL     1      46.843  11.248  19.725  0.00  0.00    +0.000 A 
ATOM     30  N   UNL     1      47.225  10.915  18.454  0.00  0.00    +0.000 N 
ATOM     31  C   UNL     1      47.722   9.678  18.123  0.00  0.00    +0.000 A 
ATOM     32  O   UNL     1      48.132   9.436  16.996  0.00  0.00    +0.000 OA
ATOM     33  C   UNL     1      47.743   8.722  19.211  0.00  0.00    +0.000 A 
ATOM     34  H   UNL     1      47.202  11.599  17.711  0.00  0.00    +0.000 HD
ENDBRANCH  21  24
ENDBRANCH  19  20
ENDBRANCH   5  19
TORSDOF 7
ENDMDL
MODEL 6
REMARK VINA RESULT:    -7.781      2.260      2.507
REMARK INTER + INTRA:         -11.918
REMARK INTER:                 -10.822
REMARK INTRA:                  -1.097
REMARK UNBOUND:                -0.954
REMARK  Name = 
REMARK  8 active torsions:
REMARK  status: ('A' for Active; 'I' for Inactive)
REMARK    1  A    between atoms: C_1  and  O_2
REMARK    2  A    between atoms: O_2  and  C_3
REMARK    3  A    between atoms: C_7  and  C_8
REMARK    4  A    between atoms: C_8  and  C_9
REMARK    5  A    between atoms: C_9  and  N_10
REMARK    6  A    between atoms: C_14  and  C_15
REMARK    7  A    between atoms: C_15  and  N_16
REMARK    8  A    between atoms: C_17  and  C_19
REMARK                            x       y       z     vdW  Elec       q    Type
REMARK                         _______ _______ _______ _____ _____    ______ ____
ROOT
ATOM      1  N   UNL     1      44.329   4.015  13.371  0.00  0.00    +0.000 N 
ATOM      2  C   UNL     1      45.457   4.864  13.434  0.00  0.00    +0.000 A 
ATOM      3  C   UNL     1      46.617   4.472  14.088  0.00  0.00    +0.000 A 
ATOM      4  N   UNL     1      47.731   5.236  14.214  0.00  0.00    +0.000 NA
ATOM      5  C   UNL     1      47.638   6.472  13.686  0.00  0.00    +0.000 A 
ATOM      6  N   UNL     1      46.526   6.933  13.071  0.00  0.00    +0.000 NA
ATOM      7  N   UNL     1      45.428   6.117  12.948  0.00  0.00    +0.000 NA
ATOM      8  H   UNL     1      44.635   3.048  13.289  0.00  0.00    +0.000 HD
ENDROOT
BRANCH   1   9
ATOM      9  C   UNL     1      43.424   4.376  12.265  0.00  0.00    +0.000 C 
BRANCH   9  10
ATOM     10  C   UNL     1      43.254   3.195  11.309  0.00  0.00    +0.000 C 
BRANCH  10  15
ATOM     11  C   UNL     1      45.613   2.092   8.716  0.00  0.00    +0.000 A 
ATOM     12  C   UNL     1      45.970   3.243   8.036  0.00  0.00    +0.000 A 
ATOM     13  C   UNL     1      45.439   4.451   8.469  0.00  0.00    +0.000 A 
ATOM     14  C   UNL     1      44.561   4.462   9.553  0.00  0.00    +0.000 A 
ATOM     15  C   UNL     1      44.235   3.256  10.165  0.00  0.00    +0.000 A 
ATOM     16  N   UNL     1      44.766   2.075   9.770  0.00  0.00    +0.000 NA
BRANCH  11  18
ATOM     17  C   UNL     1      47.163   1.112   7.273  0.00  0.00    +0.000 C 
ATOM     18  O   UNL     1      46.160   0.907   8.265  0.00  0.00    +0.000 OA
ENDBRANCH  11  18
ENDBRANCH  10  15
ENDBRANCH   9  10
ENDBRANCH   1   9
BRANCH   5  19
ATOM     19  C   UNL     1      48.825   7.403  13.760  0.00  0.00    +0.000 C 
BRANCH  19  20
ATOM     20  N   UNL     1      49.936   6.847  14.514  0.00  0.00    +0.000 N 
ATOM     21  C   UNL     1      50.281   7.353  15.740  0.00  0.00    +0.000 C 
ATOM     22  O   UNL     1      49.624   8.238  16.281  0.00  0.00    +0.000 OA
ATOM     23  H   UNL     1      50.622   6.315  13.986  0.00  0.00    +0.000 HD
BRANCH  21  24
ATOM     24  C   UNL     1      51.442   6.748  16.400  0.00  0.00    +0.000 A 
ATOM     25  C   UNL     1      52.656   7.422  16.413  0.00  0.00    +0.000 A 
ATOM     26  S   UNL     1      53.895   6.587  17.236  0.00  0.00    +0.000 S 
ATOM     27  C   UNL     1      52.868   5.272  17.564  0.00  0.00    +0.000 A 
ATOM     28  N   UNL     1      53.323   4.168  18.228  0.00  0.00    +0.000 NA
ATOM     29  C   UNL     1      52.438   3.238  18.380  0.00  0.00    +0.000 A 
ATOM     30  N   UNL     1      51.144   3.312  17.941  0.00  0.00    +0.000 N 
ATOM     31  C   UNL     1      50.630   4.420  17.314  0.00  0.00    +0.000 A 
ATOM     32  O   UNL     1      49.448   4.488  17.006  0.00  0.00    +0.000 OA
ATOM     33  C   UNL     1      51.586   5.484  17.082  0.00  0.00    +0.000 A 
ATOM     34  H   UNL     1      50.495   2.557  18.115  0.00  0.00    +0.000 HD
ENDBRANCH  21  24
ENDBRANCH  19  20
ENDBRANCH   5  19
TORSDOF 7
ENDMDL
MODEL 7
REMARK VINA RESULT:    -7.668      3.236      8.965
REMARK INTER + INTRA:         -11.759
REMARK INTER:                 -10.521
REMARK INTRA:                  -1.238
REMARK UNBOUND:                -0.954
REMARK  Name = 
REMARK  8 active torsions:
REMARK  status: ('A' for Active; 'I' for Inactive)
REMARK    1  A    between atoms: C_1  and  O_2
REMARK    2  A    between atoms: O_2  and  C_3
REMARK    3  A    between atoms: C_7  and  C_8
REMARK    4  A    between atoms: C_8  and  C_9
REMARK    5  A    between atoms: C_9  and  N_10
REMARK    6  A    between atoms: C_14  and  C_15
REMARK    7  A    between atoms: C_15  and  N_16
REMARK    8  A    between atoms: C_17  and  C_19
REMARK                            x       y       z     vdW  Elec       q    Type
REMARK                         _______ _______ _______ _____ _____    ______ ____
ROOT
ATOM      1  N   UNL     1      49.854   7.764  17.302  0.00  0.00    +0.000 N 
ATOM      2  C   UNL     1      49.371   7.746  15.974  0.00  0.00    +0.000 A 
ATOM      3  C   UNL     1      48.796   8.873  15.403  0.00  0.00    +0.000 A 
ATOM      4  N   UNL     1      48.287   8.931  14.147  0.00  0.00    +0.000 NA
ATOM      5  C   UNL     1      48.328   7.772  13.461  0.00  0.00    +0.000 A 
ATOM      6  N   UNL     1      48.839   6.628  13.969  0.00  0.00    +0.000 NA
ATOM      7  N   UNL     1      49.361   6.621  15.239  0.00  0.00    +0.000 NA
ATOM      8  H   UNL     1      50.255   8.676  17.506  0.00  0.00    +0.000 HD
ENDROOT
BRANCH   1   9
ATOM      9  C   UNL     1      50.833   6.691  17.550  0.00  0.00    +0.000 C 
BRANCH   9  10
ATOM     10  C   UNL     1      50.293   5.706  18.588  0.00  0.00    +0.000 C 
BRANCH  10  15
ATOM     11  C   UNL     1      49.864   2.408  17.025  0.00  0.00    +0.000 A 
ATOM     12  C   UNL     1      48.501   2.276  16.823  0.00  0.00    +0.000 A 
ATOM     13  C   UNL     1      47.680   3.336  17.184  0.00  0.00    +0.000 A 
ATOM     14  C   UNL     1      48.247   4.479  17.748  0.00  0.00    +0.000 A 
ATOM     15  C   UNL     1      49.625   4.520  17.939  0.00  0.00    +0.000 A 
ATOM     16  N   UNL     1      50.439   3.505  17.567  0.00  0.00    +0.000 NA
BRANCH  11  18
ATOM     17  C   UNL     1      51.863   1.266  17.405  0.00  0.00    +0.000 C 
ATOM     18  O   UNL     1      50.655   1.339  16.652  0.00  0.00    +0.000 OA
ENDBRANCH  11  18
ENDBRANCH  10  15
ENDBRANCH   9  10
ENDBRANCH   1   9
BRANCH   5  19
ATOM     19  C   UNL     1      47.800   7.726  12.046  0.00  0.00    +0.000 C 
BRANCH  19  20
ATOM     20  N   UNL     1      47.045   6.517  11.762  0.00  0.00    +0.000 N 
ATOM     21  C   UNL     1      45.692   6.463  11.975  0.00  0.00    +0.000 C 
ATOM     22  O   UNL     1      45.055   7.449  12.337  0.00  0.00    +0.000 OA
ATOM     23  H   UNL     1      47.575   5.651  11.716  0.00  0.00    +0.000 HD
BRANCH  21  24
ATOM     24  C   UNL     1      45.031   5.184  11.695  0.00  0.00    +0.000 A 
ATOM     25  C   UNL     1      44.325   4.539  12.701  0.00  0.00    +0.000 A 
ATOM     26  S   UNL     1      43.604   3.075  12.203  0.00  0.00    +0.000 S 
ATOM     27  C   UNL     1      44.251   3.225  10.638  0.00  0.00    +0.000 A 
ATOM     28  N   UNL     1      44.041   2.262   9.691  0.00  0.00    +0.000 NA
ATOM     29  C   UNL     1      44.616   2.497   8.558  0.00  0.00    +0.000 A 
ATOM     30  N   UNL     1      45.372   3.604   8.281  0.00  0.00    +0.000 N 
ATOM     31  C   UNL     1      45.570   4.618   9.185  0.00  0.00    +0.000 A 
ATOM     32  O   UNL     1      46.183   5.634   8.881  0.00  0.00    +0.000 OA
ATOM     33  C   UNL     1      44.978   4.395  10.488  0.00  0.00    +0.000 A 
ATOM     34  H   UNL     1      45.775   3.739   7.364  0.00  0.00    +0.000 HD
ENDBRANCH  21  24
ENDBRANCH  19  20
ENDBRANCH   5  19
TORSDOF 7
ENDMDL
MODEL 8
REMARK VINA RESULT:    -7.624      3.116      3.983
REMARK INTER + INTRA:         -11.698
REMARK INTER:                 -10.526
REMARK INTRA:                  -1.172
REMARK UNBOUND:                -0.954
REMARK  Name = 
REMARK  8 active torsions:
REMARK  status: ('A' for Active; 'I' for Inactive)
REMARK    1  A    between atoms: C_1  and  O_2
REMARK    2  A    between atoms: O_2  and  C_3
REMARK    3  A    between atoms: C_7  and  C_8
REMARK    4  A    between atoms: C_8  and  C_9
REMARK    5  A    between atoms: C_9  and  N_10
REMARK    6  A    between atoms: C_14  and  C_15
REMARK    7  A    between atoms: C_15  and  N_16
REMARK    8  A    between atoms: C_17  and  C_19
REMARK                            x       y       z     vdW  Elec       q    Type
REMARK                         _______ _______ _______ _____ _____    ______ ____
ROOT
ATOM      1  N   UNL     1      47.016   6.254  12.122  0.00  0.00    +0.000 N 
ATOM      2  C   UNL     1      47.937   6.543  13.155  0.00  0.00    +0.000 A 
ATOM      3  C   UNL     1      48.972   7.447  12.963  0.00  0.00    +0.000 A 
ATOM      4  N   UNL     1      49.911   7.760  13.892  0.00  0.00    +0.000 NA
ATOM      5  C   UNL     1      49.809   7.084  15.054  0.00  0.00    +0.000 A 
ATOM      6  N   UNL     1      48.850   6.163  15.294  0.00  0.00    +0.000 NA
ATOM      7  N   UNL     1      47.909   5.893  14.331  0.00  0.00    +0.000 NA
ATOM      8  H   UNL     1      46.837   7.096  11.581  0.00  0.00    +0.000 HD
ENDROOT
BRANCH   1   9
ATOM      9  C   UNL     1      45.759   5.688  12.643  0.00  0.00    +0.000 C 
BRANCH   9  10
ATOM     10  C   UNL     1      44.654   5.784  11.590  0.00  0.00    +0.000 C 
BRANCH  10  15
ATOM     11  C   UNL     1      45.727   4.137   8.486  0.00  0.00    +0.000 A 
ATOM     12  C   UNL     1      45.212   2.854   8.558  0.00  0.00    +0.000 A 
ATOM     13  C   UNL     1      44.443   2.519   9.665  0.00  0.00    +0.000 A 
ATOM     14  C   UNL     1      44.231   3.470  10.663  0.00  0.00    +0.000 A 
ATOM     15  C   UNL     1      44.805   4.729  10.523  0.00  0.00    +0.000 A 
ATOM     16  N   UNL     1      45.535   5.077   9.438  0.00  0.00    +0.000 NA
BRANCH  11  18
ATOM     17  C   UNL     1      46.525   3.372   6.431  0.00  0.00    +0.000 C 
ATOM     18  O   UNL     1      46.484   4.442   7.372  0.00  0.00    +0.000 OA
ENDBRANCH  11  18
ENDBRANCH  10  15
ENDBRANCH   9  10
ENDBRANCH   1   9
BRANCH   5  19
ATOM     19  C   UNL     1      50.795   7.363  16.164  0.00  0.00    +0.000 C 
BRANCH  19  20
ATOM     20  N   UNL     1      51.502   6.173  16.607  0.00  0.00    +0.000 N 
ATOM     21  C   UNL     1      51.678   5.912  17.941  0.00  0.00    +0.000 C 
ATOM     22  O   UNL     1      51.182   6.625  18.809  0.00  0.00    +0.000 OA
ATOM     23  H   UNL     1      52.119   5.733  15.929  0.00  0.00    +0.000 HD
BRANCH  21  24
ATOM     24  C   UNL     1      52.441   4.706  18.281  0.00  0.00    +0.000 A 
ATOM     25  C   UNL     1      53.655   4.824  18.943  0.00  0.00    +0.000 A 
ATOM     26  S   UNL     1      54.401   3.327  19.279  0.00  0.00    +0.000 S 
ATOM     27  C   UNL     1      53.151   2.469  18.508  0.00  0.00    +0.000 A 
ATOM     28  N   UNL     1      53.189   1.107  18.404  0.00  0.00    +0.000 NA
ATOM     29  C   UNL     1      52.186   0.595  17.770  0.00  0.00    +0.000 A 
ATOM     30  N   UNL     1      51.150   1.313  17.238  0.00  0.00    +0.000 N 
ATOM     31  C   UNL     1      51.046   2.677  17.360  0.00  0.00    +0.000 A 
ATOM     32  O   UNL     1      50.066   3.282  16.946  0.00  0.00    +0.000 OA
ATOM     33  C   UNL     1      52.161   3.312  18.033  0.00  0.00    +0.000 A 
ATOM     34  H   UNL     1      50.383   0.848  16.774  0.00  0.00    +0.000 HD
ENDBRANCH  21  24
ENDBRANCH  19  20
ENDBRANCH   5  19
TORSDOF 7
ENDMDL
MODEL 9
REMARK VINA RESULT:    -7.367      3.713      8.162
REMARK INTER + INTRA:         -11.335
REMARK INTER:                  -9.918
REMARK INTRA:                  -1.417
REMARK UNBOUND:                -0.954
REMARK  Name = 
REMARK  8 active torsions:
REMARK  status: ('A' for Active; 'I' for Inactive)
REMARK    1  A    between atoms: C_1  and  O_2
REMARK    2  A    between atoms: O_2  and  C_3
REMARK    3  A    between atoms: C_7  and  C_8
REMARK    4  A    between atoms: C_8  and  C_9
REMARK    5  A    between atoms: C_9  and  N_10
REMARK    6  A    between atoms: C_14  and  C_15
REMARK    7  A    between atoms: C_15  and  N_16
REMARK    8  A    between atoms: C_17  and  C_19
REMARK                            x       y       z     vdW  Elec       q    Type
REMARK                         _______ _______ _______ _____ _____    ______ ____
ROOT
ATOM      1  N   UNL     1      50.432   6.108  18.685  0.00  0.00    +0.000 N 
ATOM      2  C   UNL     1      49.851   6.728  17.555  0.00  0.00    +0.000 A 
ATOM      3  C   UNL     1      50.328   6.479  16.275  0.00  0.00    +0.000 A 
ATOM      4  N   UNL     1      49.843   7.051  15.143  0.00  0.00    +0.000 NA
ATOM      5  C   UNL     1      48.858   7.950  15.336  0.00  0.00    +0.000 A 
ATOM      6  N   UNL     1      48.374   8.269  16.557  0.00  0.00    +0.000 NA
ATOM      7  N   UNL     1      48.881   7.650  17.673  0.00  0.00    +0.000 NA
ATOM      8  H   UNL     1      50.720   5.163  18.445  0.00  0.00    +0.000 HD
ENDROOT
BRANCH   1   9
ATOM      9  C   UNL     1      49.520   6.102  19.843  0.00  0.00    +0.000 C 
BRANCH   9  10
ATOM     10  C   UNL     1      48.904   4.714  20.028  0.00  0.00    +0.000 C 
BRANCH  10  15
ATOM     11  C   UNL     1      49.223   2.600  17.040  0.00  0.00    +0.000 A 
ATOM     12  C   UNL     1      48.039   2.772  16.344  0.00  0.00    +0.000 A 
ATOM     13  C   UNL     1      47.099   3.654  16.860  0.00  0.00    +0.000 A 
ATOM     14  C   UNL     1      47.368   4.317  18.058  0.00  0.00    +0.000 A 
ATOM     15  C   UNL     1      48.574   4.068  18.706  0.00  0.00    +0.000 A 
ATOM     16  N   UNL     1      49.510   3.231  18.200  0.00  0.00    +0.000 NA
BRANCH  11  18
ATOM     17  C   UNL     1      51.316   1.602  17.295  0.00  0.00    +0.000 C 
ATOM     18  O   UNL     1      50.140   1.720  16.499  0.00  0.00    +0.000 OA
ENDBRANCH  11  18
ENDBRANCH  10  15
ENDBRANCH   9  10
ENDBRANCH   1   9
BRANCH   5  19
ATOM     19  C   UNL     1      48.237   8.638  14.143  0.00  0.00    +0.000 C 
BRANCH  19  20
ATOM     20  N   UNL     1      47.013   7.997  13.692  0.00  0.00    +0.000 N 
ATOM     21  C   UNL     1      47.028   7.092  12.663  0.00  0.00    +0.000 C 
ATOM     22  O   UNL     1      48.076   6.730  12.136  0.00  0.00    +0.000 OA
ATOM     23  H   UNL     1      46.142   8.463  13.931  0.00  0.00    +0.000 HD
BRANCH  21  24
ATOM     24  C   UNL     1      45.733   6.534  12.258  0.00  0.00    +0.000 A 
ATOM     25  C   UNL     1      44.765   7.366  11.713  0.00  0.00    +0.000 A 
ATOM     26  S   UNL     1      43.328   6.554  11.281  0.00  0.00    +0.000 S 
ATOM     27  C   UNL     1      43.929   5.069  11.851  0.00  0.00    +0.000 A 
ATOM     28  N   UNL     1      43.167   3.935  11.812  0.00  0.00    +0.000 NA
ATOM     29  C   UNL     1      43.745   2.890  12.305  0.00  0.00    +0.000 A 
ATOM     30  N   UNL     1      45.010   2.870  12.825  0.00  0.00    +0.000 N 
ATOM     31  C   UNL     1      45.829   3.972  12.842  0.00  0.00    +0.000 A 
ATOM     32  O   UNL     1      46.985   3.903  13.238  0.00  0.00    +0.000 OA
ATOM     33  C   UNL     1      45.223   5.186  12.333  0.00  0.00    +0.000 A 
ATOM     34  H   UNL     1      45.413   2.011  13.174  0.00  0.00    +0.000 HD
ENDBRANCH  21  24
ENDBRANCH  19  20
ENDBRANCH   5  19
TORSDOF 7
ENDMDL
