MODEL 1
REMARK VINA RESULT:    -8.142      0.000      0.000
REMARK INTER + INTRA:         -10.523
REMARK INTER:                 -10.046
REMARK INTRA:                  -0.477
REMARK UNBOUND:                -0.477
REMARK  Name = 
REMARK  4 active torsions:
REMARK  status: ('A' for Active; 'I' for Inactive)
REMARK    1  A    between atoms: C_6  and  N_7
REMARK    2  A    between atoms: N_7  and  C_8
REMARK    3  A    between atoms: C_8  and  C_9
REMARK    4  A    between atoms: C_13  and  C_14
REMARK                            x       y       z     vdW  Elec       q    Type
REMARK                         _______ _______ _______ _____ _____    ______ ____
ROOT
ATOM      1  C   UNL     1      45.176   4.183  12.211  0.00  0.00    +0.000 A 
ATOM      2  C   UNL     1      45.312   5.482  11.759  0.00  0.00    +0.000 A 
ATOM      3  C   UNL     1      46.135   6.297  12.499  0.00  0.00    +0.000 A 
ATOM      4  N   UNL     1      46.793   5.890  13.595  0.00  0.00    +0.000 NA
ATOM      5  C   UNL     1      46.622   4.604  13.970  0.00  0.00    +0.000 A 
ATOM      6  N   UNL     1      45.830   3.731  13.307  0.00  0.00    +0.000 NA
ENDROOT
BRANCH   5   7
ATOM      7  C   UNL     1      47.315   4.122  15.193  0.00  0.00    +0.000 A 
ATOM      8  C   UNL     1      47.471   4.936  16.320  0.00  0.00    +0.000 A 
ATOM      9  C   UNL     1      48.146   4.449  17.438  0.00  0.00    +0.000 A 
ATOM     10  C   UNL     1      48.653   3.157  17.416  0.00  0.00    +0.000 A 
ATOM     11  C   UNL     1      48.461   2.403  16.273  0.00  0.00    +0.000 A 
ATOM     12  N   UNL     1      47.813   2.850  15.177  0.00  0.00    +0.000 NA
ENDBRANCH   5   7
BRANCH   1  13
ATOM     13  C   UNL     1      44.268   3.209  11.483  0.00  0.00    +0.000 C 
BRANCH  13  14
ATOM     14  N   UNL     1      44.092   3.592  10.084  0.00  0.00    +0.000 N 
ATOM     15  H   UNL     1      43.143   3.479   9.743  0.00  0.00    +0.000 HD
BRANCH  14  21
ATOM     16 CL   UNL     1      46.735  -0.080   7.710  0.00  0.00    +0.000 Cl
ATOM     17  C   UNL     1      46.331   1.579   7.935  0.00  0.00    +0.000 A 
ATOM     18  C   UNL     1      46.905   2.546   7.114  0.00  0.00    +0.000 A 
ATOM     19  C   UNL     1      46.566   3.881   7.299  0.00  0.00    +0.000 A 
ATOM     20  C   UNL     1      45.660   4.243   8.301  0.00  0.00    +0.000 A 
ATOM     21  C   UNL     1      45.079   3.285   9.145  0.00  0.00    +0.000 A 
ATOM     22  C   UNL     1      45.420   1.942   8.931  0.00  0.00    +0.000 A 
ENDBRANCH  14  21
ENDBRANCH  13  14
ENDBRANCH   1  13
TORSDOF 4
ENDMDL
MODEL 2
REMARK VINA RESULT:    -7.883      3.451      6.819
REMARK INTER + INTRA:         -10.204
REMARK INTER:                  -9.569
REMARK INTRA:                  -0.635
REMARK UNBOUND:                -0.477
REMARK  Name = 
REMARK  4 active torsions:
REMARK  status: ('A' for Active; 'I' for Inactive)
REMARK    1  A    between atoms: C_6  and  N_7
REMARK    2  A    between atoms: N_7  and  C_8
REMARK    3  A    between atoms: C_8  and  C_9
REMARK    4  A    between atoms: C_13  and  C_14
REMARK                            x       y       z     vdW  Elec       q    Type
REMARK                         _______ _______ _______ _____ _____    ______ ____
ROOT
ATOM      1  C   UNL     1      43.746   5.030  11.025  0.00  0.00    +0.000 A 
ATOM      2  C   UNL     1      43.047   4.129  11.806  0.00  0.00    +0.000 A 
ATOM      3  C   UNL     1      43.204   2.802  11.485  0.00  0.00    +0.000 A 
ATOM      4  N   UNL     1      43.988   2.366  10.487  0.00  0.00    +0.000 NA
ATOM      5  C   UNL     1      44.651   3.303   9.776  0.00  0.00    +0.000 A 
ATOM      6  N   UNL     1      44.555   4.631  10.016  0.00  0.00    +0.000 NA
ENDROOT
BRANCH   5   7
ATOM      7  C   UNL     1      45.511   2.862   8.647  0.00  0.00    +0.000 A 
ATOM      8  C   UNL     1      45.860   3.728   7.605  0.00  0.00    +0.000 A 
ATOM      9  C   UNL     1      46.652   3.264   6.556  0.00  0.00    +0.000 A 
ATOM     10  C   UNL     1      47.084   1.946   6.562  0.00  0.00    +0.000 A 
ATOM     11  C   UNL     1      46.707   1.143   7.622  0.00  0.00    +0.000 A 
ATOM     12  N   UNL     1      45.941   1.565   8.650  0.00  0.00    +0.000 NA
ENDBRANCH   5   7
BRANCH   1  13
ATOM     13  C   UNL     1      43.622   6.521  11.278  0.00  0.00    +0.000 C 
BRANCH  13  14
ATOM     14  N   UNL     1      44.339   6.917  12.488  0.00  0.00    +0.000 N 
ATOM     15  H   UNL     1      43.986   7.767  12.915  0.00  0.00    +0.000 HD
BRANCH  14  21
ATOM     16 CL   UNL     1      48.904   8.988  11.499  0.00  0.00    +0.000 Cl
ATOM     17  C   UNL     1      47.933   7.732  12.166  0.00  0.00    +0.000 A 
ATOM     18  C   UNL     1      48.540   6.678  12.843  0.00  0.00    +0.000 A 
ATOM     19  C   UNL     1      47.747   5.673  13.385  0.00  0.00    +0.000 A 
ATOM     20  C   UNL     1      46.355   5.725  13.244  0.00  0.00    +0.000 A 
ATOM     21  C   UNL     1      45.726   6.772  12.557  0.00  0.00    +0.000 A 
ATOM     22  C   UNL     1      46.542   7.786  12.034  0.00  0.00    +0.000 A 
ENDBRANCH  14  21
ENDBRANCH  13  14
ENDBRANCH   1  13
TORSDOF 4
ENDMDL
MODEL 3
REMARK VINA RESULT:    -7.722      3.899      6.943
REMARK INTER + INTRA:         -10.005
REMARK INTER:                  -9.436
REMARK INTRA:                  -0.568
REMARK UNBOUND:                -0.477
REMARK  Name = 
REMARK  4 active torsions:
REMARK  status: ('A' for Active; 'I' for Inactive)
REMARK    1  A    between atoms: C_6  and  N_7
REMARK    2  A    between atoms: N_7  and  C_8
REMARK    3  A    between atoms: C_8  and  C_9
REMARK    4  A    between atoms: C_13  and  C_14
REMARK                            x       y       z     vdW  Elec       q    Type
REMARK                         _______ _______ _______ _____ _____    ______ ____
ROOT
ATOM      1  C   UNL     1      43.851   5.033  11.141  0.00  0.00    +0.000 A 
ATOM      2  C   UNL     1      43.124   4.126  11.889  0.00  0.00    +0.000 A 
ATOM      3  C   UNL     1      43.231   2.809  11.512  0.00  0.00    +0.000 A 
ATOM      4  N   UNL     1      43.994   2.387  10.492  0.00  0.00    +0.000 NA
ATOM      5  C   UNL     1      44.687   3.328   9.816  0.00  0.00    +0.000 A 
ATOM      6  N   UNL     1      44.640   4.647  10.111  0.00  0.00    +0.000 NA
ENDROOT
BRANCH   5   7
ATOM      7  C   UNL     1      45.524   2.903   8.664  0.00  0.00    +0.000 A 
ATOM      8  C   UNL     1      45.861   3.787   7.633  0.00  0.00    +0.000 A 
ATOM      9  C   UNL     1      46.632   3.339   6.562  0.00  0.00    +0.000 A 
ATOM     10  C   UNL     1      47.056   2.018   6.536  0.00  0.00    +0.000 A 
ATOM     11  C   UNL     1      46.692   1.197   7.587  0.00  0.00    +0.000 A 
ATOM     12  N   UNL     1      45.947   1.604   8.635  0.00  0.00    +0.000 NA
ENDBRANCH   5   7
BRANCH   1  13
ATOM     13  C   UNL     1      43.781   6.516  11.456  0.00  0.00    +0.000 C 
BRANCH  13  14
ATOM     14  N   UNL     1      44.593   6.850  12.624  0.00  0.00    +0.000 N 
ATOM     15  H   UNL     1      44.057   6.967  13.477  0.00  0.00    +0.000 HD
BRANCH  14  21
ATOM     16 CL   UNL     1      49.597   7.369  11.737  0.00  0.00    +0.000 Cl
ATOM     17  C   UNL     1      48.040   8.047  12.021  0.00  0.00    +0.000 A 
ATOM     18  C   UNL     1      47.878   9.431  12.008  0.00  0.00    +0.000 A 
ATOM     19  C   UNL     1      46.616   9.968  12.231  0.00  0.00    +0.000 A 
ATOM     20  C   UNL     1      45.526   9.123  12.469  0.00  0.00    +0.000 A 
ATOM     21  C   UNL     1      45.671   7.728  12.497  0.00  0.00    +0.000 A 
ATOM     22  C   UNL     1      46.949   7.206  12.251  0.00  0.00    +0.000 A 
ENDBRANCH  14  21
ENDBRANCH  13  14
ENDBRANCH   1  13
TORSDOF 4
ENDMDL
MODEL 4
REMARK VINA RESULT:    -7.645      2.153      4.098
REMARK INTER + INTRA:          -9.910
REMARK INTER:                  -9.274
REMARK INTRA:                  -0.636
REMARK UNBOUND:                -0.477
REMARK  Name = 
REMARK  4 active torsions:
REMARK  status: ('A' for Active; 'I' for Inactive)
REMARK    1  A    between atoms: C_6  and  N_7
REMARK    2  A    between atoms: N_7  and  C_8
REMARK    3  A    between atoms: C_8  and  C_9
REMARK    4  A    between atoms: C_13  and  C_14
REMARK                            x       y       z     vdW  Elec       q    Type
REMARK                         _______ _______ _______ _____ _____    ______ ____
ROOT
ATOM      1  C   UNL     1      44.874   4.092  11.505  0.00  0.00    +0.000 A 
ATOM      2  C   UNL     1      45.495   3.368  12.505  0.00  0.00    +0.000 A 
ATOM      3  C   UNL     1      46.295   4.084  13.363  0.00  0.00    +0.000 A 
ATOM      4  N   UNL     1      46.477   5.410  13.276  0.00  0.00    +0.000 NA
ATOM      5  C   UNL     1      45.827   6.054  12.282  0.00  0.00    +0.000 A 
ATOM      6  N   UNL     1      45.024   5.433  11.388  0.00  0.00    +0.000 NA
ENDROOT
BRANCH   5   7
ATOM      7  C   UNL     1      46.023   7.520  12.137  0.00  0.00    +0.000 A 
ATOM      8  C   UNL     1      47.289   8.106  12.236  0.00  0.00    +0.000 A 
ATOM      9  C   UNL     1      47.423   9.489  12.113  0.00  0.00    +0.000 A 
ATOM     10  C   UNL     1      46.294  10.263  11.893  0.00  0.00    +0.000 A 
ATOM     11  C   UNL     1      45.072   9.622  11.803  0.00  0.00    +0.000 A 
ATOM     12  N   UNL     1      44.914   8.287  11.918  0.00  0.00    +0.000 NA
ENDBRANCH   5   7
BRANCH   1  13
ATOM     13  C   UNL     1      43.991   3.393  10.488  0.00  0.00    +0.000 C 
BRANCH  13  14
ATOM     14  N   UNL     1      44.309   3.819   9.127  0.00  0.00    +0.000 N 
ATOM     15  H   UNL     1      43.494   3.984   8.546  0.00  0.00    +0.000 HD
BRANCH  14  21
ATOM     16 CL   UNL     1      46.724  -0.480   7.788  0.00  0.00    +0.000 Cl
ATOM     17  C   UNL     1      46.555   1.233   7.729  0.00  0.00    +0.000 A 
ATOM     18  C   UNL     1      47.416   1.984   6.933  0.00  0.00    +0.000 A 
ATOM     19  C   UNL     1      47.266   3.364   6.887  0.00  0.00    +0.000 A 
ATOM     20  C   UNL     1      46.261   3.987   7.635  0.00  0.00    +0.000 A 
ATOM     21  C   UNL     1      45.390   3.249   8.451  0.00  0.00    +0.000 A 
ATOM     22  C   UNL     1      45.546   1.856   8.470  0.00  0.00    +0.000 A 
ENDBRANCH  14  21
ENDBRANCH  13  14
ENDBRANCH   1  13
TORSDOF 4
ENDMDL
MODEL 5
REMARK VINA RESULT:    -7.561      2.231      3.215
REMARK INTER + INTRA:          -9.806
REMARK INTER:                  -9.183
REMARK INTRA:                  -0.623
REMARK UNBOUND:                -0.477
REMARK  Name = 
REMARK  4 active torsions:
REMARK  status: ('A' for Active; 'I' for Inactive)
REMARK    1  A    between atoms: C_6  and  N_7
REMARK    2  A    between atoms: N_7  and  C_8
REMARK    3  A    between atoms: C_8  and  C_9
REMARK    4  A    between atoms: C_13  and  C_14
REMARK                            x       y       z     vdW  Elec       q    Type
REMARK                         _______ _______ _______ _____ _____    ______ ____
ROOT
ATOM      1  C   UNL     1      45.061   4.549  11.355  0.00  0.00    +0.000 A 
ATOM      2  C   UNL     1      45.000   3.475  12.223  0.00  0.00    +0.000 A 
ATOM      3  C   UNL     1      45.926   3.464  13.238  0.00  0.00    +0.000 A 
ATOM      4  N   UNL     1      46.844   4.426  13.416  0.00  0.00    +0.000 NA
ATOM      5  C   UNL     1      46.836   5.451  12.538  0.00  0.00    +0.000 A 
ATOM      6  N   UNL     1      45.966   5.545  11.506  0.00  0.00    +0.000 NA
ENDROOT
BRANCH   5   7
ATOM      7  C   UNL     1      47.854   6.523  12.687  0.00  0.00    +0.000 A 
ATOM      8  C   UNL     1      48.033   7.509  11.711  0.00  0.00    +0.000 A 
ATOM      9  C   UNL     1      49.015   8.484  11.884  0.00  0.00    +0.000 A 
ATOM     10  C   UNL     1      49.800   8.462  13.028  0.00  0.00    +0.000 A 
ATOM     11  C   UNL     1      49.570   7.463  13.956  0.00  0.00    +0.000 A 
ATOM     12  N   UNL     1      48.628   6.508  13.813  0.00  0.00    +0.000 NA
ENDBRANCH   5   7
BRANCH   1  13
ATOM     13  C   UNL     1      44.102   4.643  10.184  0.00  0.00    +0.000 C 
BRANCH  13  14
ATOM     14  N   UNL     1      44.041   3.385   9.443  0.00  0.00    +0.000 N 
ATOM     15  H   UNL     1      43.564   2.639   9.938  0.00  0.00    +0.000 HD
BRANCH  14  21
ATOM     16 CL   UNL     1      46.780  -0.571   7.727  0.00  0.00    +0.000 Cl
ATOM     17  C   UNL     1      46.451   1.118   7.789  0.00  0.00    +0.000 A 
ATOM     18  C   UNL     1      47.202   1.996   7.012  0.00  0.00    +0.000 A 
ATOM     19  C   UNL     1      46.923   3.356   7.063  0.00  0.00    +0.000 A 
ATOM     20  C   UNL     1      45.899   3.832   7.891  0.00  0.00    +0.000 A 
ATOM     21  C   UNL     1      45.138   2.965   8.689  0.00  0.00    +0.000 A 
ATOM     22  C   UNL     1      45.423   1.594   8.608  0.00  0.00    +0.000 A 
ENDBRANCH  14  21
ENDBRANCH  13  14
ENDBRANCH   1  13
TORSDOF 4
ENDMDL
MODEL 6
REMARK VINA RESULT:    -7.181      1.665      2.392
REMARK INTER + INTRA:          -9.337
REMARK INTER:                  -8.756
REMARK INTRA:                  -0.581
REMARK UNBOUND:                -0.477
REMARK  Name = 
REMARK  4 active torsions:
REMARK  status: ('A' for Active; 'I' for Inactive)
REMARK    1  A    between atoms: C_6  and  N_7
REMARK    2  A    between atoms: N_7  and  C_8
REMARK    3  A    between atoms: C_8  and  C_9
REMARK    4  A    between atoms: C_13  and  C_14
REMARK                            x       y       z     vdW  Elec       q    Type
REMARK                         _______ _______ _______ _____ _____    ______ ____
ROOT
ATOM      1  C   UNL     1      46.399   6.252  12.575  0.00  0.00    +0.000 A 
ATOM      2  C   UNL     1      47.419   6.980  11.993  0.00  0.00    +0.000 A 
ATOM      3  C   UNL     1      48.609   7.007  12.679  0.00  0.00    +0.000 A 
ATOM      4  N   UNL     1      48.812   6.370  13.842  0.00  0.00    +0.000 NA
ATOM      5  C   UNL     1      47.774   5.667  14.344  0.00  0.00    +0.000 A 
ATOM      6  N   UNL     1      46.565   5.586  13.742  0.00  0.00    +0.000 NA
ENDROOT
BRANCH   5   7
ATOM      7  C   UNL     1      47.951   4.966  15.642  0.00  0.00    +0.000 A 
ATOM      8  C   UNL     1      47.044   3.998  16.086  0.00  0.00    +0.000 A 
ATOM      9  C   UNL     1      47.239   3.382  17.322  0.00  0.00    +0.000 A 
ATOM     10  C   UNL     1      48.336   3.739  18.093  0.00  0.00    +0.000 A 
ATOM     11  C   UNL     1      49.196   4.701  17.596  0.00  0.00    +0.000 A 
ATOM     12  N   UNL     1      49.030   5.313  16.405  0.00  0.00    +0.000 NA
ENDBRANCH   5   7
BRANCH   1  13
ATOM     13  C   UNL     1      45.035   6.179  11.913  0.00  0.00    +0.000 C 
BRANCH  13  14
ATOM     14  N   UNL     1      45.154   6.068  10.461  0.00  0.00    +0.000 N 
ATOM     15  H   UNL     1      44.700   6.819   9.952  0.00  0.00    +0.000 HD
BRANCH  14  21
ATOM     16 CL   UNL     1      46.459   3.168   6.462  0.00  0.00    +0.000 Cl
ATOM     17  C   UNL     1      45.698   3.366   7.994  0.00  0.00    +0.000 A 
ATOM     18  C   UNL     1      45.116   2.267   8.621  0.00  0.00    +0.000 A 
ATOM     19  C   UNL     1      44.511   2.436   9.861  0.00  0.00    +0.000 A 
ATOM     20  C   UNL     1      44.489   3.698  10.465  0.00  0.00    +0.000 A 
ATOM     21  C   UNL     1      45.060   4.818   9.845  0.00  0.00    +0.000 A 
ATOM     22  C   UNL     1      45.682   4.624   8.603  0.00  0.00    +0.000 A 
ENDBRANCH  14  21
ENDBRANCH  13  14
ENDBRANCH   1  13
TORSDOF 4
ENDMDL
MODEL 7
REMARK VINA RESULT:    -7.162      4.704      7.538
REMARK INTER + INTRA:          -9.315
REMARK INTER:                  -8.911
REMARK INTRA:                  -0.404
REMARK UNBOUND:                -0.477
REMARK  Name = 
REMARK  4 active torsions:
REMARK  status: ('A' for Active; 'I' for Inactive)
REMARK    1  A    between atoms: C_6  and  N_7
REMARK    2  A    between atoms: N_7  and  C_8
REMARK    3  A    between atoms: C_8  and  C_9
REMARK    4  A    between atoms: C_13  and  C_14
REMARK                            x       y       z     vdW  Elec       q    Type
REMARK                         _______ _______ _______ _____ _____    ______ ____
ROOT
ATOM      1  C   UNL     1      44.238   5.314  11.294  0.00  0.00    +0.000 A 
ATOM      2  C   UNL     1      43.321   4.537  11.977  0.00  0.00    +0.000 A 
ATOM      3  C   UNL     1      43.183   3.242  11.541  0.00  0.00    +0.000 A 
ATOM      4  N   UNL     1      43.885   2.721  10.524  0.00  0.00    +0.000 NA
ATOM      5  C   UNL     1      44.772   3.534   9.912  0.00  0.00    +0.000 A 
ATOM      6  N   UNL     1      44.973   4.824  10.268  0.00  0.00    +0.000 NA
ENDROOT
BRANCH   5   7
ATOM      7  C   UNL     1      45.552   3.002   8.764  0.00  0.00    +0.000 A 
ATOM      8  C   UNL     1      45.935   3.816   7.694  0.00  0.00    +0.000 A 
ATOM      9  C   UNL     1      46.649   3.268   6.628  0.00  0.00    +0.000 A 
ATOM     10  C   UNL     1      46.969   1.918   6.648  0.00  0.00    +0.000 A 
ATOM     11  C   UNL     1      46.563   1.169   7.737  0.00  0.00    +0.000 A 
ATOM     12  N   UNL     1      45.872   1.673   8.781  0.00  0.00    +0.000 NA
ENDBRANCH   5   7
BRANCH   1  13
ATOM     13  C   UNL     1      44.448   6.767  11.677  0.00  0.00    +0.000 C 
BRANCH  13  14
ATOM     14  N   UNL     1      43.490   7.639  11.002  0.00  0.00    +0.000 N 
ATOM     15  H   UNL     1      43.158   7.276  10.114  0.00  0.00    +0.000 HD
BRANCH  14  21
ATOM     16 CL   UNL     1      46.664  11.522  11.978  0.00  0.00    +0.000 Cl
ATOM     17  C   UNL     1      45.152  10.917  11.417  0.00  0.00    +0.000 A 
ATOM     18  C   UNL     1      44.203  11.800  10.906  0.00  0.00    +0.000 A 
ATOM     19  C   UNL     1      42.989  11.301  10.449  0.00  0.00    +0.000 A 
ATOM     20  C   UNL     1      42.729   9.927  10.506  0.00  0.00    +0.000 A 
ATOM     21  C   UNL     1      43.667   9.023  11.026  0.00  0.00    +0.000 A 
ATOM     22  C   UNL     1      44.893   9.545  11.466  0.00  0.00    +0.000 A 
ENDBRANCH  14  21
ENDBRANCH  13  14
ENDBRANCH   1  13
TORSDOF 4
ENDMDL
MODEL 8
REMARK VINA RESULT:    -7.040      3.041      7.365
REMARK INTER + INTRA:          -9.164
REMARK INTER:                  -8.637
REMARK INTRA:                  -0.527
REMARK UNBOUND:                -0.477
REMARK  Name = 
REMARK  4 active torsions:
REMARK  status: ('A' for Active; 'I' for Inactive)
REMARK    1  A    between atoms: C_6  and  N_7
REMARK    2  A    between atoms: N_7  and  C_8
REMARK    3  A    between atoms: C_8  and  C_9
REMARK    4  A    between atoms: C_13  and  C_14
REMARK                            x       y       z     vdW  Elec       q    Type
REMARK                         _______ _______ _______ _____ _____    ______ ____
ROOT
ATOM      1  C   UNL     1      44.824   5.792  12.064  0.00  0.00    +0.000 A 
ATOM      2  C   UNL     1      43.498   5.566  12.379  0.00  0.00    +0.000 A 
ATOM      3  C   UNL     1      42.831   4.669  11.579  0.00  0.00    +0.000 A 
ATOM      4  N   UNL     1      43.402   4.022  10.551  0.00  0.00    +0.000 NA
ATOM      5  C   UNL     1      44.705   4.282  10.312  0.00  0.00    +0.000 A 
ATOM      6  N   UNL     1      45.440   5.152  11.041  0.00  0.00    +0.000 NA
ENDROOT
BRANCH   5   7
ATOM      7  C   UNL     1      45.366   3.604   9.167  0.00  0.00    +0.000 A 
ATOM      8  C   UNL     1      45.489   2.212   9.106  0.00  0.00    +0.000 A 
ATOM      9  C   UNL     1      46.136   1.621   8.022  0.00  0.00    +0.000 A 
ATOM     10  C   UNL     1      46.648   2.426   7.015  0.00  0.00    +0.000 A 
ATOM     11  C   UNL     1      46.491   3.795   7.133  0.00  0.00    +0.000 A 
ATOM     12  N   UNL     1      45.870   4.393   8.171  0.00  0.00    +0.000 NA
ENDBRANCH   5   7
BRANCH   1  13
ATOM     13  C   UNL     1      45.644   6.785  12.867  0.00  0.00    +0.000 C 
BRANCH  13  14
ATOM     14  N   UNL     1      47.030   6.343  13.002  0.00  0.00    +0.000 N 
ATOM     15  H   UNL     1      47.404   5.902  12.169  0.00  0.00    +0.000 HD
BRANCH  14  21
ATOM     16 CL   UNL     1      49.836   6.935  17.230  0.00  0.00    +0.000 Cl
ATOM     17  C   UNL     1      48.742   6.020  16.265  0.00  0.00    +0.000 A 
ATOM     18  C   UNL     1      48.245   4.811  16.744  0.00  0.00    +0.000 A 
ATOM     19  C   UNL     1      47.356   4.085  15.961  0.00  0.00    +0.000 A 
ATOM     20  C   UNL     1      46.972   4.566  14.704  0.00  0.00    +0.000 A 
ATOM     21  C   UNL     1      47.470   5.776  14.199  0.00  0.00    +0.000 A 
ATOM     22  C   UNL     1      48.351   6.504  15.013  0.00  0.00    +0.000 A 
ENDBRANCH  14  21
ENDBRANCH  13  14
ENDBRANCH   1  13
TORSDOF 4
ENDMDL
MODEL 9
REMARK VINA RESULT:    -6.860      4.229      7.403
REMARK INTER + INTRA:          -8.942
REMARK INTER:                  -8.366
REMARK INTRA:                  -0.576
REMARK UNBOUND:                -0.477
REMARK  Name = 
REMARK  4 active torsions:
REMARK  status: ('A' for Active; 'I' for Inactive)
REMARK    1  A    between atoms: C_6  and  N_7
REMARK    2  A    between atoms: N_7  and  C_8
REMARK    3  A    between atoms: C_8  and  C_9
REMARK    4  A    between atoms: C_13  and  C_14
REMARK                            x       y       z     vdW  Elec       q    Type
REMARK                         _______ _______ _______ _____ _____    ______ ____
ROOT
ATOM      1  C   UNL     1      44.956   6.095  11.944  0.00  0.00    +0.000 A 
ATOM      2  C   UNL     1      43.638   5.910  12.316  0.00  0.00    +0.000 A 
ATOM      3  C   UNL     1      42.932   4.977  11.595  0.00  0.00    +0.000 A 
ATOM      4  N   UNL     1      43.458   4.260  10.591  0.00  0.00    +0.000 NA
ATOM      5  C   UNL     1      44.756   4.484  10.292  0.00  0.00    +0.000 A 
ATOM      6  N   UNL     1      45.528   5.384  10.943  0.00  0.00    +0.000 NA
ENDROOT
BRANCH   5   7
ATOM      7  C   UNL     1      45.368   3.727   9.170  0.00  0.00    +0.000 A 
ATOM      8  C   UNL     1      45.368   2.328   9.139  0.00  0.00    +0.000 A 
ATOM      9  C   UNL     1      45.973   1.660   8.075  0.00  0.00    +0.000 A 
ATOM     10  C   UNL     1      46.566   2.396   7.060  0.00  0.00    +0.000 A 
ATOM     11  C   UNL     1      46.528   3.775   7.148  0.00  0.00    +0.000 A 
ATOM     12  N   UNL     1      45.951   4.447   8.166  0.00  0.00    +0.000 NA
ENDBRANCH   5   7
BRANCH   1  13
ATOM     13  C   UNL     1      45.817   7.121  12.657  0.00  0.00    +0.000 C 
BRANCH  13  14
ATOM     14  N   UNL     1      45.090   8.371  12.868  0.00  0.00    +0.000 N 
ATOM     15  H   UNL     1      44.141   8.242  13.204  0.00  0.00    +0.000 HD
BRANCH  14  21
ATOM     16 CL   UNL     1      42.914  11.266   9.265  0.00  0.00    +0.000 Cl
ATOM     17  C   UNL     1      44.244  10.884  10.290  0.00  0.00    +0.000 A 
ATOM     18  C   UNL     1      45.378  11.693  10.279  0.00  0.00    +0.000 A 
ATOM     19  C   UNL     1      46.442  11.381  11.115  0.00  0.00    +0.000 A 
ATOM     20  C   UNL     1      46.372  10.263  11.954  0.00  0.00    +0.000 A 
ATOM     21  C   UNL     1      45.244   9.429  11.972  0.00  0.00    +0.000 A 
ATOM     22  C   UNL     1      44.172   9.772  11.134  0.00  0.00    +0.000 A 
ENDBRANCH  14  21
ENDBRANCH  13  14
ENDBRANCH   1  13
TORSDOF 4
ENDMDL
