MODEL 1
REMARK VINA RESULT:    -8.749      0.000      0.000
REMARK INTER + INTRA:         -11.907
REMARK INTER:                 -11.306
REMARK INTRA:                  -0.601
REMARK UNBOUND:                -0.601
REMARK  Name = 
REMARK  5 active torsions:
REMARK  status: ('A' for Active; 'I' for Inactive)
REMARK    1  A    between atoms: C_2  and  C_18
REMARK    2  A    between atoms: N_3  and  C_4
REMARK    3  A    between atoms: C_4  and  C_5
REMARK    4  A    between atoms: C_8  and  C_9
REMARK    5  A    between atoms: C_9  and  C_10
REMARK                            x       y       z     vdW  Elec       q    Type
REMARK                         _______ _______ _______ _____ _____    ______ ____
ROOT
ATOM      1  O   UNL     1      48.869   6.657  13.048  0.00  0.00    +0.000 OA
ATOM      2  C   UNL     1      48.145   6.590  14.038  0.00  0.00    +0.000 C 
ATOM      3  N   UNL     1      46.807   6.883  13.991  0.00  0.00    +0.000 N 
ATOM      4  H   UNL     1      46.283   6.978  14.854  0.00  0.00    +0.000 HD
ENDROOT
BRANCH   2   5
ATOM      5  C   UNL     1      48.668   6.135  15.332  0.00  0.00    +0.000 A 
ATOM      6  C   UNL     1      49.704   6.836  15.936  0.00  0.00    +0.000 A 
ATOM      7  S   UNL     1      50.191   6.183  17.434  0.00  0.00    +0.000 S 
ATOM      8  C   UNL     1      49.006   4.963  17.350  0.00  0.00    +0.000 A 
ATOM      9  N   UNL     1      48.851   4.070  18.362  0.00  0.00    +0.000 NA
ATOM     10  C   UNL     1      47.885   3.228  18.186  0.00  0.00    +0.000 A 
ATOM     11  N   UNL     1      47.079   3.186  17.080  0.00  0.00    +0.000 N 
ATOM     12  C   UNL     1      47.254   4.013  15.999  0.00  0.00    +0.000 A 
ATOM     13  O   UNL     1      46.612   3.852  14.966  0.00  0.00    +0.000 OA
ATOM     14  C   UNL     1      48.279   5.028  16.175  0.00  0.00    +0.000 A 
ATOM     15  H   UNL     1      46.368   2.477  16.988  0.00  0.00    +0.000 HD
ENDBRANCH   2   5
BRANCH   3  16
ATOM     16  C   UNL     1      46.157   7.346  12.794  0.00  0.00    +0.000 C 
BRANCH  16  17
ATOM     17  C   UNL     1      45.699   6.205  11.925  0.00  0.00    +0.000 A 
ATOM     18  C   UNL     1      45.904   6.250  10.541  0.00  0.00    +0.000 A 
ATOM     19  C   UNL     1      45.532   5.176   9.733  0.00  0.00    +0.000 A 
ATOM     20  C   UNL     1      44.950   4.030  10.292  0.00  0.00    +0.000 A 
ATOM     21  C   UNL     1      44.705   4.002  11.671  0.00  0.00    +0.000 A 
ATOM     22  C   UNL     1      45.063   5.086  12.479  0.00  0.00    +0.000 A 
BRANCH  20  23
ATOM     23  C   UNL     1      44.592   2.845   9.422  0.00  0.00    +0.000 C 
BRANCH  23  24
ATOM     24  C   UNL     1      45.608   2.476   8.360  0.00  0.00    +0.000 A 
ATOM     25  C   UNL     1      45.892   3.337   7.300  0.00  0.00    +0.000 A 
ATOM     26  C   UNL     1      46.735   2.905   6.279  0.00  0.00    +0.000 A 
ATOM     27  C   UNL     1      47.280   1.630   6.339  0.00  0.00    +0.000 A 
ATOM     28  C   UNL     1      46.966   0.840   7.431  0.00  0.00    +0.000 A 
ATOM     29  N   UNL     1      46.144   1.229   8.432  0.00  0.00    +0.000 NA
ENDBRANCH  23  24
ENDBRANCH  20  23
ENDBRANCH  16  17
ENDBRANCH   3  16
TORSDOF 5
ENDMDL
MODEL 2
REMARK VINA RESULT:    -8.152      1.573      2.102
REMARK INTER + INTRA:         -11.136
REMARK INTER:                 -10.412
REMARK INTRA:                  -0.724
REMARK UNBOUND:                -0.601
REMARK  Name = 
REMARK  5 active torsions:
REMARK  status: ('A' for Active; 'I' for Inactive)
REMARK    1  A    between atoms: C_2  and  C_18
REMARK    2  A    between atoms: N_3  and  C_4
REMARK    3  A    between atoms: C_4  and  C_5
REMARK    4  A    between atoms: C_8  and  C_9
REMARK    5  A    between atoms: C_9  and  C_10
REMARK                            x       y       z     vdW  Elec       q    Type
REMARK                         _______ _______ _______ _____ _____    ______ ____
ROOT
ATOM      1  O   UNL     1      48.886   6.251  14.373  0.00  0.00    +0.000 OA
ATOM      2  C   UNL     1      47.898   5.764  14.916  0.00  0.00    +0.000 C 
ATOM      3  N   UNL     1      46.643   5.849  14.373  0.00  0.00    +0.000 N 
ATOM      4  H   UNL     1      45.837   5.584  14.928  0.00  0.00    +0.000 HD
ENDROOT
BRANCH   2   5
ATOM      5  C   UNL     1      48.017   5.006  16.168  0.00  0.00    +0.000 A 
ATOM      6  C   UNL     1      47.686   3.657  16.185  0.00  0.00    +0.000 A 
ATOM      7  S   UNL     1      47.884   2.922  17.711  0.00  0.00    +0.000 S 
ATOM      8  C   UNL     1      48.458   4.372  18.396  0.00  0.00    +0.000 A 
ATOM      9  N   UNL     1      48.857   4.420  19.694  0.00  0.00    +0.000 NA
ATOM     10  C   UNL     1      49.312   5.571  20.068  0.00  0.00    +0.000 A 
ATOM     11  N   UNL     1      49.381   6.681  19.269  0.00  0.00    +0.000 N 
ATOM     12  C   UNL     1      48.912   6.699  17.979  0.00  0.00    +0.000 A 
ATOM     13  O   UNL     1      48.852   7.744  17.340  0.00  0.00    +0.000 OA
ATOM     14  C   UNL     1      48.457   5.410  17.483  0.00  0.00    +0.000 A 
ATOM     15  H   UNL     1      49.710   7.561  19.635  0.00  0.00    +0.000 HD
ENDBRANCH   2   5
BRANCH   3  16
ATOM     16  C   UNL     1      46.374   6.564  13.154  0.00  0.00    +0.000 C 
BRANCH  16  17
ATOM     17  C   UNL     1      45.860   5.655  12.070  0.00  0.00    +0.000 A 
ATOM     18  C   UNL     1      45.903   6.063  10.732  0.00  0.00    +0.000 A 
ATOM     19  C   UNL     1      45.479   5.207   9.715  0.00  0.00    +0.000 A 
ATOM     20  C   UNL     1      45.006   3.922  10.013  0.00  0.00    +0.000 A 
ATOM     21  C   UNL     1      44.922   3.529  11.355  0.00  0.00    +0.000 A 
ATOM     22  C   UNL     1      45.331   4.393  12.375  0.00  0.00    +0.000 A 
BRANCH  20  23
ATOM     23  C   UNL     1      44.593   2.978   8.906  0.00  0.00    +0.000 C 
BRANCH  23  24
ATOM     24  C   UNL     1      45.697   2.539   7.966  0.00  0.00    +0.000 A 
ATOM     25  C   UNL     1      46.020   3.284   6.831  0.00  0.00    +0.000 A 
ATOM     26  C   UNL     1      46.952   2.779   5.928  0.00  0.00    +0.000 A 
ATOM     27  C   UNL     1      47.546   1.550   6.177  0.00  0.00    +0.000 A 
ATOM     28  C   UNL     1      47.188   0.878   7.332  0.00  0.00    +0.000 A 
ATOM     29  N   UNL     1      46.280   1.338   8.223  0.00  0.00    +0.000 NA
ENDBRANCH  23  24
ENDBRANCH  20  23
ENDBRANCH  16  17
ENDBRANCH   3  16
TORSDOF 5
ENDMDL
MODEL 3
REMARK VINA RESULT:    -8.140      1.287      1.885
REMARK INTER + INTRA:         -11.120
REMARK INTER:                 -10.118
REMARK INTRA:                  -1.002
REMARK UNBOUND:                -0.601
REMARK  Name = 
REMARK  5 active torsions:
REMARK  status: ('A' for Active; 'I' for Inactive)
REMARK    1  A    between atoms: C_2  and  C_18
REMARK    2  A    between atoms: N_3  and  C_4
REMARK    3  A    between atoms: C_4  and  C_5
REMARK    4  A    between atoms: C_8  and  C_9
REMARK    5  A    between atoms: C_9  and  C_10
REMARK                            x       y       z     vdW  Elec       q    Type
REMARK                         _______ _______ _______ _____ _____    ______ ____
ROOT
ATOM      1  O   UNL     1      49.871   7.082  14.224  0.00  0.00    +0.000 OA
ATOM      2  C   UNL     1      48.970   6.976  15.051  0.00  0.00    +0.000 C 
ATOM      3  N   UNL     1      47.712   7.474  14.836  0.00  0.00    +0.000 N 
ATOM      4  H   UNL     1      47.050   7.515  15.604  0.00  0.00    +0.000 HD
ENDROOT
BRANCH   2   5
ATOM      5  C   UNL     1      49.178   6.252  16.312  0.00  0.00    +0.000 A 
ATOM      6  C   UNL     1      50.044   6.773  17.265  0.00  0.00    +0.000 A 
ATOM      7  S   UNL     1      50.170   5.817  18.671  0.00  0.00    +0.000 S 
ATOM      8  C   UNL     1      49.039   4.692  18.074  0.00  0.00    +0.000 A 
ATOM      9  N   UNL     1      48.654   3.626  18.823  0.00  0.00    +0.000 NA
ATOM     10  C   UNL     1      47.757   2.880  18.266  0.00  0.00    +0.000 A 
ATOM     11  N   UNL     1      47.230   3.092  17.020  0.00  0.00    +0.000 N 
ATOM     12  C   UNL     1      47.651   4.107  16.197  0.00  0.00    +0.000 A 
ATOM     13  O   UNL     1      47.267   4.181  15.034  0.00  0.00    +0.000 OA
ATOM     14  C   UNL     1      48.605   5.020  16.803  0.00  0.00    +0.000 A 
ATOM     15  H   UNL     1      46.561   2.448  16.626  0.00  0.00    +0.000 HD
ENDBRANCH   2   5
BRANCH   3  16
ATOM     16  C   UNL     1      47.363   8.211  13.650  0.00  0.00    +0.000 C 
BRANCH  16  17
ATOM     17  C   UNL     1      46.514   7.396  12.711  0.00  0.00    +0.000 A 
ATOM     18  C   UNL     1      46.954   6.140  12.278  0.00  0.00    +0.000 A 
ATOM     19  C   UNL     1      46.151   5.354  11.450  0.00  0.00    +0.000 A 
ATOM     20  C   UNL     1      44.888   5.805  11.043  0.00  0.00    +0.000 A 
ATOM     21  C   UNL     1      44.466   7.079  11.442  0.00  0.00    +0.000 A 
ATOM     22  C   UNL     1      45.278   7.874  12.257  0.00  0.00    +0.000 A 
BRANCH  20  23
ATOM     23  C   UNL     1      43.998   4.930  10.187  0.00  0.00    +0.000 C 
BRANCH  23  24
ATOM     24  C   UNL     1      44.713   3.961   9.268  0.00  0.00    +0.000 A 
ATOM     25  C   UNL     1      44.722   2.590   9.528  0.00  0.00    +0.000 A 
ATOM     26  C   UNL     1      45.496   1.750   8.730  0.00  0.00    +0.000 A 
ATOM     27  C   UNL     1      46.239   2.293   7.691  0.00  0.00    +0.000 A 
ATOM     28  C   UNL     1      46.166   3.659   7.484  0.00  0.00    +0.000 A 
ATOM     29  N   UNL     1      45.431   4.499   8.247  0.00  0.00    +0.000 NA
ENDBRANCH  23  24
ENDBRANCH  20  23
ENDBRANCH  16  17
ENDBRANCH   3  16
TORSDOF 5
ENDMDL
MODEL 4
REMARK VINA RESULT:    -7.640      2.078      3.635
REMARK INTER + INTRA:         -10.474
REMARK INTER:                  -9.655
REMARK INTRA:                  -0.819
REMARK UNBOUND:                -0.601
REMARK  Name = 
REMARK  5 active torsions:
REMARK  status: ('A' for Active; 'I' for Inactive)
REMARK    1  A    between atoms: C_2  and  C_18
REMARK    2  A    between atoms: N_3  and  C_4
REMARK    3  A    between atoms: C_4  and  C_5
REMARK    4  A    between atoms: C_8  and  C_9
REMARK    5  A    between atoms: C_9  and  C_10
REMARK                            x       y       z     vdW  Elec       q    Type
REMARK                         _______ _______ _______ _____ _____    ______ ____
ROOT
ATOM      1  O   UNL     1      47.376   4.463  14.963  0.00  0.00    +0.000 OA
ATOM      2  C   UNL     1      47.406   5.582  14.458  0.00  0.00    +0.000 C 
ATOM      3  N   UNL     1      46.349   6.099  13.755  0.00  0.00    +0.000 N 
ATOM      4  H   UNL     1      46.472   6.949  13.216  0.00  0.00    +0.000 HD
ENDROOT
BRANCH   2   5
ATOM      5  C   UNL     1      48.570   6.461  14.626  0.00  0.00    +0.000 A 
ATOM      6  C   UNL     1      49.137   6.612  15.885  0.00  0.00    +0.000 A 
ATOM      7  S   UNL     1      50.482   7.660  15.909  0.00  0.00    +0.000 S 
ATOM      8  C   UNL     1      50.380   7.918  14.229  0.00  0.00    +0.000 A 
ATOM      9  N   UNL     1      51.287   8.701  13.588  0.00  0.00    +0.000 NA
ATOM     10  C   UNL     1      51.117   8.773  12.308  0.00  0.00    +0.000 A 
ATOM     11  N   UNL     1      50.109   8.154  11.618  0.00  0.00    +0.000 N 
ATOM     12  C   UNL     1      49.125   7.423  12.236  0.00  0.00    +0.000 A 
ATOM     13  O   UNL     1      48.156   7.006  11.608  0.00  0.00    +0.000 OA
ATOM     14  C   UNL     1      49.309   7.249  13.667  0.00  0.00    +0.000 A 
ATOM     15  H   UNL     1      50.010   8.284  10.623  0.00  0.00    +0.000 HD
ENDBRANCH   2   5
BRANCH   3  16
ATOM     16  C   UNL     1      45.145   5.352  13.506  0.00  0.00    +0.000 C 
BRANCH  16  17
ATOM     17  C   UNL     1      45.054   4.894  12.074  0.00  0.00    +0.000 A 
ATOM     18  C   UNL     1      44.423   3.684  11.763  0.00  0.00    +0.000 A 
ATOM     19  C   UNL     1      44.285   3.276  10.436  0.00  0.00    +0.000 A 
ATOM     20  C   UNL     1      44.772   4.073   9.390  0.00  0.00    +0.000 A 
ATOM     21  C   UNL     1      45.441   5.263   9.703  0.00  0.00    +0.000 A 
ATOM     22  C   UNL     1      45.594   5.663  11.034  0.00  0.00    +0.000 A 
BRANCH  20  23
ATOM     23  C   UNL     1      44.578   3.653   7.949  0.00  0.00    +0.000 C 
BRANCH  23  24
ATOM     24  C   UNL     1      45.737   2.910   7.316  0.00  0.00    +0.000 A 
ATOM     25  C   UNL     1      46.278   1.771   7.913  0.00  0.00    +0.000 A 
ATOM     26  C   UNL     1      47.422   1.194   7.366  0.00  0.00    +0.000 A 
ATOM     27  C   UNL     1      47.996   1.760   6.237  0.00  0.00    +0.000 A 
ATOM     28  C   UNL     1      47.393   2.879   5.692  0.00  0.00    +0.000 A 
ATOM     29  N   UNL     1      46.288   3.466   6.205  0.00  0.00    +0.000 NA
ENDBRANCH  23  24
ENDBRANCH  20  23
ENDBRANCH  16  17
ENDBRANCH   3  16
TORSDOF 5
ENDMDL
MODEL 5
REMARK VINA RESULT:    -7.602      2.549      3.293
REMARK INTER + INTRA:         -10.424
REMARK INTER:                  -9.460
REMARK INTRA:                  -0.964
REMARK UNBOUND:                -0.601
REMARK  Name = 
REMARK  5 active torsions:
REMARK  status: ('A' for Active; 'I' for Inactive)
REMARK    1  A    between atoms: C_2  and  C_18
REMARK    2  A    between atoms: N_3  and  C_4
REMARK    3  A    between atoms: C_4  and  C_5
REMARK    4  A    between atoms: C_8  and  C_9
REMARK    5  A    between atoms: C_9  and  C_10
REMARK                            x       y       z     vdW  Elec       q    Type
REMARK                         _______ _______ _______ _____ _____    ______ ____
ROOT
ATOM      1  O   UNL     1      50.572   6.517  15.940  0.00  0.00    +0.000 OA
ATOM      2  C   UNL     1      49.408   6.486  16.331  0.00  0.00    +0.000 C 
ATOM      3  N   UNL     1      48.346   6.724  15.499  0.00  0.00    +0.000 N 
ATOM      4  H   UNL     1      47.420   6.855  15.891  0.00  0.00    +0.000 HD
ENDROOT
BRANCH   2   5
ATOM      5  C   UNL     1      49.082   6.135  17.719  0.00  0.00    +0.000 A 
ATOM      6  C   UNL     1      49.433   4.883  18.209  0.00  0.00    +0.000 A 
ATOM      7  S   UNL     1      48.990   4.635  19.836  0.00  0.00    +0.000 S 
ATOM      8  C   UNL     1      48.350   6.209  19.959  0.00  0.00    +0.000 A 
ATOM      9  N   UNL     1      47.839   6.664  21.133  0.00  0.00    +0.000 NA
ATOM     10  C   UNL     1      47.429   7.890  21.095  0.00  0.00    +0.000 A 
ATOM     11  N   UNL     1      47.464   8.690  19.985  0.00  0.00    +0.000 N 
ATOM     12  C   UNL     1      47.894   8.245  18.759  0.00  0.00    +0.000 A 
ATOM     13  O   UNL     1      47.774   8.939  17.755  0.00  0.00    +0.000 OA
ATOM     14  C   UNL     1      48.435   6.896  18.763  0.00  0.00    +0.000 A 
ATOM     15  H   UNL     1      47.091   9.627  20.012  0.00  0.00    +0.000 HD
ENDBRANCH   2   5
BRANCH   3  16
ATOM     16  C   UNL     1      48.512   7.085  14.116  0.00  0.00    +0.000 C 
BRANCH  16  17
ATOM     17  C   UNL     1      47.421   6.512  13.250  0.00  0.00    +0.000 A 
ATOM     18  C   UNL     1      46.939   7.239  12.156  0.00  0.00    +0.000 A 
ATOM     19  C   UNL     1      45.967   6.696  11.316  0.00  0.00    +0.000 A 
ATOM     20  C   UNL     1      45.459   5.411  11.549  0.00  0.00    +0.000 A 
ATOM     21  C   UNL     1      45.910   4.700  12.668  0.00  0.00    +0.000 A 
ATOM     22  C   UNL     1      46.872   5.251  13.520  0.00  0.00    +0.000 A 
BRANCH  20  23
ATOM     23  C   UNL     1      44.441   4.803  10.608  0.00  0.00    +0.000 C 
BRANCH  23  24
ATOM     24  C   UNL     1      45.001   3.935   9.501  0.00  0.00    +0.000 A 
ATOM     25  C   UNL     1      45.004   2.543   9.603  0.00  0.00    +0.000 A 
ATOM     26  C   UNL     1      45.644   1.790   8.622  0.00  0.00    +0.000 A 
ATOM     27  C   UNL     1      46.260   2.436   7.560  0.00  0.00    +0.000 A 
ATOM     28  C   UNL     1      46.201   3.818   7.518  0.00  0.00    +0.000 A 
ATOM     29  N   UNL     1      45.595   4.576   8.460  0.00  0.00    +0.000 NA
ENDBRANCH  23  24
ENDBRANCH  20  23
ENDBRANCH  16  17
ENDBRANCH   3  16
TORSDOF 5
ENDMDL
MODEL 6
REMARK VINA RESULT:    -7.471      1.750      2.627
REMARK INTER + INTRA:         -10.255
REMARK INTER:                  -9.947
REMARK INTRA:                  -0.308
REMARK UNBOUND:                -0.601
REMARK  Name = 
REMARK  5 active torsions:
REMARK  status: ('A' for Active; 'I' for Inactive)
REMARK    1  A    between atoms: C_2  and  C_18
REMARK    2  A    between atoms: N_3  and  C_4
REMARK    3  A    between atoms: C_4  and  C_5
REMARK    4  A    between atoms: C_8  and  C_9
REMARK    5  A    between atoms: C_9  and  C_10
REMARK                            x       y       z     vdW  Elec       q    Type
REMARK                         _______ _______ _______ _____ _____    ______ ____
ROOT
ATOM      1  O   UNL     1      46.603   4.011  16.790  0.00  0.00    +0.000 OA
ATOM      2  C   UNL     1      47.234   4.655  15.957  0.00  0.00    +0.000 C 
ATOM      3  N   UNL     1      46.730   4.945  14.716  0.00  0.00    +0.000 N 
ATOM      4  H   UNL     1      47.340   5.331  14.003  0.00  0.00    +0.000 HD
ENDROOT
BRANCH   2   5
ATOM      5  C   UNL     1      48.560   5.206  16.267  0.00  0.00    +0.000 A 
ATOM      6  C   UNL     1      48.860   6.513  15.904  0.00  0.00    +0.000 A 
ATOM      7  S   UNL     1      50.435   7.000  16.340  0.00  0.00    +0.000 S 
ATOM      8  C   UNL     1      50.759   5.494  17.066  0.00  0.00    +0.000 A 
ATOM      9  N   UNL     1      51.946   5.259  17.683  0.00  0.00    +0.000 NA
ATOM     10  C   UNL     1      52.039   4.090  18.230  0.00  0.00    +0.000 A 
ATOM     11  N   UNL     1      51.063   3.131  18.193  0.00  0.00    +0.000 N 
ATOM     12  C   UNL     1      49.884   3.296  17.510  0.00  0.00    +0.000 A 
ATOM     13  O   UNL     1      49.095   2.366  17.372  0.00  0.00    +0.000 OA
ATOM     14  C   UNL     1      49.696   4.619  16.939  0.00  0.00    +0.000 A 
ATOM     15  H   UNL     1      51.215   2.224  18.607  0.00  0.00    +0.000 HD
ENDBRANCH   2   5
BRANCH   3  16
ATOM     16  C   UNL     1      45.447   4.469  14.271  0.00  0.00    +0.000 C 
BRANCH  16  17
ATOM     17  C   UNL     1      45.367   4.386  12.770  0.00  0.00    +0.000 A 
ATOM     18  C   UNL     1      44.788   3.269  12.158  0.00  0.00    +0.000 A 
ATOM     19  C   UNL     1      44.660   3.206  10.770  0.00  0.00    +0.000 A 
ATOM     20  C   UNL     1      45.105   4.263   9.964  0.00  0.00    +0.000 A 
ATOM     21  C   UNL     1      45.723   5.363  10.573  0.00  0.00    +0.000 A 
ATOM     22  C   UNL     1      45.867   5.417  11.963  0.00  0.00    +0.000 A 
BRANCH  20  23
ATOM     23  C   UNL     1      44.921   4.216   8.463  0.00  0.00    +0.000 C 
BRANCH  23  24
ATOM     24  C   UNL     1      45.813   3.243   7.719  0.00  0.00    +0.000 A 
ATOM     25  C   UNL     1      46.040   1.954   8.202  0.00  0.00    +0.000 A 
ATOM     26  C   UNL     1      46.967   1.139   7.556  0.00  0.00    +0.000 A 
ATOM     27  C   UNL     1      47.640   1.622   6.443  0.00  0.00    +0.000 A 
ATOM     28  C   UNL     1      47.349   2.904   6.013  0.00  0.00    +0.000 A 
ATOM     29  N   UNL     1      46.462   3.722   6.624  0.00  0.00    +0.000 NA
ENDBRANCH  23  24
ENDBRANCH  20  23
ENDBRANCH  16  17
ENDBRANCH   3  16
TORSDOF 5
ENDMDL
MODEL 7
REMARK VINA RESULT:    -7.454      2.069      2.746
REMARK INTER + INTRA:         -10.233
REMARK INTER:                  -9.366
REMARK INTRA:                  -0.867
REMARK UNBOUND:                -0.601
REMARK  Name = 
REMARK  5 active torsions:
REMARK  status: ('A' for Active; 'I' for Inactive)
REMARK    1  A    between atoms: C_2  and  C_18
REMARK    2  A    between atoms: N_3  and  C_4
REMARK    3  A    between atoms: C_4  and  C_5
REMARK    4  A    between atoms: C_8  and  C_9
REMARK    5  A    between atoms: C_9  and  C_10
REMARK                            x       y       z     vdW  Elec       q    Type
REMARK                         _______ _______ _______ _____ _____    ______ ____
ROOT
ATOM      1  O   UNL     1      50.099   8.367  16.031  0.00  0.00    +0.000 OA
ATOM      2  C   UNL     1      49.147   7.646  16.317  0.00  0.00    +0.000 C 
ATOM      3  N   UNL     1      48.386   7.020  15.365  0.00  0.00    +0.000 N 
ATOM      4  H   UNL     1      47.515   6.573  15.632  0.00  0.00    +0.000 HD
ENDROOT
BRANCH   2   5
ATOM      5  C   UNL     1      48.800   7.366  17.717  0.00  0.00    +0.000 A 
ATOM      6  C   UNL     1      48.263   8.377  18.504  0.00  0.00    +0.000 A 
ATOM      7  S   UNL     1      47.910   7.889  20.099  0.00  0.00    +0.000 S 
ATOM      8  C   UNL     1      48.424   6.297  19.784  0.00  0.00    +0.000 A 
ATOM      9  N   UNL     1      48.341   5.335  20.740  0.00  0.00    +0.000 NA
ATOM     10  C   UNL     1      48.723   4.163  20.351  0.00  0.00    +0.000 A 
ATOM     11  N   UNL     1      49.202   3.873  19.101  0.00  0.00    +0.000 N 
ATOM     12  C   UNL     1      49.381   4.829  18.133  0.00  0.00    +0.000 A 
ATOM     13  O   UNL     1      49.948   4.565  17.078  0.00  0.00    +0.000 OA
ATOM     14  C   UNL     1      48.898   6.152  18.493  0.00  0.00    +0.000 A 
ATOM     15  H   UNL     1      49.521   2.944  18.874  0.00  0.00    +0.000 HD
ENDBRANCH   2   5
BRANCH   3  16
ATOM     16  C   UNL     1      48.605   7.205  13.955  0.00  0.00    +0.000 C 
BRANCH  16  17
ATOM     17  C   UNL     1      47.496   6.607  13.130  0.00  0.00    +0.000 A 
ATOM     18  C   UNL     1      46.961   7.321  12.053  0.00  0.00    +0.000 A 
ATOM     19  C   UNL     1      45.970   6.755  11.249  0.00  0.00    +0.000 A 
ATOM     20  C   UNL     1      45.497   5.460  11.503  0.00  0.00    +0.000 A 
ATOM     21  C   UNL     1      46.003   4.762  12.607  0.00  0.00    +0.000 A 
ATOM     22  C   UNL     1      46.983   5.336  13.423  0.00  0.00    +0.000 A 
BRANCH  20  23
ATOM     23  C   UNL     1      44.459   4.829  10.601  0.00  0.00    +0.000 C 
BRANCH  23  24
ATOM     24  C   UNL     1      44.996   3.937   9.500  0.00  0.00    +0.000 A 
ATOM     25  C   UNL     1      44.976   2.548   9.620  0.00  0.00    +0.000 A 
ATOM     26  C   UNL     1      45.594   1.771   8.644  0.00  0.00    +0.000 A 
ATOM     27  C   UNL     1      46.213   2.394   7.569  0.00  0.00    +0.000 A 
ATOM     28  C   UNL     1      46.177   3.775   7.510  0.00  0.00    +0.000 A 
ATOM     29  N   UNL     1      45.593   4.556   8.447  0.00  0.00    +0.000 NA
ENDBRANCH  23  24
ENDBRANCH  20  23
ENDBRANCH  16  17
ENDBRANCH   3  16
TORSDOF 5
ENDMDL
MODEL 8
REMARK VINA RESULT:    -7.436      3.529      4.403
REMARK INTER + INTRA:         -10.210
REMARK INTER:                  -9.816
REMARK INTRA:                  -0.393
REMARK UNBOUND:                -0.601
REMARK  Name = 
REMARK  5 active torsions:
REMARK  status: ('A' for Active; 'I' for Inactive)
REMARK    1  A    between atoms: C_2  and  C_18
REMARK    2  A    between atoms: N_3  and  C_4
REMARK    3  A    between atoms: C_4  and  C_5
REMARK    4  A    between atoms: C_8  and  C_9
REMARK    5  A    between atoms: C_9  and  C_10
REMARK                            x       y       z     vdW  Elec       q    Type
REMARK                         _______ _______ _______ _____ _____    ______ ____
ROOT
ATOM      1  O   UNL     1      45.009   9.340  11.724  0.00  0.00    +0.000 OA
ATOM      2  C   UNL     1      46.009   8.843  12.234  0.00  0.00    +0.000 C 
ATOM      3  N   UNL     1      45.997   7.605  12.820  0.00  0.00    +0.000 N 
ATOM      4  H   UNL     1      46.792   7.303  13.373  0.00  0.00    +0.000 HD
ENDROOT
BRANCH   2   5
ATOM      5  C   UNL     1      47.305   9.533  12.194  0.00  0.00    +0.000 A 
ATOM      6  C   UNL     1      47.340  10.920  12.125  0.00  0.00    +0.000 A 
ATOM      7  S   UNL     1      48.917  11.565  12.093  0.00  0.00    +0.000 S 
ATOM      8  C   UNL     1      49.613  10.015  12.212  0.00  0.00    +0.000 A 
ATOM      9  N   UNL     1      50.961   9.859  12.281  0.00  0.00    +0.000 NA
ATOM     10  C   UNL     1      51.348   8.632  12.415  0.00  0.00    +0.000 A 
ATOM     11  N   UNL     1      50.511   7.550  12.462  0.00  0.00    +0.000 N 
ATOM     12  C   UNL     1      49.150   7.655  12.313  0.00  0.00    +0.000 A 
ATOM     13  O   UNL     1      48.444   6.656  12.211  0.00  0.00    +0.000 OA
ATOM     14  C   UNL     1      48.655   9.019  12.233  0.00  0.00    +0.000 A 
ATOM     15  H   UNL     1      50.881   6.614  12.528  0.00  0.00    +0.000 HD
ENDBRANCH   2   5
BRANCH   3  16
ATOM     16  C   UNL     1      44.800   6.815  12.937  0.00  0.00    +0.000 C 
BRANCH  16  17
ATOM     17  C   UNL     1      44.783   5.671  11.959  0.00  0.00    +0.000 A 
ATOM     18  C   UNL     1      44.107   4.487  12.276  0.00  0.00    +0.000 A 
ATOM     19  C   UNL     1      44.040   3.440  11.355  0.00  0.00    +0.000 A 
ATOM     20  C   UNL     1      44.643   3.557  10.096  0.00  0.00    +0.000 A 
ATOM     21  C   UNL     1      45.356   4.724   9.795  0.00  0.00    +0.000 A 
ATOM     22  C   UNL     1      45.438   5.766  10.724  0.00  0.00    +0.000 A 
BRANCH  20  23
ATOM     23  C   UNL     1      44.527   2.441   9.080  0.00  0.00    +0.000 C 
BRANCH  23  24
ATOM     24  C   UNL     1      45.663   2.336   8.083  0.00  0.00    +0.000 A 
ATOM     25  C   UNL     1      45.817   3.272   7.060  0.00  0.00    +0.000 A 
ATOM     26  C   UNL     1      46.796   3.066   6.091  0.00  0.00    +0.000 A 
ATOM     27  C   UNL     1      47.601   1.938   6.164  0.00  0.00    +0.000 A 
ATOM     28  C   UNL     1      47.400   1.064   7.217  0.00  0.00    +0.000 A 
ATOM     29  N   UNL     1      46.453   1.232   8.168  0.00  0.00    +0.000 NA
ENDBRANCH  23  24
ENDBRANCH  20  23
ENDBRANCH  16  17
ENDBRANCH   3  16
TORSDOF 5
ENDMDL
MODEL 9
REMARK VINA RESULT:    -6.982      4.691      7.214
REMARK INTER + INTRA:          -9.623
REMARK INTER:                  -8.713
REMARK INTRA:                  -0.910
REMARK UNBOUND:                -0.601
REMARK  Name = 
REMARK  5 active torsions:
REMARK  status: ('A' for Active; 'I' for Inactive)
REMARK    1  A    between atoms: C_2  and  C_18
REMARK    2  A    between atoms: N_3  and  C_4
REMARK    3  A    between atoms: C_4  and  C_5
REMARK    4  A    between atoms: C_8  and  C_9
REMARK    5  A    between atoms: C_9  and  C_10
REMARK                            x       y       z     vdW  Elec       q    Type
REMARK                         _______ _______ _______ _____ _____    ______ ____
ROOT
ATOM      1  O   UNL     1      44.372   8.011  11.204  0.00  0.00    +0.000 OA
ATOM      2  C   UNL     1      45.121   7.121  11.599  0.00  0.00    +0.000 C 
ATOM      3  N   UNL     1      46.360   7.382  12.121  0.00  0.00    +0.000 N 
ATOM      4  H   UNL     1      47.010   6.619  12.278  0.00  0.00    +0.000 HD
ENDROOT
BRANCH   2   5
ATOM      5  C   UNL     1      44.703   5.713  11.583  0.00  0.00    +0.000 A 
ATOM      6  C   UNL     1      44.029   5.188  12.678  0.00  0.00    +0.000 A 
ATOM      7  S   UNL     1      43.610   3.545  12.500  0.00  0.00    +0.000 S 
ATOM      8  C   UNL     1      44.278   3.487  10.935  0.00  0.00    +0.000 A 
ATOM      9  N   UNL     1      44.211   2.353  10.189  0.00  0.00    +0.000 NA
ATOM     10  C   UNL     1      44.718   2.464   9.005  0.00  0.00    +0.000 A 
ATOM     11  N   UNL     1      45.304   3.598   8.510  0.00  0.00    +0.000 N 
ATOM     12  C   UNL     1      45.468   4.738   9.257  0.00  0.00    +0.000 A 
ATOM     13  O   UNL     1      46.127   5.683   8.837  0.00  0.00    +0.000 OA
ATOM     14  C   UNL     1      44.850   4.692  10.572  0.00  0.00    +0.000 A 
ATOM     15  H   UNL     1      45.717   3.606   7.590  0.00  0.00    +0.000 HD
ENDBRANCH   2   5
BRANCH   3  16
ATOM     16  C   UNL     1      46.905   8.712  12.195  0.00  0.00    +0.000 C 
BRANCH  16  17
ATOM     17  C   UNL     1      48.371   8.739  11.855  0.00  0.00    +0.000 A 
ATOM     18  C   UNL     1      49.114   7.554  11.855  0.00  0.00    +0.000 A 
ATOM     19  C   UNL     1      50.461   7.560  11.490  0.00  0.00    +0.000 A 
ATOM     20  C   UNL     1      51.093   8.752  11.112  0.00  0.00    +0.000 A 
ATOM     21  C   UNL     1      50.361   9.946  11.153  0.00  0.00    +0.000 A 
ATOM     22  C   UNL     1      49.016   9.942  11.535  0.00  0.00    +0.000 A 
BRANCH  20  23
ATOM     23  C   UNL     1      52.540   8.749  10.669  0.00  0.00    +0.000 C 
BRANCH  23  24
ATOM     24  C   UNL     1      52.943   7.622   9.740  0.00  0.00    +0.000 A 
ATOM     25  C   UNL     1      52.505   7.582   8.416  0.00  0.00    +0.000 A 
ATOM     26  C   UNL     1      52.793   6.465   7.636  0.00  0.00    +0.000 A 
ATOM     27  C   UNL     1      53.514   5.417   8.189  0.00  0.00    +0.000 A 
ATOM     28  C   UNL     1      53.930   5.535   9.503  0.00  0.00    +0.000 A 
ATOM     29  N   UNL     1      53.658   6.603  10.288  0.00  0.00    +0.000 NA
ENDBRANCH  23  24
ENDBRANCH  20  23
ENDBRANCH  16  17
ENDBRANCH   3  16
TORSDOF 5
ENDMDL
