MODEL 1
REMARK VINA RESULT:    -7.865      0.000      0.000
REMARK INTER + INTRA:         -11.560
REMARK INTER:                 -10.853
REMARK INTRA:                  -0.707
REMARK UNBOUND:                -0.707
REMARK  Name = 
REMARK  8 active torsions:
REMARK  status: ('A' for Active; 'I' for Inactive)
REMARK    1  A    between atoms: C_1  and  C_2
REMARK    2  A    between atoms: C_4  and  O_5
REMARK    3  A    between atoms: O_5  and  C_6
REMARK    4  A    between atoms: C_6  and  C_7
REMARK    5  A    between atoms: C_7  and  C_8
REMARK    6  A    between atoms: C_12  and  C_13
REMARK    7  A    between atoms: C_13  and  N_14
REMARK    8  A    between atoms: C_18  and  C_19
REMARK                            x       y       z     vdW  Elec       q    Type
REMARK                         _______ _______ _______ _____ _____    ______ ____
ROOT
ATOM      1  O   UNL     1      43.597   3.222  10.376  0.00  0.00    +0.000 OA
ENDROOT
BRANCH   1   5
ATOM      2  C   UNL     1      46.615   0.304   7.740  0.00  0.00    +0.000 C 
ATOM      3  C   UNL     1      46.064   1.673   8.032  0.00  0.00    +0.000 A 
ATOM      4  C   UNL     1      45.101   1.790   9.057  0.00  0.00    +0.000 A 
ATOM      5  C   UNL     1      44.544   3.023   9.401  0.00  0.00    +0.000 A 
ATOM      6  C   UNL     1      44.957   4.162   8.711  0.00  0.00    +0.000 A 
ATOM      7  C   UNL     1      45.909   4.069   7.687  0.00  0.00    +0.000 A 
ATOM      8  C   UNL     1      46.475   2.830   7.341  0.00  0.00    +0.000 A 
BRANCH   8   9
ATOM      9  C   UNL     1      47.470   2.752   6.224  0.00  0.00    +0.000 C 
ATOM     10  N   UNL     1      48.785   2.593   6.562  0.00  0.00    +0.000 N 
ATOM     11  O   UNL     1      47.150   2.806   5.043  0.00  0.00    +0.000 OA
ATOM     12  H   UNL     1      49.093   2.350   7.491  0.00  0.00    +0.000 HD
ATOM     13  H   UNL     1      49.432   2.455   5.796  0.00  0.00    +0.000 HD
ENDBRANCH   8   9
ENDBRANCH   1   5
BRANCH   1  14
ATOM     14  C   UNL     1      43.900   2.661  11.659  0.00  0.00    +0.000 C 
BRANCH  14  15
ATOM     15  C   UNL     1      43.554   3.654  12.769  0.00  0.00    +0.000 C 
BRANCH  15  16
ATOM     16  C   UNL     1      44.495   4.836  12.751  0.00  0.00    +0.000 A 
ATOM     17  C   UNL     1      45.761   4.750  13.345  0.00  0.00    +0.000 A 
ATOM     18  C   UNL     1      46.646   5.828  13.281  0.00  0.00    +0.000 A 
ATOM     19  C   UNL     1      46.277   7.003  12.626  0.00  0.00    +0.000 A 
ATOM     20  C   UNL     1      45.018   7.113  12.023  0.00  0.00    +0.000 A 
ATOM     21  C   UNL     1      44.136   6.020  12.090  0.00  0.00    +0.000 A 
BRANCH  20  22
ATOM     22  C   UNL     1      44.601   8.394  11.342  0.00  0.00    +0.000 C 
BRANCH  22  23
ATOM     23  N   UNL     1      43.201   8.364  10.935  0.00  0.00    +0.000 NA
ATOM     24  H   UNL     1      42.805   9.295  11.060  0.00  0.00    +0.000 HD
ATOM     25  H   UNL     1      42.688   7.747  11.561  0.00  0.00    +0.000 HD
ENDBRANCH  22  23
ENDBRANCH  20  22
ENDBRANCH  15  16
ENDBRANCH  14  15
ENDBRANCH   1  14
TORSDOF 7
ENDMDL
MODEL 2
REMARK VINA RESULT:    -7.674      1.946      2.449
REMARK INTER + INTRA:         -11.297
REMARK INTER:                 -10.516
REMARK INTRA:                  -0.781
REMARK UNBOUND:                -0.707
REMARK  Name = 
REMARK  8 active torsions:
REMARK  status: ('A' for Active; 'I' for Inactive)
REMARK    1  A    between atoms: C_1  and  C_2
REMARK    2  A    between atoms: C_4  and  O_5
REMARK    3  A    between atoms: O_5  and  C_6
REMARK    4  A    between atoms: C_6  and  C_7
REMARK    5  A    between atoms: C_7  and  C_8
REMARK    6  A    between atoms: C_12  and  C_13
REMARK    7  A    between atoms: C_13  and  N_14
REMARK    8  A    between atoms: C_18  and  C_19
REMARK                            x       y       z     vdW  Elec       q    Type
REMARK                         _______ _______ _______ _____ _____    ______ ____
ROOT
ATOM      1  O   UNL     1      43.678   3.100  10.394  0.00  0.00    +0.000 OA
ENDROOT
BRANCH   1   5
ATOM      2  C   UNL     1      46.743   0.264   7.721  0.00  0.00    +0.000 C 
ATOM      3  C   UNL     1      46.135   1.612   8.000  0.00  0.00    +0.000 A 
ATOM      4  C   UNL     1      45.204   1.709   9.056  0.00  0.00    +0.000 A 
ATOM      5  C   UNL     1      44.598   2.922   9.390  0.00  0.00    +0.000 A 
ATOM      6  C   UNL     1      44.931   4.061   8.658  0.00  0.00    +0.000 A 
ATOM      7  C   UNL     1      45.851   3.989   7.604  0.00  0.00    +0.000 A 
ATOM      8  C   UNL     1      46.464   2.770   7.267  0.00  0.00    +0.000 A 
BRANCH   8   9
ATOM      9  C   UNL     1      47.423   2.711   6.117  0.00  0.00    +0.000 C 
ATOM     10  N   UNL     1      48.755   2.633   6.412  0.00  0.00    +0.000 N 
ATOM     11  O   UNL     1      47.060   2.713   4.948  0.00  0.00    +0.000 OA
ATOM     12  H   UNL     1      49.108   2.434   7.335  0.00  0.00    +0.000 HD
ATOM     13  H   UNL     1      49.382   2.506   5.627  0.00  0.00    +0.000 HD
ENDBRANCH   8   9
ENDBRANCH   1   5
BRANCH   1  14
ATOM     14  C   UNL     1      43.776   4.335  11.114  0.00  0.00    +0.000 C 
BRANCH  14  15
ATOM     15  C   UNL     1      44.631   4.153  12.368  0.00  0.00    +0.000 C 
BRANCH  15  16
ATOM     16  C   UNL     1      45.753   5.163  12.411  0.00  0.00    +0.000 A 
ATOM     17  C   UNL     1      45.989   6.014  11.323  0.00  0.00    +0.000 A 
ATOM     18  C   UNL     1      46.995   6.980  11.386  0.00  0.00    +0.000 A 
ATOM     19  C   UNL     1      47.776   7.108  12.536  0.00  0.00    +0.000 A 
ATOM     20  C   UNL     1      47.558   6.271  13.637  0.00  0.00    +0.000 A 
ATOM     21  C   UNL     1      46.540   5.304  13.563  0.00  0.00    +0.000 A 
BRANCH  20  22
ATOM     22  C   UNL     1      48.421   6.383  14.870  0.00  0.00    +0.000 C 
BRANCH  22  23
ATOM     23  N   UNL     1      48.069   5.386  15.874  0.00  0.00    +0.000 NA
ATOM     24  H   UNL     1      47.674   4.573  15.402  0.00  0.00    +0.000 HD
ATOM     25  H   UNL     1      47.332   5.760  16.467  0.00  0.00    +0.000 HD
ENDBRANCH  22  23
ENDBRANCH  20  22
ENDBRANCH  15  16
ENDBRANCH  14  15
ENDBRANCH   1  14
TORSDOF 7
ENDMDL
MODEL 3
REMARK VINA RESULT:    -7.449      2.378      6.684
REMARK INTER + INTRA:         -10.987
REMARK INTER:                 -10.106
REMARK INTRA:                  -0.881
REMARK UNBOUND:                -0.707
REMARK  Name = 
REMARK  8 active torsions:
REMARK  status: ('A' for Active; 'I' for Inactive)
REMARK    1  A    between atoms: C_1  and  C_2
REMARK    2  A    between atoms: C_4  and  O_5
REMARK    3  A    between atoms: O_5  and  C_6
REMARK    4  A    between atoms: C_6  and  C_7
REMARK    5  A    between atoms: C_7  and  C_8
REMARK    6  A    between atoms: C_12  and  C_13
REMARK    7  A    between atoms: C_13  and  N_14
REMARK    8  A    between atoms: C_18  and  C_19
REMARK                            x       y       z     vdW  Elec       q    Type
REMARK                         _______ _______ _______ _____ _____    ______ ____
ROOT
ATOM      1  O   UNL     1      44.140   3.671  12.669  0.00  0.00    +0.000 OA
ENDROOT
BRANCH   1   5
ATOM      2  C   UNL     1      45.080   8.490  11.978  0.00  0.00    +0.000 C 
ATOM      3  C   UNL     1      45.488   7.156  12.543  0.00  0.00    +0.000 A 
ATOM      4  C   UNL     1      44.624   6.061  12.336  0.00  0.00    +0.000 A 
ATOM      5  C   UNL     1      44.928   4.786  12.818  0.00  0.00    +0.000 A 
ATOM      6  C   UNL     1      46.120   4.600  13.518  0.00  0.00    +0.000 A 
ATOM      7  C   UNL     1      46.993   5.675  13.738  0.00  0.00    +0.000 A 
ATOM      8  C   UNL     1      46.690   6.958  13.251  0.00  0.00    +0.000 A 
BRANCH   8   9
ATOM      9  C   UNL     1      47.625   8.097  13.524  0.00  0.00    +0.000 C 
ATOM     10  N   UNL     1      47.395   8.847  14.643  0.00  0.00    +0.000 N 
ATOM     11  O   UNL     1      48.580   8.361  12.803  0.00  0.00    +0.000 OA
ATOM     12  H   UNL     1      46.756   8.571  15.373  0.00  0.00    +0.000 HD
ATOM     13  H   UNL     1      48.085   9.555  14.859  0.00  0.00    +0.000 HD
ENDBRANCH   8   9
ENDBRANCH   1   5
BRANCH   1  14
ATOM     14  C   UNL     1      43.451   3.560  11.418  0.00  0.00    +0.000 C 
BRANCH  14  15
ATOM     15  C   UNL     1      43.970   2.359  10.629  0.00  0.00    +0.000 C 
BRANCH  15  16
ATOM     16  C   UNL     1      44.853   2.802   9.485  0.00  0.00    +0.000 A 
ATOM     17  C   UNL     1      44.983   4.161   9.170  0.00  0.00    +0.000 A 
ATOM     18  C   UNL     1      45.839   4.569   8.144  0.00  0.00    +0.000 A 
ATOM     19  C   UNL     1      46.573   3.626   7.424  0.00  0.00    +0.000 A 
ATOM     20  C   UNL     1      46.461   2.262   7.722  0.00  0.00    +0.000 A 
ATOM     21  C   UNL     1      45.599   1.863   8.758  0.00  0.00    +0.000 A 
BRANCH  20  22
ATOM     22  C   UNL     1      47.227   1.236   6.923  0.00  0.00    +0.000 C 
BRANCH  22  23
ATOM     23  N   UNL     1      48.405   1.812   6.283  0.00  0.00    +0.000 NA
ATOM     24  H   UNL     1      49.009   1.053   5.970  0.00  0.00    +0.000 HD
ATOM     25  H   UNL     1      48.936   2.334   6.976  0.00  0.00    +0.000 HD
ENDBRANCH  22  23
ENDBRANCH  20  22
ENDBRANCH  15  16
ENDBRANCH  14  15
ENDBRANCH   1  14
TORSDOF 7
ENDMDL
MODEL 4
REMARK VINA RESULT:    -7.126      2.235      3.175
REMARK INTER + INTRA:         -10.541
REMARK INTER:                 -10.382
REMARK INTRA:                  -0.160
REMARK UNBOUND:                -0.707
REMARK  Name = 
REMARK  8 active torsions:
REMARK  status: ('A' for Active; 'I' for Inactive)
REMARK    1  A    between atoms: C_1  and  C_2
REMARK    2  A    between atoms: C_4  and  O_5
REMARK    3  A    between atoms: O_5  and  C_6
REMARK    4  A    between atoms: C_6  and  C_7
REMARK    5  A    between atoms: C_7  and  C_8
REMARK    6  A    between atoms: C_12  and  C_13
REMARK    7  A    between atoms: C_13  and  N_14
REMARK    8  A    between atoms: C_18  and  C_19
REMARK                            x       y       z     vdW  Elec       q    Type
REMARK                         _______ _______ _______ _____ _____    ______ ____
ROOT
ATOM      1  O   UNL     1      43.439   4.836   9.746  0.00  0.00    +0.000 OA
ENDROOT
BRANCH   1   5
ATOM      2  C   UNL     1      46.586   3.559   6.134  0.00  0.00    +0.000 C 
ATOM      3  C   UNL     1      45.884   3.223   7.421  0.00  0.00    +0.000 A 
ATOM      4  C   UNL     1      45.004   4.185   7.962  0.00  0.00    +0.000 A 
ATOM      5  C   UNL     1      44.305   3.953   9.148  0.00  0.00    +0.000 A 
ATOM      6  C   UNL     1      44.484   2.736   9.806  0.00  0.00    +0.000 A 
ATOM      7  C   UNL     1      45.355   1.767   9.288  0.00  0.00    +0.000 A 
ATOM      8  C   UNL     1      46.058   1.997   8.093  0.00  0.00    +0.000 A 
BRANCH   8   9
ATOM      9  C   UNL     1      47.005   0.958   7.575  0.00  0.00    +0.000 C 
ATOM     10  N   UNL     1      48.193   1.390   7.058  0.00  0.00    +0.000 N 
ATOM     11  O   UNL     1      46.762  -0.242   7.616  0.00  0.00    +0.000 OA
ATOM     12  H   UNL     1      48.536   2.332   7.169  0.00  0.00    +0.000 HD
ATOM     13  H   UNL     1      48.856   0.672   6.794  0.00  0.00    +0.000 HD
ENDBRANCH   8   9
ENDBRANCH   1   5
BRANCH   1  14
ATOM     14  C   UNL     1      43.624   5.031  11.153  0.00  0.00    +0.000 C 
BRANCH  14  15
ATOM     15  C   UNL     1      44.242   6.403  11.423  0.00  0.00    +0.000 C 
BRANCH  15  16
ATOM     16  C   UNL     1      45.586   6.268  12.100  0.00  0.00    +0.000 A 
ATOM     17  C   UNL     1      46.687   7.009  11.652  0.00  0.00    +0.000 A 
ATOM     18  C   UNL     1      47.915   6.919  12.312  0.00  0.00    +0.000 A 
ATOM     19  C   UNL     1      48.056   6.089  13.424  0.00  0.00    +0.000 A 
ATOM     20  C   UNL     1      46.969   5.340  13.892  0.00  0.00    +0.000 A 
ATOM     21  C   UNL     1      45.738   5.441  13.222  0.00  0.00    +0.000 A 
BRANCH  20  22
ATOM     22  C   UNL     1      47.125   4.415  15.074  0.00  0.00    +0.000 C 
BRANCH  22  23
ATOM     23  N   UNL     1      47.568   3.085  14.671  0.00  0.00    +0.000 NA
ATOM     24  H   UNL     1      47.544   2.472  15.486  0.00  0.00    +0.000 HD
ATOM     25  H   UNL     1      48.541   3.135  14.378  0.00  0.00    +0.000 HD
ENDBRANCH  22  23
ENDBRANCH  20  22
ENDBRANCH  15  16
ENDBRANCH  14  15
ENDBRANCH   1  14
TORSDOF 7
ENDMDL
MODEL 5
REMARK VINA RESULT:    -6.878      2.484      6.746
REMARK INTER + INTRA:         -10.199
REMARK INTER:                  -9.601
REMARK INTRA:                  -0.598
REMARK UNBOUND:                -0.707
REMARK  Name = 
REMARK  8 active torsions:
REMARK  status: ('A' for Active; 'I' for Inactive)
REMARK    1  A    between atoms: C_1  and  C_2
REMARK    2  A    between atoms: C_4  and  O_5
REMARK    3  A    between atoms: O_5  and  C_6
REMARK    4  A    between atoms: C_6  and  C_7
REMARK    5  A    between atoms: C_7  and  C_8
REMARK    6  A    between atoms: C_12  and  C_13
REMARK    7  A    between atoms: C_13  and  N_14
REMARK    8  A    between atoms: C_18  and  C_19
REMARK                            x       y       z     vdW  Elec       q    Type
REMARK                         _______ _______ _______ _____ _____    ______ ____
ROOT
ATOM      1  O   UNL     1      43.477   5.700  11.311  0.00  0.00    +0.000 OA
ENDROOT
BRANCH   1   5
ATOM      2  C   UNL     1      47.066   4.311  14.436  0.00  0.00    +0.000 C 
ATOM      3  C   UNL     1      46.428   5.374  13.584  0.00  0.00    +0.000 A 
ATOM      4  C   UNL     1      45.266   5.030  12.861  0.00  0.00    +0.000 A 
ATOM      5  C   UNL     1      44.604   5.956  12.053  0.00  0.00    +0.000 A 
ATOM      6  C   UNL     1      45.110   7.252  11.966  0.00  0.00    +0.000 A 
ATOM      7  C   UNL     1      46.264   7.617  12.673  0.00  0.00    +0.000 A 
ATOM      8  C   UNL     1      46.930   6.687  13.490  0.00  0.00    +0.000 A 
BRANCH   8   9
ATOM      9  C   UNL     1      48.178   7.092  14.214  0.00  0.00    +0.000 C 
ATOM     10  N   UNL     1      48.058   8.029  15.201  0.00  0.00    +0.000 N 
ATOM     11  O   UNL     1      49.276   6.609  13.968  0.00  0.00    +0.000 OA
ATOM     12  H   UNL     1      47.171   8.321  15.583  0.00  0.00    +0.000 HD
ATOM     13  H   UNL     1      48.893   8.226  15.738  0.00  0.00    +0.000 HD
ENDBRANCH   8   9
ENDBRANCH   1   5
BRANCH   1  14
ATOM     14  C   UNL     1      43.577   4.616  10.381  0.00  0.00    +0.000 C 
BRANCH  14  15
ATOM     15  C   UNL     1      44.539   4.974   9.247  0.00  0.00    +0.000 C 
BRANCH  15  16
ATOM     16  C   UNL     1      45.216   3.739   8.701  0.00  0.00    +0.000 A 
ATOM     17  C   UNL     1      45.012   2.489   9.298  0.00  0.00    +0.000 A 
ATOM     18  C   UNL     1      45.600   1.343   8.759  0.00  0.00    +0.000 A 
ATOM     19  C   UNL     1      46.399   1.433   7.619  0.00  0.00    +0.000 A 
ATOM     20  C   UNL     1      46.617   2.671   7.002  0.00  0.00    +0.000 A 
ATOM     21  C   UNL     1      46.017   3.817   7.551  0.00  0.00    +0.000 A 
BRANCH  20  22
ATOM     22  C   UNL     1      47.507   2.779   5.788  0.00  0.00    +0.000 C 
BRANCH  22  23
ATOM     23  N   UNL     1      48.511   1.720   5.752  0.00  0.00    +0.000 NA
ATOM     24  H   UNL     1      48.740   1.521   4.779  0.00  0.00    +0.000 HD
ATOM     25  H   UNL     1      48.106   0.868   6.133  0.00  0.00    +0.000 HD
ENDBRANCH  22  23
ENDBRANCH  20  22
ENDBRANCH  15  16
ENDBRANCH  14  15
ENDBRANCH   1  14
TORSDOF 7
ENDMDL
MODEL 6
REMARK VINA RESULT:    -6.686      3.193      7.580
REMARK INTER + INTRA:          -9.934
REMARK INTER:                  -9.373
REMARK INTRA:                  -0.561
REMARK UNBOUND:                -0.707
REMARK  Name = 
REMARK  8 active torsions:
REMARK  status: ('A' for Active; 'I' for Inactive)
REMARK    1  A    between atoms: C_1  and  C_2
REMARK    2  A    between atoms: C_4  and  O_5
REMARK    3  A    between atoms: O_5  and  C_6
REMARK    4  A    between atoms: C_6  and  C_7
REMARK    5  A    between atoms: C_7  and  C_8
REMARK    6  A    between atoms: C_12  and  C_13
REMARK    7  A    between atoms: C_13  and  N_14
REMARK    8  A    between atoms: C_18  and  C_19
REMARK                            x       y       z     vdW  Elec       q    Type
REMARK                         _______ _______ _______ _____ _____    ______ ____
ROOT
ATOM      1  O   UNL     1      46.487   6.077  11.327  0.00  0.00    +0.000 OA
ENDROOT
BRANCH   1   5
ATOM      2  C   UNL     1      49.164   7.269  15.326  0.00  0.00    +0.000 C 
ATOM      3  C   UNL     1      48.211   6.332  14.635  0.00  0.00    +0.000 A 
ATOM      4  C   UNL     1      47.809   6.652  13.321  0.00  0.00    +0.000 A 
ATOM      5  C   UNL     1      46.934   5.834  12.603  0.00  0.00    +0.000 A 
ATOM      6  C   UNL     1      46.454   4.672  13.206  0.00  0.00    +0.000 A 
ATOM      7  C   UNL     1      46.839   4.335  14.512  0.00  0.00    +0.000 A 
ATOM      8  C   UNL     1      47.721   5.155  15.236  0.00  0.00    +0.000 A 
BRANCH   8   9
ATOM      9  C   UNL     1      48.094   4.789  16.640  0.00  0.00    +0.000 C 
ATOM     10  N   UNL     1      47.242   5.171  17.638  0.00  0.00    +0.000 N 
ATOM     11  O   UNL     1      49.106   4.156  16.916  0.00  0.00    +0.000 OA
ATOM     12  H   UNL     1      46.310   5.517  17.469  0.00  0.00    +0.000 HD
ATOM     13  H   UNL     1      47.464   4.840  18.569  0.00  0.00    +0.000 HD
ENDBRANCH   8   9
ENDBRANCH   1   5
BRANCH   1  14
ATOM     14  C   UNL     1      45.321   5.347  10.928  0.00  0.00    +0.000 C 
BRANCH  14  15
ATOM     15  C   UNL     1      45.174   5.369   9.407  0.00  0.00    +0.000 C 
BRANCH  15  16
ATOM     16  C   UNL     1      45.573   4.042   8.805  0.00  0.00    +0.000 A 
ATOM     17  C   UNL     1      45.177   2.839   9.403  0.00  0.00    +0.000 A 
ATOM     18  C   UNL     1      45.506   1.615   8.815  0.00  0.00    +0.000 A 
ATOM     19  C   UNL     1      46.233   1.580   7.625  0.00  0.00    +0.000 A 
ATOM     20  C   UNL     1      46.639   2.769   7.006  0.00  0.00    +0.000 A 
ATOM     21  C   UNL     1      46.300   3.994   7.605  0.00  0.00    +0.000 A 
BRANCH  20  22
ATOM     22  C   UNL     1      47.454   2.735   5.737  0.00  0.00    +0.000 C 
BRANCH  22  23
ATOM     23  N   UNL     1      48.514   1.734   5.796  0.00  0.00    +0.000 NA
ATOM     24  H   UNL     1      48.137   0.842   5.477  0.00  0.00    +0.000 HD
ATOM     25  H   UNL     1      48.788   1.600   6.766  0.00  0.00    +0.000 HD
ENDBRANCH  22  23
ENDBRANCH  20  22
ENDBRANCH  15  16
ENDBRANCH  14  15
ENDBRANCH   1  14
TORSDOF 7
ENDMDL
MODEL 7
REMARK VINA RESULT:    -6.445      5.209      7.426
REMARK INTER + INTRA:          -9.601
REMARK INTER:                  -9.140
REMARK INTRA:                  -0.461
REMARK UNBOUND:                -0.707
REMARK  Name = 
REMARK  8 active torsions:
REMARK  status: ('A' for Active; 'I' for Inactive)
REMARK    1  A    between atoms: C_1  and  C_2
REMARK    2  A    between atoms: C_4  and  O_5
REMARK    3  A    between atoms: O_5  and  C_6
REMARK    4  A    between atoms: C_6  and  C_7
REMARK    5  A    between atoms: C_7  and  C_8
REMARK    6  A    between atoms: C_12  and  C_13
REMARK    7  A    between atoms: C_13  and  N_14
REMARK    8  A    between atoms: C_18  and  C_19
REMARK                            x       y       z     vdW  Elec       q    Type
REMARK                         _______ _______ _______ _____ _____    ______ ____
ROOT
ATOM      1  O   UNL     1      47.707   4.313  14.835  0.00  0.00    +0.000 OA
ENDROOT
BRANCH   1   5
ATOM      2  C   UNL     1      45.443   7.346  11.631  0.00  0.00    +0.000 C 
ATOM      3  C   UNL     1      45.677   5.956  12.159  0.00  0.00    +0.000 A 
ATOM      4  C   UNL     1      46.574   5.802  13.236  0.00  0.00    +0.000 A 
ATOM      5  C   UNL     1      46.843   4.550  13.794  0.00  0.00    +0.000 A 
ATOM      6  C   UNL     1      46.201   3.430  13.267  0.00  0.00    +0.000 A 
ATOM      7  C   UNL     1      45.307   3.558  12.194  0.00  0.00    +0.000 A 
ATOM      8  C   UNL     1      45.033   4.818  11.634  0.00  0.00    +0.000 A 
BRANCH   8   9
ATOM      9  C   UNL     1      44.096   4.926  10.469  0.00  0.00    +0.000 C 
ATOM     10  N   UNL     1      44.608   4.685   9.225  0.00  0.00    +0.000 N 
ATOM     11  O   UNL     1      42.909   5.197  10.594  0.00  0.00    +0.000 OA
ATOM     12  H   UNL     1      45.515   4.272   9.069  0.00  0.00    +0.000 HD
ATOM     13  H   UNL     1      43.945   4.676   8.460  0.00  0.00    +0.000 HD
ENDBRANCH   8   9
ENDBRANCH   1   5
BRANCH   1  14
ATOM     14  C   UNL     1      47.120   4.314  16.142  0.00  0.00    +0.000 C 
BRANCH  14  15
ATOM     15  C   UNL     1      47.661   3.148  16.969  0.00  0.00    +0.000 C 
BRANCH  15  16
ATOM     16  C   UNL     1      49.139   3.313  17.237  0.00  0.00    +0.000 A 
ATOM     17  C   UNL     1      49.675   4.573  17.529  0.00  0.00    +0.000 A 
ATOM     18  C   UNL     1      51.033   4.713  17.826  0.00  0.00    +0.000 A 
ATOM     19  C   UNL     1      51.869   3.596  17.833  0.00  0.00    +0.000 A 
ATOM     20  C   UNL     1      51.356   2.325  17.545  0.00  0.00    +0.000 A 
ATOM     21  C   UNL     1      49.988   2.196  17.251  0.00  0.00    +0.000 A 
BRANCH  20  22
ATOM     22  C   UNL     1      52.263   1.119  17.519  0.00  0.00    +0.000 C 
BRANCH  22  23
ATOM     23  N   UNL     1      51.681  -0.016  18.227  0.00  0.00    +0.000 NA
ATOM     24  H   UNL     1      51.009   0.334  18.908  0.00  0.00    +0.000 HD
ATOM     25  H   UNL     1      52.412  -0.484  18.759  0.00  0.00    +0.000 HD
ENDBRANCH  22  23
ENDBRANCH  20  22
ENDBRANCH  15  16
ENDBRANCH  14  15
ENDBRANCH   1  14
TORSDOF 7
ENDMDL
MODEL 8
REMARK VINA RESULT:    -5.887      4.600      7.153
REMARK INTER + INTRA:          -8.831
REMARK INTER:                  -7.952
REMARK INTRA:                  -0.879
REMARK UNBOUND:                -0.707
REMARK  Name = 
REMARK  8 active torsions:
REMARK  status: ('A' for Active; 'I' for Inactive)
REMARK    1  A    between atoms: C_1  and  C_2
REMARK    2  A    between atoms: C_4  and  O_5
REMARK    3  A    between atoms: O_5  and  C_6
REMARK    4  A    between atoms: C_6  and  C_7
REMARK    5  A    between atoms: C_7  and  C_8
REMARK    6  A    between atoms: C_12  and  C_13
REMARK    7  A    between atoms: C_13  and  N_14
REMARK    8  A    between atoms: C_18  and  C_19
REMARK                            x       y       z     vdW  Elec       q    Type
REMARK                         _______ _______ _______ _____ _____    ______ ____
ROOT
ATOM      1  O   UNL     1      48.862   6.286  13.547  0.00  0.00    +0.000 OA
ENDROOT
BRANCH   1   5
ATOM      2  C   UNL     1      44.540   7.422  11.400  0.00  0.00    +0.000 C 
ATOM      3  C   UNL     1      45.372   6.472  12.219  0.00  0.00    +0.000 A 
ATOM      4  C   UNL     1      46.709   6.832  12.488  0.00  0.00    +0.000 A 
ATOM      5  C   UNL     1      47.549   6.015  13.247  0.00  0.00    +0.000 A 
ATOM      6  C   UNL     1      47.044   4.816  13.749  0.00  0.00    +0.000 A 
ATOM      7  C   UNL     1      45.720   4.437  13.492  0.00  0.00    +0.000 A 
ATOM      8  C   UNL     1      44.871   5.259  12.731  0.00  0.00    +0.000 A 
BRANCH   8   9
ATOM      9  C   UNL     1      43.468   4.818  12.445  0.00  0.00    +0.000 C 
ATOM     10  N   UNL     1      43.262   4.054  11.331  0.00  0.00    +0.000 N 
ATOM     11  O   UNL     1      42.522   5.097  13.172  0.00  0.00    +0.000 OA
ATOM     12  H   UNL     1      44.010   3.631  10.803  0.00  0.00    +0.000 HD
ATOM     13  H   UNL     1      42.326   3.693  11.200  0.00  0.00    +0.000 HD
ENDBRANCH   8   9
ENDBRANCH   1   5
BRANCH   1  14
ATOM     14  C   UNL     1      49.087   7.442  14.361  0.00  0.00    +0.000 C 
BRANCH  14  15
ATOM     15  C   UNL     1      50.011   7.098  15.530  0.00  0.00    +0.000 C 
BRANCH  15  16
ATOM     16  C   UNL     1      49.223   6.572  16.707  0.00  0.00    +0.000 A 
ATOM     17  C   UNL     1      48.682   7.451  17.654  0.00  0.00    +0.000 A 
ATOM     18  C   UNL     1      47.912   6.963  18.712  0.00  0.00    +0.000 A 
ATOM     19  C   UNL     1      47.675   5.593  18.836  0.00  0.00    +0.000 A 
ATOM     20  C   UNL     1      48.203   4.695  17.901  0.00  0.00    +0.000 A 
ATOM     21  C   UNL     1      48.973   5.197  16.838  0.00  0.00    +0.000 A 
BRANCH  20  22
ATOM     22  C   UNL     1      47.976   3.210  18.049  0.00  0.00    +0.000 C 
BRANCH  22  23
ATOM     23  N   UNL     1      46.620   2.826  17.674  0.00  0.00    +0.000 NA
ATOM     24  H   UNL     1      46.077   2.678  18.524  0.00  0.00    +0.000 HD
ATOM     25  H   UNL     1      46.651   1.929  17.194  0.00  0.00    +0.000 HD
ENDBRANCH  22  23
ENDBRANCH  20  22
ENDBRANCH  15  16
ENDBRANCH  14  15
ENDBRANCH   1  14
TORSDOF 7
ENDMDL
MODEL 9
REMARK VINA RESULT:    -5.867      4.185      6.705
REMARK INTER + INTRA:          -8.803
REMARK INTER:                  -8.115
REMARK INTRA:                  -0.689
REMARK UNBOUND:                -0.707
REMARK  Name = 
REMARK  8 active torsions:
REMARK  status: ('A' for Active; 'I' for Inactive)
REMARK    1  A    between atoms: C_1  and  C_2
REMARK    2  A    between atoms: C_4  and  O_5
REMARK    3  A    between atoms: O_5  and  C_6
REMARK    4  A    between atoms: C_6  and  C_7
REMARK    5  A    between atoms: C_7  and  C_8
REMARK    6  A    between atoms: C_12  and  C_13
REMARK    7  A    between atoms: C_13  and  N_14
REMARK    8  A    between atoms: C_18  and  C_19
REMARK                            x       y       z     vdW  Elec       q    Type
REMARK                         _______ _______ _______ _____ _____    ______ ____
ROOT
ATOM      1  O   UNL     1      47.836   7.981  13.532  0.00  0.00    +0.000 OA
ENDROOT
BRANCH   1   5
ATOM      2  C   UNL     1      45.676   3.609  12.640  0.00  0.00    +0.000 C 
ATOM      3  C   UNL     1      45.717   5.100  12.442  0.00  0.00    +0.000 A 
ATOM      4  C   UNL     1      46.750   5.821  13.078  0.00  0.00    +0.000 A 
ATOM      5  C   UNL     1      46.869   7.205  12.941  0.00  0.00    +0.000 A 
ATOM      6  C   UNL     1      45.941   7.883  12.152  0.00  0.00    +0.000 A 
ATOM      7  C   UNL     1      44.904   7.188  11.513  0.00  0.00    +0.000 A 
ATOM      8  C   UNL     1      44.784   5.795  11.647  0.00  0.00    +0.000 A 
BRANCH   8   9
ATOM      9  C   UNL     1      43.651   5.078  10.978  0.00  0.00    +0.000 C 
ATOM     10  N   UNL     1      43.827   4.700   9.676  0.00  0.00    +0.000 N 
ATOM     11  O   UNL     1      42.603   4.809  11.551  0.00  0.00    +0.000 OA
ATOM     12  H   UNL     1      44.721   4.715   9.210  0.00  0.00    +0.000 HD
ATOM     13  H   UNL     1      43.088   4.141   9.267  0.00  0.00    +0.000 HD
ENDBRANCH   8   9
ENDBRANCH   1   5
BRANCH   1  14
ATOM     14  C   UNL     1      48.907   7.268  14.162  0.00  0.00    +0.000 C 
BRANCH  14  15
ATOM     15  C   UNL     1      48.810   7.396  15.682  0.00  0.00    +0.000 C 
BRANCH  15  16
ATOM     16  C   UNL     1      49.328   6.152  16.365  0.00  0.00    +0.000 A 
ATOM     17  C   UNL     1      50.674   6.051  16.739  0.00  0.00    +0.000 A 
ATOM     18  C   UNL     1      51.137   4.920  17.415  0.00  0.00    +0.000 A 
ATOM     19  C   UNL     1      50.261   3.878  17.724  0.00  0.00    +0.000 A 
ATOM     20  C   UNL     1      48.911   3.957  17.363  0.00  0.00    +0.000 A 
ATOM     21  C   UNL     1      48.455   5.101  16.685  0.00  0.00    +0.000 A 
BRANCH  20  22
ATOM     22  C   UNL     1      47.967   2.818  17.665  0.00  0.00    +0.000 C 
BRANCH  22  23
ATOM     23  N   UNL     1      46.573   3.198  17.466  0.00  0.00    +0.000 NA
ATOM     24  H   UNL     1      46.054   2.993  18.320  0.00  0.00    +0.000 HD
ATOM     25  H   UNL     1      46.171   2.613  16.738  0.00  0.00    +0.000 HD
ENDBRANCH  22  23
ENDBRANCH  20  22
ENDBRANCH  15  16
ENDBRANCH  14  15
ENDBRANCH   1  14
TORSDOF 7
ENDMDL
