MODEL 1
REMARK VINA RESULT:    -8.126      0.000      0.000
REMARK INTER + INTRA:         -12.606
REMARK INTER:                 -11.452
REMARK INTRA:                  -1.155
REMARK UNBOUND:                -1.155
REMARK  Name = 
REMARK  8 active torsions:
REMARK  status: ('A' for Active; 'I' for Inactive)
REMARK    1  A    between atoms: C_1  and  N_2
REMARK    2  A    between atoms: C_4  and  C_5
REMARK    3  A    between atoms: C_5  and  C_7
REMARK    4  A    between atoms: C_8  and  C_9
REMARK    5  A    between atoms: C_12  and  C_13
REMARK    6  A    between atoms: C_13  and  O_14
REMARK    7  A    between atoms: O_14  and  C_15
REMARK    8  A    between atoms: C_15  and  C_16
REMARK                            x       y       z     vdW  Elec       q    Type
REMARK                         _______ _______ _______ _____ _____    ______ ____
ROOT
ATOM      1  C   UNL     1      48.056   5.756  15.250  0.00  0.00    +0.000 C 
ATOM      2  C   UNL     1      47.861   6.336  14.057  0.00  0.00    +0.000 C 
ENDROOT
BRANCH   2   3
ATOM      3  C   UNL     1      46.788   5.929  13.157  0.00  0.00    +0.000 A 
ATOM      4  C   UNL     1      46.674   6.494  11.883  0.00  0.00    +0.000 A 
ATOM      5  C   UNL     1      45.650   6.083  11.025  0.00  0.00    +0.000 A 
ATOM      6  C   UNL     1      44.728   5.107  11.430  0.00  0.00    +0.000 A 
ATOM      7  C   UNL     1      44.856   4.541  12.705  0.00  0.00    +0.000 A 
ATOM      8  C   UNL     1      45.881   4.949  13.561  0.00  0.00    +0.000 A 
BRANCH   6   9
ATOM      9  C   UNL     1      43.615   4.678  10.512  0.00  0.00    +0.000 C 
BRANCH   9  10
ATOM     10  O   UNL     1      44.175   4.248   9.279  0.00  0.00    +0.000 OA
BRANCH  10  11
ATOM     11  C   UNL     1      44.512   2.862   9.309  0.00  0.00    +0.000 C 
BRANCH  11  12
ATOM     12  C   UNL     1      45.543   2.555   8.251  0.00  0.00    +0.000 A 
ATOM     13  C   UNL     1      45.875   3.525   7.293  0.00  0.00    +0.000 A 
ATOM     14  C   UNL     1      46.838   3.258   6.318  0.00  0.00    +0.000 A 
ATOM     15  C   UNL     1      47.488   2.027   6.297  0.00  0.00    +0.000 A 
ATOM     16  C   UNL     1      47.183   1.062   7.255  0.00  0.00    +0.000 A 
ATOM     17  C   UNL     1      46.221   1.328   8.231  0.00  0.00    +0.000 A 
ENDBRANCH  11  12
ENDBRANCH  10  11
ENDBRANCH   9  10
ENDBRANCH   6   9
ENDBRANCH   2   3
BRANCH   1  18
ATOM     18  C   UNL     1      49.198   6.221  16.083  0.00  0.00    +0.000 C 
ATOM     19  O   UNL     1      50.255   6.580  15.580  0.00  0.00    +0.000 OA
BRANCH  18  23
ATOM     20  C   UNL     1      48.726   4.679  20.803  0.00  0.00    +0.000 C 
ATOM     21  N   UNL     1      48.723   5.526  19.633  0.00  0.00    +0.000 N 
ATOM     22  C   UNL     1      49.156   5.168  18.385  0.00  0.00    +0.000 A 
ATOM     23  C   UNL     1      48.950   6.238  17.521  0.00  0.00    +0.000 A 
ATOM     24  C   UNL     1      48.375   7.298  18.311  0.00  0.00    +0.000 A 
ATOM     25  C   UNL     1      47.934   8.612  18.161  0.00  0.00    +0.000 A 
ATOM     26 CL   UNL     1      48.081   9.433  16.686  0.00  0.00    +0.000 Cl
ATOM     27  N   UNL     1      47.437   9.325  19.186  0.00  0.00    +0.000 NA
ATOM     28  C   UNL     1      47.372   8.712  20.374  0.00  0.00    +0.000 A 
ATOM     29  N   UNL     1      47.760   7.464  20.675  0.00  0.00    +0.000 NA
ATOM     30  C   UNL     1      48.253   6.809  19.609  0.00  0.00    +0.000 A 
ENDBRANCH  18  23
ENDBRANCH   1  18
TORSDOF 7
ENDMDL
MODEL 2
REMARK VINA RESULT:    -8.071      1.237      2.333
REMARK INTER + INTRA:         -12.528
REMARK INTER:                 -11.276
REMARK INTRA:                  -1.252
REMARK UNBOUND:                -1.155
REMARK  Name = 
REMARK  8 active torsions:
REMARK  status: ('A' for Active; 'I' for Inactive)
REMARK    1  A    between atoms: C_1  and  N_2
REMARK    2  A    between atoms: C_4  and  C_5
REMARK    3  A    between atoms: C_5  and  C_7
REMARK    4  A    between atoms: C_8  and  C_9
REMARK    5  A    between atoms: C_12  and  C_13
REMARK    6  A    between atoms: C_13  and  O_14
REMARK    7  A    between atoms: O_14  and  C_15
REMARK    8  A    between atoms: C_15  and  C_16
REMARK                            x       y       z     vdW  Elec       q    Type
REMARK                         _______ _______ _______ _____ _____    ______ ____
ROOT
ATOM      1  C   UNL     1      48.398   6.862  14.258  0.00  0.00    +0.000 C 
ATOM      2  C   UNL     1      47.619   5.773  14.334  0.00  0.00    +0.000 C 
ENDROOT
BRANCH   2   3
ATOM      3  C   UNL     1      46.600   5.471  13.335  0.00  0.00    +0.000 A 
ATOM      4  C   UNL     1      45.642   4.482  13.570  0.00  0.00    +0.000 A 
ATOM      5  C   UNL     1      44.662   4.214  12.611  0.00  0.00    +0.000 A 
ATOM      6  C   UNL     1      44.630   4.928  11.404  0.00  0.00    +0.000 A 
ATOM      7  C   UNL     1      45.590   5.923  11.180  0.00  0.00    +0.000 A 
ATOM      8  C   UNL     1      46.567   6.194  12.141  0.00  0.00    +0.000 A 
BRANCH   6   9
ATOM      9  C   UNL     1      43.586   4.626  10.363  0.00  0.00    +0.000 C 
BRANCH   9  10
ATOM     10  O   UNL     1      44.234   4.210   9.168  0.00  0.00    +0.000 OA
BRANCH  10  11
ATOM     11  C   UNL     1      44.637   2.844   9.235  0.00  0.00    +0.000 C 
BRANCH  11  12
ATOM     12  C   UNL     1      45.660   2.551   8.166  0.00  0.00    +0.000 A 
ATOM     13  C   UNL     1      45.998   3.539   7.228  0.00  0.00    +0.000 A 
ATOM     14  C   UNL     1      46.954   3.286   6.244  0.00  0.00    +0.000 A 
ATOM     15  C   UNL     1      47.592   2.048   6.192  0.00  0.00    +0.000 A 
ATOM     16  C   UNL     1      47.282   1.066   7.129  0.00  0.00    +0.000 A 
ATOM     17  C   UNL     1      46.326   1.318   8.115  0.00  0.00    +0.000 A 
ENDBRANCH  11  12
ENDBRANCH  10  11
ENDBRANCH   9  10
ENDBRANCH   6   9
ENDBRANCH   2   3
BRANCH   1  18
ATOM     18  C   UNL     1      49.386   7.098  15.345  0.00  0.00    +0.000 C 
ATOM     19  O   UNL     1      50.585   6.923  15.173  0.00  0.00    +0.000 OA
BRANCH  18  23
ATOM     20  C   UNL     1      47.692  10.177  18.886  0.00  0.00    +0.000 C 
ATOM     21  N   UNL     1      48.081   8.971  18.192  0.00  0.00    +0.000 N 
ATOM     22  C   UNL     1      48.491   8.896  16.888  0.00  0.00    +0.000 A 
ATOM     23  C   UNL     1      48.820   7.575  16.604  0.00  0.00    +0.000 A 
ATOM     24  C   UNL     1      48.573   6.822  17.808  0.00  0.00    +0.000 A 
ATOM     25  C   UNL     1      48.645   5.509  18.271  0.00  0.00    +0.000 A 
ATOM     26 CL   UNL     1      49.081   4.231  17.247  0.00  0.00    +0.000 Cl
ATOM     27  N   UNL     1      48.306   5.170  19.526  0.00  0.00    +0.000 NA
ATOM     28  C   UNL     1      47.898   6.158  20.331  0.00  0.00    +0.000 A 
ATOM     29  N   UNL     1      47.770   7.459  20.032  0.00  0.00    +0.000 NA
ATOM     30  C   UNL     1      48.118   7.730  18.762  0.00  0.00    +0.000 A 
ENDBRANCH  18  23
ENDBRANCH   1  18
TORSDOF 7
ENDMDL
MODEL 3
REMARK VINA RESULT:    -7.679      1.658      2.438
REMARK INTER + INTRA:         -11.976
REMARK INTER:                 -10.723
REMARK INTRA:                  -1.254
REMARK UNBOUND:                -1.155
REMARK  Name = 
REMARK  8 active torsions:
REMARK  status: ('A' for Active; 'I' for Inactive)
REMARK    1  A    between atoms: C_1  and  N_2
REMARK    2  A    between atoms: C_4  and  C_5
REMARK    3  A    between atoms: C_5  and  C_7
REMARK    4  A    between atoms: C_8  and  C_9
REMARK    5  A    between atoms: C_12  and  C_13
REMARK    6  A    between atoms: C_13  and  O_14
REMARK    7  A    between atoms: O_14  and  C_15
REMARK    8  A    between atoms: C_15  and  C_16
REMARK                            x       y       z     vdW  Elec       q    Type
REMARK                         _______ _______ _______ _____ _____    ______ ____
ROOT
ATOM      1  C   UNL     1      47.792   5.231  15.731  0.00  0.00    +0.000 C 
ATOM      2  C   UNL     1      47.641   5.649  14.466  0.00  0.00    +0.000 C 
ENDROOT
BRANCH   2   3
ATOM      3  C   UNL     1      46.569   5.161  13.606  0.00  0.00    +0.000 A 
ATOM      4  C   UNL     1      46.448   3.798  13.322  0.00  0.00    +0.000 A 
ATOM      5  C   UNL     1      45.407   3.342  12.508  0.00  0.00    +0.000 A 
ATOM      6  C   UNL     1      44.477   4.242  11.968  0.00  0.00    +0.000 A 
ATOM      7  C   UNL     1      44.601   5.605  12.265  0.00  0.00    +0.000 A 
ATOM      8  C   UNL     1      45.640   6.060  13.080  0.00  0.00    +0.000 A 
BRANCH   6   9
ATOM      9  C   UNL     1      43.367   3.752  11.077  0.00  0.00    +0.000 C 
BRANCH   9  10
ATOM     10  O   UNL     1      43.928   2.978  10.026  0.00  0.00    +0.000 OA
BRANCH  10  11
ATOM     11  C   UNL     1      44.500   3.801   9.012  0.00  0.00    +0.000 C 
BRANCH  11  12
ATOM     12  C   UNL     1      45.473   3.003   8.181  0.00  0.00    +0.000 A 
ATOM     13  C   UNL     1      46.120   3.603   7.090  0.00  0.00    +0.000 A 
ATOM     14  C   UNL     1      47.034   2.880   6.322  0.00  0.00    +0.000 A 
ATOM     15  C   UNL     1      47.323   1.555   6.643  0.00  0.00    +0.000 A 
ATOM     16  C   UNL     1      46.704   0.954   7.736  0.00  0.00    +0.000 A 
ATOM     17  C   UNL     1      45.789   1.676   8.505  0.00  0.00    +0.000 A 
ENDBRANCH  11  12
ENDBRANCH  10  11
ENDBRANCH   9  10
ENDBRANCH   6   9
ENDBRANCH   2   3
BRANCH   1  18
ATOM     18  C   UNL     1      48.937   5.766  16.518  0.00  0.00    +0.000 C 
ATOM     19  O   UNL     1      50.000   5.164  16.595  0.00  0.00    +0.000 OA
BRANCH  18  23
ATOM     20  C   UNL     1      47.334   9.192  19.770  0.00  0.00    +0.000 C 
ATOM     21  N   UNL     1      47.957   8.586  18.616  0.00  0.00    +0.000 N 
ATOM     22  C   UNL     1      48.090   7.241  18.394  0.00  0.00    +0.000 A 
ATOM     23  C   UNL     1      48.700   7.057  17.157  0.00  0.00    +0.000 A 
ATOM     24  C   UNL     1      48.958   8.372  16.625  0.00  0.00    +0.000 A 
ATOM     25  C   UNL     1      49.527   8.968  15.502  0.00  0.00    +0.000 A 
ATOM     26 CL   UNL     1      50.257   8.044  14.282  0.00  0.00    +0.000 Cl
ATOM     27  N   UNL     1      49.597  10.301  15.353  0.00  0.00    +0.000 NA
ATOM     28  C   UNL     1      49.081  11.048  16.337  0.00  0.00    +0.000 A 
ATOM     29  N   UNL     1      48.510  10.625  17.474  0.00  0.00    +0.000 NA
ATOM     30  C   UNL     1      48.479   9.284  17.563  0.00  0.00    +0.000 A 
ENDBRANCH  18  23
ENDBRANCH   1  18
TORSDOF 7
ENDMDL
MODEL 4
REMARK VINA RESULT:    -7.525      1.609      2.698
REMARK INTER + INTRA:         -11.760
REMARK INTER:                 -10.734
REMARK INTRA:                  -1.026
REMARK UNBOUND:                -1.155
REMARK  Name = 
REMARK  8 active torsions:
REMARK  status: ('A' for Active; 'I' for Inactive)
REMARK    1  A    between atoms: C_1  and  N_2
REMARK    2  A    between atoms: C_4  and  C_5
REMARK    3  A    between atoms: C_5  and  C_7
REMARK    4  A    between atoms: C_8  and  C_9
REMARK    5  A    between atoms: C_12  and  C_13
REMARK    6  A    between atoms: C_13  and  O_14
REMARK    7  A    between atoms: O_14  and  C_15
REMARK    8  A    between atoms: C_15  and  C_16
REMARK                            x       y       z     vdW  Elec       q    Type
REMARK                         _______ _______ _______ _____ _____    ______ ____
ROOT
ATOM      1  C   UNL     1      48.118   5.695  15.513  0.00  0.00    +0.000 C 
ATOM      2  C   UNL     1      47.839   6.036  14.247  0.00  0.00    +0.000 C 
ENDROOT
BRANCH   2   3
ATOM      3  C   UNL     1      46.824   5.346  13.459  0.00  0.00    +0.000 A 
ATOM      4  C   UNL     1      46.017   6.051  12.562  0.00  0.00    +0.000 A 
ATOM      5  C   UNL     1      45.059   5.375  11.802  0.00  0.00    +0.000 A 
ATOM      6  C   UNL     1      44.894   3.988  11.930  0.00  0.00    +0.000 A 
ATOM      7  C   UNL     1      45.714   3.288  12.826  0.00  0.00    +0.000 A 
ATOM      8  C   UNL     1      46.673   3.964  13.583  0.00  0.00    +0.000 A 
BRANCH   6   9
ATOM      9  C   UNL     1      43.850   3.263  11.124  0.00  0.00    +0.000 C 
BRANCH   9  10
ATOM     10  O   UNL     1      44.171   3.378   9.745  0.00  0.00    +0.000 OA
BRANCH  10  11
ATOM     11  C   UNL     1      44.502   2.113   9.174  0.00  0.00    +0.000 C 
BRANCH  11  12
ATOM     12  C   UNL     1      45.616   2.271   8.170  0.00  0.00    +0.000 A 
ATOM     13  C   UNL     1      46.520   1.219   7.954  0.00  0.00    +0.000 A 
ATOM     14  C   UNL     1      47.546   1.347   7.018  0.00  0.00    +0.000 A 
ATOM     15  C   UNL     1      47.675   2.520   6.277  0.00  0.00    +0.000 A 
ATOM     16  C   UNL     1      46.772   3.564   6.466  0.00  0.00    +0.000 A 
ATOM     17  C   UNL     1      45.745   3.438   7.403  0.00  0.00    +0.000 A 
ENDBRANCH  11  12
ENDBRANCH  10  11
ENDBRANCH   9  10
ENDBRANCH   6   9
ENDBRANCH   2   3
BRANCH   1  18
ATOM     18  C   UNL     1      49.194   6.439  16.223  0.00  0.00    +0.000 C 
ATOM     19  O   UNL     1      50.244   5.900  16.546  0.00  0.00    +0.000 OA
BRANCH  18  23
ATOM     20  C   UNL     1      49.199  11.405  15.753  0.00  0.00    +0.000 C 
ATOM     21  N   UNL     1      48.936  10.079  16.261  0.00  0.00    +0.000 N 
ATOM     22  C   UNL     1      49.296   8.905  15.656  0.00  0.00    +0.000 A 
ATOM     23  C   UNL     1      48.909   7.849  16.474  0.00  0.00    +0.000 A 
ATOM     24  C   UNL     1      48.266   8.435  17.624  0.00  0.00    +0.000 A 
ATOM     25  C   UNL     1      47.637   8.038  18.802  0.00  0.00    +0.000 A 
ATOM     26 CL   UNL     1      47.390   6.402  19.169  0.00  0.00    +0.000 Cl
ATOM     27  N   UNL     1      47.127   8.922  19.677  0.00  0.00    +0.000 NA
ATOM     28  C   UNL     1      47.257  10.219  19.372  0.00  0.00    +0.000 A 
ATOM     29  N   UNL     1      47.827  10.752  18.282  0.00  0.00    +0.000 NA
ATOM     30  C   UNL     1      48.310   9.816  17.447  0.00  0.00    +0.000 A 
ENDBRANCH  18  23
ENDBRANCH   1  18
TORSDOF 7
ENDMDL
MODEL 5
REMARK VINA RESULT:    -7.504      4.717      6.059
REMARK INTER + INTRA:         -11.730
REMARK INTER:                 -10.464
REMARK INTRA:                  -1.266
REMARK UNBOUND:                -1.155
REMARK  Name = 
REMARK  8 active torsions:
REMARK  status: ('A' for Active; 'I' for Inactive)
REMARK    1  A    between atoms: C_1  and  N_2
REMARK    2  A    between atoms: C_4  and  C_5
REMARK    3  A    between atoms: C_5  and  C_7
REMARK    4  A    between atoms: C_8  and  C_9
REMARK    5  A    between atoms: C_12  and  C_13
REMARK    6  A    between atoms: C_13  and  O_14
REMARK    7  A    between atoms: O_14  and  C_15
REMARK    8  A    between atoms: C_15  and  C_16
REMARK                            x       y       z     vdW  Elec       q    Type
REMARK                         _______ _______ _______ _____ _____    ______ ____
ROOT
ATOM      1  C   UNL     1      48.542   7.996  12.438  0.00  0.00    +0.000 C 
ATOM      2  C   UNL     1      48.229   6.804  12.967  0.00  0.00    +0.000 C 
ENDROOT
BRANCH   2   3
ATOM      3  C   UNL     1      47.082   6.026  12.513  0.00  0.00    +0.000 A 
ATOM      4  C   UNL     1      46.427   6.351  11.322  0.00  0.00    +0.000 A 
ATOM      5  C   UNL     1      45.339   5.587  10.891  0.00  0.00    +0.000 A 
ATOM      6  C   UNL     1      44.891   4.492  11.645  0.00  0.00    +0.000 A 
ATOM      7  C   UNL     1      45.560   4.169  12.833  0.00  0.00    +0.000 A 
ATOM      8  C   UNL     1      46.649   4.931  13.263  0.00  0.00    +0.000 A 
BRANCH   6   9
ATOM      9  C   UNL     1      43.708   3.681  11.189  0.00  0.00    +0.000 C 
BRANCH   9  10
ATOM     10  O   UNL     1      43.824   3.444   9.793  0.00  0.00    +0.000 OA
BRANCH  10  11
ATOM     11  C   UNL     1      44.415   2.175   9.522  0.00  0.00    +0.000 C 
BRANCH  11  12
ATOM     12  C   UNL     1      45.480   2.313   8.463  0.00  0.00    +0.000 A 
ATOM     13  C   UNL     1      45.681   3.548   7.827  0.00  0.00    +0.000 A 
ATOM     14  C   UNL     1      46.673   3.693   6.857  0.00  0.00    +0.000 A 
ATOM     15  C   UNL     1      47.483   2.612   6.518  0.00  0.00    +0.000 A 
ATOM     16  C   UNL     1      47.309   1.386   7.156  0.00  0.00    +0.000 A 
ATOM     17  C   UNL     1      46.317   1.239   8.128  0.00  0.00    +0.000 A 
ENDBRANCH  11  12
ENDBRANCH  10  11
ENDBRANCH   9  10
ENDBRANCH   6   9
ENDBRANCH   2   3
BRANCH   1  18
ATOM     18  C   UNL     1      49.714   8.727  12.993  0.00  0.00    +0.000 C 
ATOM     19  O   UNL     1      49.798   8.998  14.183  0.00  0.00    +0.000 OA
BRANCH  18  23
ATOM     20  C   UNL     1      54.091   8.799  10.602  0.00  0.00    +0.000 C 
ATOM     21  N   UNL     1      52.727   9.101  10.969  0.00  0.00    +0.000 N 
ATOM     22  C   UNL     1      51.998   8.457  11.932  0.00  0.00    +0.000 A 
ATOM     23  C   UNL     1      50.749   9.065  12.021  0.00  0.00    +0.000 A 
ATOM     24  C   UNL     1      50.735  10.119  11.038  0.00  0.00    +0.000 A 
ATOM     25  C   UNL     1      49.874  11.100  10.548  0.00  0.00    +0.000 A 
ATOM     26 CL   UNL     1      48.277  11.233  11.098  0.00  0.00    +0.000 Cl
ATOM     27  N   UNL     1      50.232  11.944   9.565  0.00  0.00    +0.000 NA
ATOM     28  C   UNL     1      51.470  11.811   9.074  0.00  0.00    +0.000 A 
ATOM     29  N   UNL     1      52.404  10.920   9.434  0.00  0.00    +0.000 NA
ATOM     30  C   UNL     1      51.981  10.103  10.415  0.00  0.00    +0.000 A 
ENDBRANCH  18  23
ENDBRANCH   1  18
TORSDOF 7
ENDMDL
MODEL 6
REMARK VINA RESULT:    -7.372      2.264      3.278
REMARK INTER + INTRA:         -11.544
REMARK INTER:                 -10.688
REMARK INTRA:                  -0.856
REMARK UNBOUND:                -1.155
REMARK  Name = 
REMARK  8 active torsions:
REMARK  status: ('A' for Active; 'I' for Inactive)
REMARK    1  A    between atoms: C_1  and  N_2
REMARK    2  A    between atoms: C_4  and  C_5
REMARK    3  A    between atoms: C_5  and  C_7
REMARK    4  A    between atoms: C_8  and  C_9
REMARK    5  A    between atoms: C_12  and  C_13
REMARK    6  A    between atoms: C_13  and  O_14
REMARK    7  A    between atoms: O_14  and  C_15
REMARK    8  A    between atoms: C_15  and  C_16
REMARK                            x       y       z     vdW  Elec       q    Type
REMARK                         _______ _______ _______ _____ _____    ______ ____
ROOT
ATOM      1  C   UNL     1      48.485   6.882  14.673  0.00  0.00    +0.000 C 
ATOM      2  C   UNL     1      47.652   7.412  13.766  0.00  0.00    +0.000 C 
ENDROOT
BRANCH   2   3
ATOM      3  C   UNL     1      46.664   6.610  13.052  0.00  0.00    +0.000 A 
ATOM      4  C   UNL     1      46.453   5.271  13.391  0.00  0.00    +0.000 A 
ATOM      5  C   UNL     1      45.492   4.520  12.709  0.00  0.00    +0.000 A 
ATOM      6  C   UNL     1      44.734   5.095  11.679  0.00  0.00    +0.000 A 
ATOM      7  C   UNL     1      44.947   6.441  11.352  0.00  0.00    +0.000 A 
ATOM      8  C   UNL     1      45.905   7.193  12.036  0.00  0.00    +0.000 A 
BRANCH   6   9
ATOM      9  C   UNL     1      43.712   4.280  10.933  0.00  0.00    +0.000 C 
BRANCH   9  10
ATOM     10  O   UNL     1      44.388   3.351  10.096  0.00  0.00    +0.000 OA
BRANCH  10  11
ATOM     11  C   UNL     1      44.606   3.881   8.790  0.00  0.00    +0.000 C 
BRANCH  11  12
ATOM     12  C   UNL     1      45.591   3.022   8.038  0.00  0.00    +0.000 A 
ATOM     13  C   UNL     1      46.298   3.554   6.949  0.00  0.00    +0.000 A 
ATOM     14  C   UNL     1      47.223   2.774   6.254  0.00  0.00    +0.000 A 
ATOM     15  C   UNL     1      47.462   1.459   6.645  0.00  0.00    +0.000 A 
ATOM     16  C   UNL     1      46.782   0.923   7.737  0.00  0.00    +0.000 A 
ATOM     17  C   UNL     1      45.857   1.703   8.433  0.00  0.00    +0.000 A 
ENDBRANCH  11  12
ENDBRANCH  10  11
ENDBRANCH   9  10
ENDBRANCH   6   9
ENDBRANCH   2   3
BRANCH   1  18
ATOM     18  C   UNL     1      49.479   7.777  15.325  0.00  0.00    +0.000 C 
ATOM     19  O   UNL     1      49.307   8.987  15.393  0.00  0.00    +0.000 OA
BRANCH  18  23
ATOM     20  C   UNL     1      54.186   6.270  15.998  0.00  0.00    +0.000 C 
ATOM     21  N   UNL     1      52.760   6.418  16.167  0.00  0.00    +0.000 N 
ATOM     22  C   UNL     1      51.960   7.289  15.477  0.00  0.00    +0.000 A 
ATOM     23  C   UNL     1      50.644   7.102  15.889  0.00  0.00    +0.000 A 
ATOM     24  C   UNL     1      50.672   6.071  16.896  0.00  0.00    +0.000 A 
ATOM     25  C   UNL     1      49.797   5.390  17.740  0.00  0.00    +0.000 A 
ATOM     26 CL   UNL     1      48.148   5.778  17.807  0.00  0.00    +0.000 Cl
ATOM     27  N   UNL     1      50.215   4.443  18.597  0.00  0.00    +0.000 NA
ATOM     28  C   UNL     1      51.525   4.168  18.603  0.00  0.00    +0.000 A 
ATOM     29  N   UNL     1      52.486   4.738  17.861  0.00  0.00    +0.000 NA
ATOM     30  C   UNL     1      52.002   5.679  17.032  0.00  0.00    +0.000 A 
ENDBRANCH  18  23
ENDBRANCH   1  18
TORSDOF 7
ENDMDL
MODEL 7
REMARK VINA RESULT:    -7.166      3.582      4.914
REMARK INTER + INTRA:         -11.253
REMARK INTER:                  -9.921
REMARK INTRA:                  -1.332
REMARK UNBOUND:                -1.155
REMARK  Name = 
REMARK  8 active torsions:
REMARK  status: ('A' for Active; 'I' for Inactive)
REMARK    1  A    between atoms: C_1  and  N_2
REMARK    2  A    between atoms: C_4  and  C_5
REMARK    3  A    between atoms: C_5  and  C_7
REMARK    4  A    between atoms: C_8  and  C_9
REMARK    5  A    between atoms: C_12  and  C_13
REMARK    6  A    between atoms: C_13  and  O_14
REMARK    7  A    between atoms: O_14  and  C_15
REMARK    8  A    between atoms: C_15  and  C_16
REMARK                            x       y       z     vdW  Elec       q    Type
REMARK                         _______ _______ _______ _____ _____    ______ ____
ROOT
ATOM      1  C   UNL     1      47.858   8.360  12.059  0.00  0.00    +0.000 C 
ATOM      2  C   UNL     1      46.886   7.874  12.844  0.00  0.00    +0.000 C 
ENDROOT
BRANCH   2   3
ATOM      3  C   UNL     1      46.028   6.769  12.431  0.00  0.00    +0.000 A 
ATOM      4  C   UNL     1      44.892   7.002  11.650  0.00  0.00    +0.000 A 
ATOM      5  C   UNL     1      44.088   5.933  11.248  0.00  0.00    +0.000 A 
ATOM      6  C   UNL     1      44.406   4.619  11.623  0.00  0.00    +0.000 A 
ATOM      7  C   UNL     1      45.551   4.395  12.398  0.00  0.00    +0.000 A 
ATOM      8  C   UNL     1      46.357   5.463  12.798  0.00  0.00    +0.000 A 
BRANCH   6   9
ATOM      9  C   UNL     1      43.529   3.470  11.205  0.00  0.00    +0.000 C 
BRANCH   9  10
ATOM     10  O   UNL     1      43.741   3.208   9.824  0.00  0.00    +0.000 OA
BRANCH  10  11
ATOM     11  C   UNL     1      44.518   2.029   9.625  0.00  0.00    +0.000 C 
BRANCH  11  12
ATOM     12  C   UNL     1      45.563   2.268   8.565  0.00  0.00    +0.000 A 
ATOM     13  C   UNL     1      46.283   1.187   8.033  0.00  0.00    +0.000 A 
ATOM     14  C   UNL     1      47.242   1.393   7.041  0.00  0.00    +0.000 A 
ATOM     15  C   UNL     1      47.485   2.677   6.559  0.00  0.00    +0.000 A 
ATOM     16  C   UNL     1      46.763   3.757   7.062  0.00  0.00    +0.000 A 
ATOM     17  C   UNL     1      45.803   3.552   8.055  0.00  0.00    +0.000 A 
ENDBRANCH  11  12
ENDBRANCH  10  11
ENDBRANCH   9  10
ENDBRANCH   6   9
ENDBRANCH   2   3
BRANCH   1  18
ATOM     18  C   UNL     1      48.659   9.510  12.559  0.00  0.00    +0.000 C 
ATOM     19  O   UNL     1      48.129  10.546  12.938  0.00  0.00    +0.000 OA
BRANCH  18  23
ATOM     20  C   UNL     1      53.411   9.234  11.066  0.00  0.00    +0.000 C 
ATOM     21  N   UNL     1      52.230   9.157  11.895  0.00  0.00    +0.000 N 
ATOM     22  C   UNL     1      50.977   9.580  11.541  0.00  0.00    +0.000 A 
ATOM     23  C   UNL     1      50.103   9.295  12.585  0.00  0.00    +0.000 A 
ATOM     24  C   UNL     1      50.891   8.681  13.624  0.00  0.00    +0.000 A 
ATOM     25  C   UNL     1      50.734   8.166  14.909  0.00  0.00    +0.000 A 
ATOM     26 CL   UNL     1      49.244   8.233  15.715  0.00  0.00    +0.000 Cl
ATOM     27  N   UNL     1      51.760   7.655  15.610  0.00  0.00    +0.000 NA
ATOM     28  C   UNL     1      52.958   7.651  15.012  0.00  0.00    +0.000 A 
ATOM     29  N   UNL     1      53.268   8.114  13.793  0.00  0.00    +0.000 NA
ATOM     30  C   UNL     1      52.199   8.617  13.149  0.00  0.00    +0.000 A 
ENDBRANCH  18  23
ENDBRANCH   1  18
TORSDOF 7
ENDMDL
MODEL 8
REMARK VINA RESULT:    -7.152      2.530      3.560
REMARK INTER + INTRA:         -11.233
REMARK INTER:                  -9.875
REMARK INTRA:                  -1.358
REMARK UNBOUND:                -1.155
REMARK  Name = 
REMARK  8 active torsions:
REMARK  status: ('A' for Active; 'I' for Inactive)
REMARK    1  A    between atoms: C_1  and  N_2
REMARK    2  A    between atoms: C_4  and  C_5
REMARK    3  A    between atoms: C_5  and  C_7
REMARK    4  A    between atoms: C_8  and  C_9
REMARK    5  A    between atoms: C_12  and  C_13
REMARK    6  A    between atoms: C_13  and  O_14
REMARK    7  A    between atoms: O_14  and  C_15
REMARK    8  A    between atoms: C_15  and  C_16
REMARK                            x       y       z     vdW  Elec       q    Type
REMARK                         _______ _______ _______ _____ _____    ______ ____
ROOT
ATOM      1  C   UNL     1      48.861   8.203  12.670  0.00  0.00    +0.000 C 
ATOM      2  C   UNL     1      48.573   6.966  13.102  0.00  0.00    +0.000 C 
ENDROOT
BRANCH   2   3
ATOM      3  C   UNL     1      47.413   6.222  12.622  0.00  0.00    +0.000 A 
ATOM      4  C   UNL     1      46.840   6.518  11.382  0.00  0.00    +0.000 A 
ATOM      5  C   UNL     1      45.739   5.787  10.929  0.00  0.00    +0.000 A 
ATOM      6  C   UNL     1      45.196   4.755  11.709  0.00  0.00    +0.000 A 
ATOM      7  C   UNL     1      45.783   4.461  12.946  0.00  0.00    +0.000 A 
ATOM      8  C   UNL     1      46.885   5.190  13.399  0.00  0.00    +0.000 A 
BRANCH   6   9
ATOM      9  C   UNL     1      43.999   3.980  11.227  0.00  0.00    +0.000 C 
BRANCH   9  10
ATOM     10  O   UNL     1      44.127   3.757   9.830  0.00  0.00    +0.000 OA
BRANCH  10  11
ATOM     11  C   UNL     1      44.508   2.413   9.544  0.00  0.00    +0.000 C 
BRANCH  11  12
ATOM     12  C   UNL     1      45.525   2.385   8.431  0.00  0.00    +0.000 A 
ATOM     13  C   UNL     1      45.821   3.560   7.722  0.00  0.00    +0.000 A 
ATOM     14  C   UNL     1      46.771   3.552   6.701  0.00  0.00    +0.000 A 
ATOM     15  C   UNL     1      47.446   2.375   6.383  0.00  0.00    +0.000 A 
ATOM     16  C   UNL     1      47.177   1.207   7.092  0.00  0.00    +0.000 A 
ATOM     17  C   UNL     1      46.227   1.214   8.115  0.00  0.00    +0.000 A 
ENDBRANCH  11  12
ENDBRANCH  10  11
ENDBRANCH   9  10
ENDBRANCH   6   9
ENDBRANCH   2   3
BRANCH   1  18
ATOM     18  C   UNL     1      50.049   8.891  13.244  0.00  0.00    +0.000 C 
ATOM     19  O   UNL     1      51.165   8.756  12.761  0.00  0.00    +0.000 OA
BRANCH  18  23
ATOM     20  C   UNL     1      48.840  12.902  15.952  0.00  0.00    +0.000 C 
ATOM     21  N   UNL     1      49.247  11.562  15.597  0.00  0.00    +0.000 N 
ATOM     22  C   UNL     1      49.287  11.049  14.329  0.00  0.00    +0.000 A 
ATOM     23  C   UNL     1      49.773   9.747  14.394  0.00  0.00    +0.000 A 
ATOM     24  C   UNL     1      50.018   9.469  15.787  0.00  0.00    +0.000 A 
ATOM     25  C   UNL     1      50.467   8.428  16.597  0.00  0.00    +0.000 A 
ATOM     26 CL   UNL     1      50.841   6.904  15.956  0.00  0.00    +0.000 Cl
ATOM     27  N   UNL     1      50.560   8.545  17.933  0.00  0.00    +0.000 NA
ATOM     28  C   UNL     1      50.208   9.723  18.463  0.00  0.00    +0.000 A 
ATOM     29  N   UNL     1      49.754  10.809  17.820  0.00  0.00    +0.000 NA
ATOM     30  C   UNL     1      49.679  10.623  16.491  0.00  0.00    +0.000 A 
ENDBRANCH  18  23
ENDBRANCH   1  18
TORSDOF 7
ENDMDL
MODEL 9
REMARK VINA RESULT:    -7.018      5.079      6.571
REMARK INTER + INTRA:         -11.045
REMARK INTER:                  -9.954
REMARK INTRA:                  -1.091
REMARK UNBOUND:                -1.155
REMARK  Name = 
REMARK  8 active torsions:
REMARK  status: ('A' for Active; 'I' for Inactive)
REMARK    1  A    between atoms: C_1  and  N_2
REMARK    2  A    between atoms: C_4  and  C_5
REMARK    3  A    between atoms: C_5  and  C_7
REMARK    4  A    between atoms: C_8  and  C_9
REMARK    5  A    between atoms: C_12  and  C_13
REMARK    6  A    between atoms: C_13  and  O_14
REMARK    7  A    between atoms: O_14  and  C_15
REMARK    8  A    between atoms: C_15  and  C_16
REMARK                            x       y       z     vdW  Elec       q    Type
REMARK                         _______ _______ _______ _____ _____    ______ ____
ROOT
ATOM      1  C   UNL     1      47.989   8.492  12.183  0.00  0.00    +0.000 C 
ATOM      2  C   UNL     1      46.751   8.287  12.657  0.00  0.00    +0.000 C 
ENDROOT
BRANCH   2   3
ATOM      3  C   UNL     1      45.945   7.138  12.261  0.00  0.00    +0.000 A 
ATOM      4  C   UNL     1      44.681   7.316  11.691  0.00  0.00    +0.000 A 
ATOM      5  C   UNL     1      43.926   6.206  11.303  0.00  0.00    +0.000 A 
ATOM      6  C   UNL     1      44.423   4.906  11.481  0.00  0.00    +0.000 A 
ATOM      7  C   UNL     1      45.694   4.738  12.045  0.00  0.00    +0.000 A 
ATOM      8  C   UNL     1      46.450   5.848  12.431  0.00  0.00    +0.000 A 
BRANCH   6   9
ATOM      9  C   UNL     1      43.601   3.711  11.078  0.00  0.00    +0.000 C 
BRANCH   9  10
ATOM     10  O   UNL     1      43.848   3.423   9.709  0.00  0.00    +0.000 OA
BRANCH  10  11
ATOM     11  C   UNL     1      44.557   2.196   9.548  0.00  0.00    +0.000 C 
BRANCH  11  12
ATOM     12  C   UNL     1      45.580   2.327   8.447  0.00  0.00    +0.000 A 
ATOM     13  C   UNL     1      46.354   1.217   8.075  0.00  0.00    +0.000 A 
ATOM     14  C   UNL     1      47.293   1.320   7.048  0.00  0.00    +0.000 A 
ATOM     15  C   UNL     1      47.462   2.528   6.373  0.00  0.00    +0.000 A 
ATOM     16  C   UNL     1      46.685   3.631   6.719  0.00  0.00    +0.000 A 
ATOM     17  C   UNL     1      45.745   3.529   7.746  0.00  0.00    +0.000 A 
ENDBRANCH  11  12
ENDBRANCH  10  11
ENDBRANCH   9  10
ENDBRANCH   6   9
ENDBRANCH   2   3
BRANCH   1  18
ATOM     18  C   UNL     1      48.719   9.712  12.624  0.00  0.00    +0.000 C 
ATOM     19  O   UNL     1      48.743  10.058  13.797  0.00  0.00    +0.000 OA
BRANCH  18  23
ATOM     20  C   UNL     1      49.544  12.695   8.712  0.00  0.00    +0.000 C 
ATOM     21  N   UNL     1      49.766  11.763   9.792  0.00  0.00    +0.000 N 
ATOM     22  C   UNL     1      48.833  11.374  10.716  0.00  0.00    +0.000 A 
ATOM     23  C   UNL     1      49.414  10.435  11.562  0.00  0.00    +0.000 A 
ATOM     24  C   UNL     1      50.776  10.272  11.121  0.00  0.00    +0.000 A 
ATOM     25  C   UNL     1      51.922   9.557  11.463  0.00  0.00    +0.000 A 
ATOM     26 CL   UNL     1      51.965   8.548  12.825  0.00  0.00    +0.000 Cl
ATOM     27  N   UNL     1      53.075   9.678  10.783  0.00  0.00    +0.000 NA
ATOM     28  C   UNL     1      53.078  10.519   9.742  0.00  0.00    +0.000 A 
ATOM     29  N   UNL     1      52.065  11.276   9.297  0.00  0.00    +0.000 NA
ATOM     30  C   UNL     1      50.945  11.113  10.024  0.00  0.00    +0.000 A 
ENDBRANCH  18  23
ENDBRANCH   1  18
TORSDOF 7
ENDMDL
