MODEL 1
REMARK VINA RESULT:    -8.683      0.000      0.000
REMARK INTER + INTRA:         -13.436
REMARK INTER:                 -12.237
REMARK INTRA:                  -1.200
REMARK UNBOUND:                -1.200
REMARK  Name = 
REMARK  9 active torsions:
REMARK  status: ('A' for Active; 'I' for Inactive)
REMARK    1  A    between atoms: C_1  and  C_2
REMARK    2  A    between atoms: C_2  and  C_3
REMARK    3  A    between atoms: C_2  and  C_14
REMARK    4  A    between atoms: C_3  and  O_4
REMARK    5  A    between atoms: O_4  and  C_5
REMARK    6  A    between atoms: C_8  and  C_9
REMARK    7  A    between atoms: C_18  and  O_19
REMARK    8  A    between atoms: O_19  and  C_20
REMARK    9  A    between atoms: N_23  and  C_24
REMARK                            x       y       z     vdW  Elec       q    Type
REMARK                         _______ _______ _______ _____ _____    ______ ____
ROOT
ATOM      1  C   UNL     1      42.749   5.391  12.021  0.00  0.00    +0.000 C 
ATOM      2  C   UNL     1      43.787   4.416  12.593  0.00  0.00    +0.000 C 
ENDROOT
BRANCH   2   3
ATOM      3  C   UNL     1      45.153   5.092  12.702  0.00  0.00    +0.000 A 
ATOM      4  C   UNL     1      45.622   5.937  11.682  0.00  0.00    +0.000 A 
ATOM      5  C   UNL     1      46.868   6.554  11.778  0.00  0.00    +0.000 A 
ATOM      6  C   UNL     1      47.663   6.357  12.906  0.00  0.00    +0.000 A 
ATOM      7  C   UNL     1      47.209   5.547  13.945  0.00  0.00    +0.000 A 
ATOM      8  C   UNL     1      45.975   4.889  13.825  0.00  0.00    +0.000 A 
BRANCH   7   9
ATOM      9  O   UNL     1      47.922   5.304  15.089  0.00  0.00    +0.000 OA
BRANCH   9  10
ATOM     10  C   UNL     1      47.422   4.247  15.930  0.00  0.00    +0.000 C 
ATOM     11  C   UNL     1      47.477   4.643  17.413  0.00  0.00    +0.000 C 
ATOM     12  C   UNL     1      48.397   3.626  18.078  0.00  0.00    +0.000 C 
ATOM     13  N   UNL     1      49.267   3.207  16.985  0.00  0.00    +0.000 NA
ATOM     14  C   UNL     1      50.046   2.019  17.289  0.00  0.00    +0.000 C 
ATOM     15  C   UNL     1      48.370   3.039  15.835  0.00  0.00    +0.000 C 
ENDBRANCH   9  10
ENDBRANCH   7   9
ENDBRANCH   2   3
BRANCH   2  16
ATOM     16  C   UNL     1      43.881   3.134  11.743  0.00  0.00    +0.000 C 
BRANCH  16  17
ATOM     17  O   UNL     1      43.389   3.337  10.407  0.00  0.00    +0.000 OA
BRANCH  17  18
ATOM     18  C   UNL     1      44.372   3.080   9.466  0.00  0.00    +0.000 A 
ATOM     19  C   UNL     1      44.865   4.144   8.731  0.00  0.00    +0.000 A 
ATOM     20  C   UNL     1      45.877   3.895   7.797  0.00  0.00    +0.000 A 
ATOM     21  C   UNL     1      46.364   2.594   7.626  0.00  0.00    +0.000 A 
ATOM     22  C   UNL     1      45.794   1.599   8.406  0.00  0.00    +0.000 A 
ATOM     23  N   UNL     1      44.814   1.813   9.315  0.00  0.00    +0.000 NA
BRANCH  21  24
ATOM     24  C   UNL     1      47.454   2.322   6.658  0.00  0.00    +0.000 C 
ATOM     25  N   UNL     1      47.495   3.027   5.485  0.00  0.00    +0.000 N 
ATOM     26  O   UNL     1      48.304   1.471   6.893  0.00  0.00    +0.000 OA
ATOM     27  H   UNL     1      46.842   3.732   5.185  0.00  0.00    +0.000 HD
ATOM     28  H   UNL     1      48.250   2.799   4.850  0.00  0.00    +0.000 HD
ENDBRANCH  21  24
ENDBRANCH  17  18
ENDBRANCH  16  17
ENDBRANCH   2  16
TORSDOF 7
ENDMDL
MODEL 2
REMARK VINA RESULT:    -7.865      1.627      1.913
REMARK INTER + INTRA:         -12.284
REMARK INTER:                 -11.460
REMARK INTRA:                  -0.824
REMARK UNBOUND:                -1.200
REMARK  Name = 
REMARK  9 active torsions:
REMARK  status: ('A' for Active; 'I' for Inactive)
REMARK    1  A    between atoms: C_1  and  C_2
REMARK    2  A    between atoms: C_2  and  C_3
REMARK    3  A    between atoms: C_2  and  C_14
REMARK    4  A    between atoms: C_3  and  O_4
REMARK    5  A    between atoms: O_4  and  C_5
REMARK    6  A    between atoms: C_8  and  C_9
REMARK    7  A    between atoms: C_18  and  O_19
REMARK    8  A    between atoms: O_19  and  C_20
REMARK    9  A    between atoms: N_23  and  C_24
REMARK                            x       y       z     vdW  Elec       q    Type
REMARK                         _______ _______ _______ _____ _____    ______ ____
ROOT
ATOM      1  C   UNL     1      42.737   6.239  11.440  0.00  0.00    +0.000 C 
ATOM      2  C   UNL     1      43.765   5.359  12.163  0.00  0.00    +0.000 C 
ENDROOT
BRANCH   2   3
ATOM      3  C   UNL     1      45.048   6.144  12.432  0.00  0.00    +0.000 A 
ATOM      4  C   UNL     1      45.228   7.432  11.903  0.00  0.00    +0.000 A 
ATOM      5  C   UNL     1      46.398   8.151  12.145  0.00  0.00    +0.000 A 
ATOM      6  C   UNL     1      47.403   7.605  12.943  0.00  0.00    +0.000 A 
ATOM      7  C   UNL     1      47.237   6.341  13.504  0.00  0.00    +0.000 A 
ATOM      8  C   UNL     1      46.079   5.600  13.219  0.00  0.00    +0.000 A 
BRANCH   7   9
ATOM      9  O   UNL     1      48.169   5.733  14.302  0.00  0.00    +0.000 OA
BRANCH   9  10
ATOM     10  C   UNL     1      48.534   6.444  15.500  0.00  0.00    +0.000 C 
ATOM     11  C   UNL     1      49.949   7.030  15.390  0.00  0.00    +0.000 C 
ATOM     12  C   UNL     1      50.752   6.381  16.511  0.00  0.00    +0.000 C 
ATOM     13  N   UNL     1      50.065   5.111  16.715  0.00  0.00    +0.000 NA
ATOM     14  C   UNL     1      50.458   4.430  17.937  0.00  0.00    +0.000 C 
ATOM     15  C   UNL     1      48.636   5.445  16.666  0.00  0.00    +0.000 C 
ENDBRANCH   9  10
ENDBRANCH   7   9
ENDBRANCH   2   3
BRANCH   2  16
ATOM     16  C   UNL     1      44.069   4.079  11.361  0.00  0.00    +0.000 C 
BRANCH  16  17
ATOM     17  O   UNL     1      43.703   4.211   9.976  0.00  0.00    +0.000 OA
BRANCH  17  18
ATOM     18  C   UNL     1      44.693   3.715   9.145  0.00  0.00    +0.000 A 
ATOM     19  C   UNL     1      44.955   2.356   9.182  0.00  0.00    +0.000 A 
ATOM     20  C   UNL     1      45.937   1.845   8.325  0.00  0.00    +0.000 A 
ATOM     21  C   UNL     1      46.625   2.704   7.461  0.00  0.00    +0.000 A 
ATOM     22  C   UNL     1      46.292   4.049   7.510  0.00  0.00    +0.000 A 
ATOM     23  N   UNL     1      45.348   4.570   8.329  0.00  0.00    +0.000 NA
BRANCH  21  24
ATOM     24  C   UNL     1      47.649   2.170   6.531  0.00  0.00    +0.000 C 
ATOM     25  N   UNL     1      48.014   2.914   5.441  0.00  0.00    +0.000 N 
ATOM     26  O   UNL     1      48.160   1.073   6.724  0.00  0.00    +0.000 OA
ATOM     27  H   UNL     1      47.647   3.815   5.179  0.00  0.00    +0.000 HD
ATOM     28  H   UNL     1      48.707   2.505   4.828  0.00  0.00    +0.000 HD
ENDBRANCH  21  24
ENDBRANCH  17  18
ENDBRANCH  16  17
ENDBRANCH   2  16
TORSDOF 7
ENDMDL
MODEL 3
REMARK VINA RESULT:    -7.752      2.935      4.961
REMARK INTER + INTRA:         -12.124
REMARK INTER:                 -11.032
REMARK INTRA:                  -1.092
REMARK UNBOUND:                -1.200
REMARK  Name = 
REMARK  9 active torsions:
REMARK  status: ('A' for Active; 'I' for Inactive)
REMARK    1  A    between atoms: C_1  and  C_2
REMARK    2  A    between atoms: C_2  and  C_3
REMARK    3  A    between atoms: C_2  and  C_14
REMARK    4  A    between atoms: C_3  and  O_4
REMARK    5  A    between atoms: O_4  and  C_5
REMARK    6  A    between atoms: C_8  and  C_9
REMARK    7  A    between atoms: C_18  and  O_19
REMARK    8  A    between atoms: O_19  and  C_20
REMARK    9  A    between atoms: N_23  and  C_24
REMARK                            x       y       z     vdW  Elec       q    Type
REMARK                         _______ _______ _______ _____ _____    ______ ____
ROOT
ATOM      1  C   UNL     1      42.611   5.171  12.117  0.00  0.00    +0.000 C 
ATOM      2  C   UNL     1      43.728   4.290  12.694  0.00  0.00    +0.000 C 
ENDROOT
BRANCH   2   3
ATOM      3  C   UNL     1      45.018   5.095  12.847  0.00  0.00    +0.000 A 
ATOM      4  C   UNL     1      46.085   4.606  13.619  0.00  0.00    +0.000 A 
ATOM      5  C   UNL     1      47.262   5.339  13.761  0.00  0.00    +0.000 A 
ATOM      6  C   UNL     1      47.406   6.566  13.116  0.00  0.00    +0.000 A 
ATOM      7  C   UNL     1      46.375   7.060  12.320  0.00  0.00    +0.000 A 
ATOM      8  C   UNL     1      45.173   6.343  12.217  0.00  0.00    +0.000 A 
BRANCH   7   9
ATOM      9  O   UNL     1      46.434   8.252  11.648  0.00  0.00    +0.000 OA
BRANCH   9  10
ATOM     10  C   UNL     1      45.605   9.309  12.164  0.00  0.00    +0.000 C 
ATOM     11  C   UNL     1      44.414   9.587  11.234  0.00  0.00    +0.000 C 
ATOM     12  C   UNL     1      44.569  11.036  10.788  0.00  0.00    +0.000 C 
ATOM     13  N   UNL     1      46.008  11.257  10.883  0.00  0.00    +0.000 NA
ATOM     14  C   UNL     1      46.384  12.658  10.794  0.00  0.00    +0.000 C 
ATOM     15  C   UNL     1      46.401  10.625  12.148  0.00  0.00    +0.000 C 
ENDBRANCH   9  10
ENDBRANCH   7   9
ENDBRANCH   2   3
BRANCH   2  16
ATOM     16  C   UNL     1      43.966   3.044  11.819  0.00  0.00    +0.000 C 
BRANCH  16  17
ATOM     17  O   UNL     1      43.421   3.201  10.497  0.00  0.00    +0.000 OA
BRANCH  17  18
ATOM     18  C   UNL     1      44.387   2.990   9.528  0.00  0.00    +0.000 A 
ATOM     19  C   UNL     1      44.930   4.096   8.897  0.00  0.00    +0.000 A 
ATOM     20  C   UNL     1      45.925   3.890   7.934  0.00  0.00    +0.000 A 
ATOM     21  C   UNL     1      46.346   2.590   7.634  0.00  0.00    +0.000 A 
ATOM     22  C   UNL     1      45.730   1.552   8.317  0.00  0.00    +0.000 A 
ATOM     23  N   UNL     1      44.765   1.723   9.250  0.00  0.00    +0.000 NA
BRANCH  21  24
ATOM     24  C   UNL     1      47.418   2.361   6.634  0.00  0.00    +0.000 C 
ATOM     25  N   UNL     1      47.369   3.028   5.439  0.00  0.00    +0.000 N 
ATOM     26  O   UNL     1      48.334   1.581   6.864  0.00  0.00    +0.000 OA
ATOM     27  H   UNL     1      46.657   3.675   5.141  0.00  0.00    +0.000 HD
ATOM     28  H   UNL     1      48.115   2.831   4.783  0.00  0.00    +0.000 HD
ENDBRANCH  21  24
ENDBRANCH  17  18
ENDBRANCH  16  17
ENDBRANCH   2  16
TORSDOF 7
ENDMDL
MODEL 4
REMARK VINA RESULT:    -7.571      3.536      5.870
REMARK INTER + INTRA:         -11.869
REMARK INTER:                 -11.054
REMARK INTRA:                  -0.816
REMARK UNBOUND:                -1.200
REMARK  Name = 
REMARK  9 active torsions:
REMARK  status: ('A' for Active; 'I' for Inactive)
REMARK    1  A    between atoms: C_1  and  C_2
REMARK    2  A    between atoms: C_2  and  C_3
REMARK    3  A    between atoms: C_2  and  C_14
REMARK    4  A    between atoms: C_3  and  O_4
REMARK    5  A    between atoms: O_4  and  C_5
REMARK    6  A    between atoms: C_8  and  C_9
REMARK    7  A    between atoms: C_18  and  O_19
REMARK    8  A    between atoms: O_19  and  C_20
REMARK    9  A    between atoms: N_23  and  C_24
REMARK                            x       y       z     vdW  Elec       q    Type
REMARK                         _______ _______ _______ _____ _____    ______ ____
ROOT
ATOM      1  C   UNL     1      44.923   4.015  12.879  0.00  0.00    +0.000 C 
ATOM      2  C   UNL     1      45.210   4.830  11.611  0.00  0.00    +0.000 C 
ENDROOT
BRANCH   2   3
ATOM      3  C   UNL     1      45.839   6.175  11.970  0.00  0.00    +0.000 A 
ATOM      4  C   UNL     1      47.216   6.281  12.227  0.00  0.00    +0.000 A 
ATOM      5  C   UNL     1      47.793   7.507  12.556  0.00  0.00    +0.000 A 
ATOM      6  C   UNL     1      47.008   8.658  12.612  0.00  0.00    +0.000 A 
ATOM      7  C   UNL     1      45.645   8.585  12.332  0.00  0.00    +0.000 A 
ATOM      8  C   UNL     1      45.059   7.343  12.048  0.00  0.00    +0.000 A 
BRANCH   7   9
ATOM      9  O   UNL     1      44.803   9.666  12.359  0.00  0.00    +0.000 OA
BRANCH   9  10
ATOM     10  C   UNL     1      44.674  10.395  11.124  0.00  0.00    +0.000 C 
ATOM     11  C   UNL     1      44.542  11.903  11.379  0.00  0.00    +0.000 C 
ATOM     12  C   UNL     1      43.187  12.302  10.806  0.00  0.00    +0.000 C 
ATOM     13  N   UNL     1      42.417  11.067  10.895  0.00  0.00    +0.000 NA
ATOM     14  C   UNL     1      41.178  11.103  10.136  0.00  0.00    +0.000 C 
ATOM     15  C   UNL     1      43.342  10.015  10.454  0.00  0.00    +0.000 C 
ENDBRANCH   9  10
ENDBRANCH   7   9
ENDBRANCH   2   3
BRANCH   2  16
ATOM     16  C   UNL     1      43.931   5.034  10.775  0.00  0.00    +0.000 C 
BRANCH  16  17
ATOM     17  O   UNL     1      43.580   3.853  10.031  0.00  0.00    +0.000 OA
BRANCH  17  18
ATOM     18  C   UNL     1      44.599   3.481   9.171  0.00  0.00    +0.000 A 
ATOM     19  C   UNL     1      44.984   2.152   9.152  0.00  0.00    +0.000 A 
ATOM     20  C   UNL     1      45.996   1.765   8.266  0.00  0.00    +0.000 A 
ATOM     21  C   UNL     1      46.590   2.715   7.428  0.00  0.00    +0.000 A 
ATOM     22  C   UNL     1      46.137   4.022   7.533  0.00  0.00    +0.000 A 
ATOM     23  N   UNL     1      45.162   4.422   8.382  0.00  0.00    +0.000 NA
BRANCH  21  24
ATOM     24  C   UNL     1      47.646   2.312   6.467  0.00  0.00    +0.000 C 
ATOM     25  N   UNL     1      47.725   2.949   5.258  0.00  0.00    +0.000 N 
ATOM     26  O   UNL     1      48.434   1.415   6.741  0.00  0.00    +0.000 OA
ATOM     27  H   UNL     1      47.121   3.684   4.925  0.00  0.00    +0.000 HD
ATOM     28  H   UNL     1      48.453   2.633   4.629  0.00  0.00    +0.000 HD
ENDBRANCH  21  24
ENDBRANCH  17  18
ENDBRANCH  16  17
ENDBRANCH   2  16
TORSDOF 7
ENDMDL
MODEL 5
REMARK VINA RESULT:    -7.291      2.443      3.075
REMARK INTER + INTRA:         -11.474
REMARK INTER:                 -10.613
REMARK INTRA:                  -0.861
REMARK UNBOUND:                -1.200
REMARK  Name = 
REMARK  9 active torsions:
REMARK  status: ('A' for Active; 'I' for Inactive)
REMARK    1  A    between atoms: C_1  and  C_2
REMARK    2  A    between atoms: C_2  and  C_3
REMARK    3  A    between atoms: C_2  and  C_14
REMARK    4  A    between atoms: C_3  and  O_4
REMARK    5  A    between atoms: O_4  and  C_5
REMARK    6  A    between atoms: C_8  and  C_9
REMARK    7  A    between atoms: C_18  and  O_19
REMARK    8  A    between atoms: O_19  and  C_20
REMARK    9  A    between atoms: N_23  and  C_24
REMARK                            x       y       z     vdW  Elec       q    Type
REMARK                         _______ _______ _______ _____ _____    ______ ____
ROOT
ATOM      1  C   UNL     1      43.459   4.701  13.153  0.00  0.00    +0.000 C 
ATOM      2  C   UNL     1      44.366   5.070  11.971  0.00  0.00    +0.000 C 
ENDROOT
BRANCH   2   3
ATOM      3  C   UNL     1      44.898   6.493  12.129  0.00  0.00    +0.000 A 
ATOM      4  C   UNL     1      44.307   7.564  11.439  0.00  0.00    +0.000 A 
ATOM      5  C   UNL     1      44.791   8.864  11.580  0.00  0.00    +0.000 A 
ATOM      6  C   UNL     1      45.863   9.123  12.432  0.00  0.00    +0.000 A 
ATOM      7  C   UNL     1      46.449   8.083  13.151  0.00  0.00    +0.000 A 
ATOM      8  C   UNL     1      45.990   6.769  12.971  0.00  0.00    +0.000 A 
BRANCH   7   9
ATOM      9  O   UNL     1      47.500   8.250  14.012  0.00  0.00    +0.000 OA
BRANCH   9  10
ATOM     10  C   UNL     1      48.474   7.190  14.032  0.00  0.00    +0.000 C 
ATOM     11  C   UNL     1      48.940   6.889  15.464  0.00  0.00    +0.000 C 
ATOM     12  C   UNL     1      50.440   7.159  15.474  0.00  0.00    +0.000 C 
ATOM     13  N   UNL     1      50.603   8.147  14.414  0.00  0.00    +0.000 NA
ATOM     14  C   UNL     1      51.988   8.351  14.023  0.00  0.00    +0.000 C 
ATOM     15  C   UNL     1      49.751   7.667  13.320  0.00  0.00    +0.000 C 
ENDBRANCH   9  10
ENDBRANCH   7   9
ENDBRANCH   2   3
BRANCH   2  16
ATOM     16  C   UNL     1      43.627   4.911  10.628  0.00  0.00    +0.000 C 
BRANCH  16  17
ATOM     17  O   UNL     1      43.578   3.538  10.200  0.00  0.00    +0.000 OA
BRANCH  17  18
ATOM     18  C   UNL     1      44.584   3.259   9.291  0.00  0.00    +0.000 A 
ATOM     19  C   UNL     1      44.983   1.942   9.143  0.00  0.00    +0.000 A 
ATOM     20  C   UNL     1      45.982   1.651   8.206  0.00  0.00    +0.000 A 
ATOM     21  C   UNL     1      46.549   2.682   7.449  0.00  0.00    +0.000 A 
ATOM     22  C   UNL     1      46.084   3.967   7.682  0.00  0.00    +0.000 A 
ATOM     23  N   UNL     1      45.121   4.276   8.581  0.00  0.00    +0.000 NA
BRANCH  21  24
ATOM     24  C   UNL     1      47.590   2.382   6.435  0.00  0.00    +0.000 C 
ATOM     25  N   UNL     1      47.537   3.008   5.219  0.00  0.00    +0.000 N 
ATOM     26  O   UNL     1      48.484   1.578   6.673  0.00  0.00    +0.000 OA
ATOM     27  H   UNL     1      46.840   3.669   4.913  0.00  0.00    +0.000 HD
ATOM     28  H   UNL     1      48.260   2.763   4.555  0.00  0.00    +0.000 HD
ENDBRANCH  21  24
ENDBRANCH  17  18
ENDBRANCH  16  17
ENDBRANCH   2  16
TORSDOF 7
ENDMDL
MODEL 6
REMARK VINA RESULT:    -6.931      3.104      3.717
REMARK INTER + INTRA:         -10.966
REMARK INTER:                 -10.011
REMARK INTRA:                  -0.955
REMARK UNBOUND:                -1.200
REMARK  Name = 
REMARK  9 active torsions:
REMARK  status: ('A' for Active; 'I' for Inactive)
REMARK    1  A    between atoms: C_1  and  C_2
REMARK    2  A    between atoms: C_2  and  C_3
REMARK    3  A    between atoms: C_2  and  C_14
REMARK    4  A    between atoms: C_3  and  O_4
REMARK    5  A    between atoms: O_4  and  C_5
REMARK    6  A    between atoms: C_8  and  C_9
REMARK    7  A    between atoms: C_18  and  O_19
REMARK    8  A    between atoms: O_19  and  C_20
REMARK    9  A    between atoms: N_23  and  C_24
REMARK                            x       y       z     vdW  Elec       q    Type
REMARK                         _______ _______ _______ _____ _____    ______ ____
ROOT
ATOM      1  C   UNL     1      44.155   4.212  13.275  0.00  0.00    +0.000 C 
ATOM      2  C   UNL     1      44.675   4.697  11.915  0.00  0.00    +0.000 C 
ENDROOT
BRANCH   2   3
ATOM      3  C   UNL     1      45.053   6.176  11.984  0.00  0.00    +0.000 A 
ATOM      4  C   UNL     1      44.261   7.152  11.357  0.00  0.00    +0.000 A 
ATOM      5  C   UNL     1      44.605   8.502  11.416  0.00  0.00    +0.000 A 
ATOM      6  C   UNL     1      45.735   8.907  12.125  0.00  0.00    +0.000 A 
ATOM      7  C   UNL     1      46.521   7.962  12.780  0.00  0.00    +0.000 A 
ATOM      8  C   UNL     1      46.200   6.599  12.679  0.00  0.00    +0.000 A 
BRANCH   7   9
ATOM      9  O   UNL     1      47.643   8.272  13.502  0.00  0.00    +0.000 OA
BRANCH   9  10
ATOM     10  C   UNL     1      48.633   9.063  12.819  0.00  0.00    +0.000 C 
ATOM     11  C   UNL     1      49.251   8.291  11.644  0.00  0.00    +0.000 C 
ATOM     12  C   UNL     1      50.739   8.184  11.957  0.00  0.00    +0.000 C 
ATOM     13  N   UNL     1      50.773   8.248  13.414  0.00  0.00    +0.000 NA
ATOM     14  C   UNL     1      52.105   8.464  13.951  0.00  0.00    +0.000 C 
ATOM     15  C   UNL     1      49.821   9.309  13.765  0.00  0.00    +0.000 C 
ENDBRANCH   9  10
ENDBRANCH   7   9
ENDBRANCH   2   3
BRANCH   2  16
ATOM     16  C   UNL     1      43.640   4.452  10.800  0.00  0.00    +0.000 C 
BRANCH  16  17
ATOM     17  O   UNL     1      43.676   3.096  10.320  0.00  0.00    +0.000 OA
BRANCH  17  18
ATOM     18  C   UNL     1      44.583   2.956   9.283  0.00  0.00    +0.000 A 
ATOM     19  C   UNL     1      44.860   4.065   8.504  0.00  0.00    +0.000 A 
ATOM     20  C   UNL     1      45.796   3.935   7.471  0.00  0.00    +0.000 A 
ATOM     21  C   UNL     1      46.424   2.705   7.249  0.00  0.00    +0.000 A 
ATOM     22  C   UNL     1      46.067   1.654   8.081  0.00  0.00    +0.000 A 
ATOM     23  N   UNL     1      45.165   1.753   9.085  0.00  0.00    +0.000 NA
BRANCH  21  24
ATOM     24  C   UNL     1      47.436   2.562   6.174  0.00  0.00    +0.000 C 
ATOM     25  N   UNL     1      48.701   2.154   6.499  0.00  0.00    +0.000 N 
ATOM     26  O   UNL     1      47.152   2.813   5.008  0.00  0.00    +0.000 OA
ATOM     27  H   UNL     1      49.045   1.940   7.421  0.00  0.00    +0.000 HD
ATOM     28  H   UNL     1      49.361   2.083   5.734  0.00  0.00    +0.000 HD
ENDBRANCH  21  24
ENDBRANCH  17  18
ENDBRANCH  16  17
ENDBRANCH   2  16
TORSDOF 7
ENDMDL
MODEL 7
REMARK VINA RESULT:    -6.709      1.885      7.837
REMARK INTER + INTRA:         -10.655
REMARK INTER:                  -9.762
REMARK INTRA:                  -0.892
REMARK UNBOUND:                -1.200
REMARK  Name = 
REMARK  9 active torsions:
REMARK  status: ('A' for Active; 'I' for Inactive)
REMARK    1  A    between atoms: C_1  and  C_2
REMARK    2  A    between atoms: C_2  and  C_3
REMARK    3  A    between atoms: C_2  and  C_14
REMARK    4  A    between atoms: C_3  and  O_4
REMARK    5  A    between atoms: O_4  and  C_5
REMARK    6  A    between atoms: C_8  and  C_9
REMARK    7  A    between atoms: C_18  and  O_19
REMARK    8  A    between atoms: O_19  and  C_20
REMARK    9  A    between atoms: N_23  and  C_24
REMARK                            x       y       z     vdW  Elec       q    Type
REMARK                         _______ _______ _______ _____ _____    ______ ____
ROOT
ATOM      1  C   UNL     1      46.532   8.722  12.958  0.00  0.00    +0.000 C 
ATOM      2  C   UNL     1      46.885   7.608  11.964  0.00  0.00    +0.000 C 
ENDROOT
BRANCH   2   3
ATOM      3  C   UNL     1      45.644   6.788  11.615  0.00  0.00    +0.000 A 
ATOM      4  C   UNL     1      44.372   7.382  11.591  0.00  0.00    +0.000 A 
ATOM      5  C   UNL     1      43.237   6.636  11.275  0.00  0.00    +0.000 A 
ATOM      6  C   UNL     1      43.355   5.284  10.953  0.00  0.00    +0.000 A 
ATOM      7  C   UNL     1      44.609   4.678  10.940  0.00  0.00    +0.000 A 
ATOM      8  C   UNL     1      45.743   5.420  11.305  0.00  0.00    +0.000 A 
BRANCH   7   9
ATOM      9  O   UNL     1      44.816   3.360  10.630  0.00  0.00    +0.000 OA
BRANCH   9  10
ATOM     10  C   UNL     1      44.507   2.974   9.278  0.00  0.00    +0.000 C 
ATOM     11  C   UNL     1      45.040   1.569   8.965  0.00  0.00    +0.000 C 
ATOM     12  C   UNL     1      46.029   1.749   7.819  0.00  0.00    +0.000 C 
ATOM     13  N   UNL     1      46.489   3.121   7.995  0.00  0.00    +0.000 NA
ATOM     14  C   UNL     1      47.220   3.637   6.850  0.00  0.00    +0.000 C 
ATOM     15  C   UNL     1      45.276   3.887   8.307  0.00  0.00    +0.000 C 
ENDBRANCH   9  10
ENDBRANCH   7   9
ENDBRANCH   2   3
BRANCH   2  16
ATOM     16  C   UNL     1      48.001   6.699  12.515  0.00  0.00    +0.000 C 
BRANCH  16  17
ATOM     17  O   UNL     1      48.468   7.139  13.802  0.00  0.00    +0.000 OA
BRANCH  17  18
ATOM     18  C   UNL     1      48.247   6.176  14.772  0.00  0.00    +0.000 A 
ATOM     19  C   UNL     1      48.814   6.365  16.020  0.00  0.00    +0.000 A 
ATOM     20  C   UNL     1      48.573   5.407  17.012  0.00  0.00    +0.000 A 
ATOM     21  C   UNL     1      47.776   4.293  16.727  0.00  0.00    +0.000 A 
ATOM     22  C   UNL     1      47.264   4.194  15.442  0.00  0.00    +0.000 A 
ATOM     23  N   UNL     1      47.483   5.105  14.465  0.00  0.00    +0.000 NA
BRANCH  21  24
ATOM     24  C   UNL     1      47.493   3.284  17.778  0.00  0.00    +0.000 C 
ATOM     25  N   UNL     1      48.296   3.232  18.885  0.00  0.00    +0.000 N 
ATOM     26  O   UNL     1      46.560   2.499  17.658  0.00  0.00    +0.000 OA
ATOM     27  H   UNL     1      49.096   3.815  19.076  0.00  0.00    +0.000 HD
ATOM     28  H   UNL     1      48.073   2.520  19.569  0.00  0.00    +0.000 HD
ENDBRANCH  21  24
ENDBRANCH  17  18
ENDBRANCH  16  17
ENDBRANCH   2  16
TORSDOF 7
ENDMDL
MODEL 8
REMARK VINA RESULT:    -5.977      2.845      5.536
REMARK INTER + INTRA:          -9.622
REMARK INTER:                  -8.767
REMARK INTRA:                  -0.855
REMARK UNBOUND:                -1.200
REMARK  Name = 
REMARK  9 active torsions:
REMARK  status: ('A' for Active; 'I' for Inactive)
REMARK    1  A    between atoms: C_1  and  C_2
REMARK    2  A    between atoms: C_2  and  C_3
REMARK    3  A    between atoms: C_2  and  C_14
REMARK    4  A    between atoms: C_3  and  O_4
REMARK    5  A    between atoms: O_4  and  C_5
REMARK    6  A    between atoms: C_8  and  C_9
REMARK    7  A    between atoms: C_18  and  O_19
REMARK    8  A    between atoms: O_19  and  C_20
REMARK    9  A    between atoms: N_23  and  C_24
REMARK                            x       y       z     vdW  Elec       q    Type
REMARK                         _______ _______ _______ _____ _____    ______ ____
ROOT
ATOM      1  C   UNL     1      49.806   7.527  16.030  0.00  0.00    +0.000 C 
ATOM      2  C   UNL     1      48.526   6.730  15.741  0.00  0.00    +0.000 C 
ENDROOT
BRANCH   2   3
ATOM      3  C   UNL     1      48.530   5.413  16.515  0.00  0.00    +0.000 A 
ATOM      4  C   UNL     1      47.380   4.609  16.573  0.00  0.00    +0.000 A 
ATOM      5  C   UNL     1      47.379   3.407  17.280  0.00  0.00    +0.000 A 
ATOM      6  C   UNL     1      48.537   2.973  17.924  0.00  0.00    +0.000 A 
ATOM      7  C   UNL     1      49.699   3.737  17.858  0.00  0.00    +0.000 A 
ATOM      8  C   UNL     1      49.684   4.969  17.186  0.00  0.00    +0.000 A 
BRANCH   7   9
ATOM      9  O   UNL     1      50.880   3.383  18.455  0.00  0.00    +0.000 OA
BRANCH   9  10
ATOM     10  C   UNL     1      51.900   2.868  17.580  0.00  0.00    +0.000 C 
ATOM     11  C   UNL     1      51.762   1.350  17.397  0.00  0.00    +0.000 C 
ATOM     12  C   UNL     1      53.061   0.751  17.923  0.00  0.00    +0.000 C 
ATOM     13  N   UNL     1      53.506   1.737  18.900  0.00  0.00    +0.000 NA
ATOM     14  C   UNL     1      54.879   1.545  19.332  0.00  0.00    +0.000 C 
ATOM     15  C   UNL     1      53.273   3.036  18.255  0.00  0.00    +0.000 C 
ENDBRANCH   9  10
ENDBRANCH   7   9
ENDBRANCH   2   3
BRANCH   2  16
ATOM     16  C   UNL     1      48.356   6.474  14.231  0.00  0.00    +0.000 C 
BRANCH  16  17
ATOM     17  O   UNL     1      47.297   7.267  13.666  0.00  0.00    +0.000 OA
BRANCH  17  18
ATOM     18  C   UNL     1      46.459   6.497  12.878  0.00  0.00    +0.000 A 
ATOM     19  C   UNL     1      46.021   7.030  11.678  0.00  0.00    +0.000 A 
ATOM     20  C   UNL     1      45.194   6.245  10.865  0.00  0.00    +0.000 A 
ATOM     21  C   UNL     1      44.831   4.958  11.275  0.00  0.00    +0.000 A 
ATOM     22  C   UNL     1      45.316   4.524  12.500  0.00  0.00    +0.000 A 
ATOM     23  N   UNL     1      46.116   5.262  13.305  0.00  0.00    +0.000 NA
BRANCH  21  24
ATOM     24  C   UNL     1      43.976   4.108  10.410  0.00  0.00    +0.000 C 
ATOM     25  N   UNL     1      43.955   4.339   9.061  0.00  0.00    +0.000 N 
ATOM     26  O   UNL     1      43.289   3.215  10.891  0.00  0.00    +0.000 OA
ATOM     27  H   UNL     1      44.464   5.053   8.565  0.00  0.00    +0.000 HD
ATOM     28  H   UNL     1      43.348   3.743   8.512  0.00  0.00    +0.000 HD
ENDBRANCH  21  24
ENDBRANCH  17  18
ENDBRANCH  16  17
ENDBRANCH   2  16
TORSDOF 7
ENDMDL
MODEL 9
REMARK VINA RESULT:    -5.973      4.675      7.939
REMARK INTER + INTRA:          -9.616
REMARK INTER:                  -8.450
REMARK INTRA:                  -1.167
REMARK UNBOUND:                -1.200
REMARK  Name = 
REMARK  9 active torsions:
REMARK  status: ('A' for Active; 'I' for Inactive)
REMARK    1  A    between atoms: C_1  and  C_2
REMARK    2  A    between atoms: C_2  and  C_3
REMARK    3  A    between atoms: C_2  and  C_14
REMARK    4  A    between atoms: C_3  and  O_4
REMARK    5  A    between atoms: O_4  and  C_5
REMARK    6  A    between atoms: C_8  and  C_9
REMARK    7  A    between atoms: C_18  and  O_19
REMARK    8  A    between atoms: O_19  and  C_20
REMARK    9  A    between atoms: N_23  and  C_24
REMARK                            x       y       z     vdW  Elec       q    Type
REMARK                         _______ _______ _______ _____ _____    ______ ____
ROOT
ATOM      1  C   UNL     1      48.598   9.261  13.915  0.00  0.00    +0.000 C 
ATOM      2  C   UNL     1      48.707   9.239  12.384  0.00  0.00    +0.000 C 
ENDROOT
BRANCH   2   3
ATOM      3  C   UNL     1      47.732  10.238  11.763  0.00  0.00    +0.000 A 
ATOM      4  C   UNL     1      48.178  11.207  10.849  0.00  0.00    +0.000 A 
ATOM      5  C   UNL     1      47.291  12.121  10.282  0.00  0.00    +0.000 A 
ATOM      6  C   UNL     1      45.934  12.070  10.600  0.00  0.00    +0.000 A 
ATOM      7  C   UNL     1      45.462  11.101  11.482  0.00  0.00    +0.000 A 
ATOM      8  C   UNL     1      46.364  10.213  12.087  0.00  0.00    +0.000 A 
BRANCH   7   9
ATOM      9  O   UNL     1      44.147  10.977  11.845  0.00  0.00    +0.000 OA
BRANCH   9  10
ATOM     10  C   UNL     1      43.181  11.464  10.894  0.00  0.00    +0.000 C 
ATOM     11  C   UNL     1      42.430  12.686  11.440  0.00  0.00    +0.000 C 
ATOM     12  C   UNL     1      40.961  12.280  11.487  0.00  0.00    +0.000 C 
ATOM     13  N   UNL     1      41.026  10.831  11.636  0.00  0.00    +0.000 NA
ATOM     14  C   UNL     1      39.753  10.169  11.408  0.00  0.00    +0.000 C 
ATOM     15  C   UNL     1      42.081  10.405  10.707  0.00  0.00    +0.000 C 
ENDBRANCH   9  10
ENDBRANCH   7   9
ENDBRANCH   2   3
BRANCH   2  16
ATOM     16  C   UNL     1      48.463   7.823  11.826  0.00  0.00    +0.000 C 
BRANCH  16  17
ATOM     17  O   UNL     1      48.282   6.855  12.874  0.00  0.00    +0.000 OA
BRANCH  17  18
ATOM     18  C   UNL     1      47.166   6.069  12.644  0.00  0.00    +0.000 A 
ATOM     19  C   UNL     1      46.385   6.353  11.538  0.00  0.00    +0.000 A 
ATOM     20  C   UNL     1      45.269   5.546  11.286  0.00  0.00    +0.000 A 
ATOM     21  C   UNL     1      44.970   4.482  12.145  0.00  0.00    +0.000 A 
ATOM     22  C   UNL     1      45.812   4.290  13.230  0.00  0.00    +0.000 A 
ATOM     23  N   UNL     1      46.895   5.057  13.497  0.00  0.00    +0.000 NA
BRANCH  21  24
ATOM     24  C   UNL     1      43.805   3.604  11.874  0.00  0.00    +0.000 C 
ATOM     25  N   UNL     1      43.753   2.367  12.457  0.00  0.00    +0.000 N 
ATOM     26  O   UNL     1      42.902   3.972  11.132  0.00  0.00    +0.000 OA
ATOM     27  H   UNL     1      44.445   1.960  13.066  0.00  0.00    +0.000 HD
ATOM     28  H   UNL     1      42.946   1.798  12.234  0.00  0.00    +0.000 HD
ENDBRANCH  21  24
ENDBRANCH  17  18
ENDBRANCH  16  17
ENDBRANCH   2  16
TORSDOF 7
ENDMDL
