MODEL 1
REMARK VINA RESULT:    -8.480      0.000      0.000
REMARK INTER + INTRA:         -10.668
REMARK INTER:                  -9.967
REMARK INTRA:                  -0.700
REMARK UNBOUND:                -0.700
REMARK  Name = 
REMARK  3 active torsions:
REMARK  status: ('A' for Active; 'I' for Inactive)
REMARK    1  A    between atoms: C_4  and  C_5
REMARK    2  A    between atoms: C_12  and  C_13
REMARK    3  A    between atoms: C_13  and  N_14
REMARK                            x       y       z     vdW  Elec       q    Type
REMARK                         _______ _______ _______ _____ _____    ______ ____
ROOT
ATOM      1 CL   UNL     1      47.311   4.114  15.346  0.00  0.00    +0.000 Cl
ATOM      2  C   UNL     1      46.910   4.862  13.850  0.00  0.00    +0.000 A 
ATOM      3  C   UNL     1      47.688   5.912  13.376  0.00  0.00    +0.000 A 
ATOM      4  C   UNL     1      47.365   6.551  12.173  0.00  0.00    +0.000 A 
ATOM      5  C   UNL     1      46.210   6.123  11.481  0.00  0.00    +0.000 A 
ATOM      6  C   UNL     1      45.382   5.084  11.968  0.00  0.00    +0.000 A 
ATOM      7  C   UNL     1      45.783   4.438  13.147  0.00  0.00    +0.000 A 
ENDROOT
BRANCH   4   8
ATOM      8  C   UNL     1      48.200   7.708  11.642  0.00  0.00    +0.000 C 
ATOM      9  C   UNL     1      49.694   7.557  11.978  0.00  0.00    +0.000 C 
ATOM     10  C   UNL     1      50.475   8.794  11.553  0.00  0.00    +0.000 C 
ATOM     11  O   UNL     1      49.923   9.965  12.148  0.00  0.00    +0.000 OA
ATOM     12  C   UNL     1      48.581  10.200  11.728  0.00  0.00    +0.000 C 
ATOM     13  C   UNL     1      47.674   9.056  12.161  0.00  0.00    +0.000 C 
ENDBRANCH   4   8
BRANCH   6  14
ATOM     14  C   UNL     1      44.059   4.734  11.278  0.00  0.00    +0.000 C 
ATOM     15  C   UNL     1      43.151   5.929  11.036  0.00  0.00    +0.000 C 
ATOM     16  C   UNL     1      42.734   4.899  12.024  0.00  0.00    +0.000 C 
BRANCH  14  17
ATOM     17  N   UNL     1      44.100   3.501  10.476  0.00  0.00    +0.000 N 
ATOM     18  C   UNL     1      44.940   3.275   9.388  0.00  0.00    +0.000 A 
ATOM     19  C   UNL     1      45.297   4.246   8.453  0.00  0.00    +0.000 A 
ATOM     20  N   UNL     1      46.081   4.006   7.372  0.00  0.00    +0.000 NA
ATOM     21  C   UNL     1      46.491   2.731   7.246  0.00  0.00    +0.000 A 
ATOM     22 CL   UNL     1      47.485   2.407   5.893  0.00  0.00    +0.000 Cl
ATOM     23  C   UNL     1      46.139   1.746   8.150  0.00  0.00    +0.000 A 
ATOM     24  N   UNL     1      45.358   1.997   9.233  0.00  0.00    +0.000 NA
ATOM     25  H   UNL     1      44.064   2.629  11.001  0.00  0.00    +0.000 HD
ENDBRANCH  14  17
ENDBRANCH   6  14
TORSDOF 3
ENDMDL
MODEL 2
REMARK VINA RESULT:    -8.093      2.502      3.861
REMARK INTER + INTRA:         -10.213
REMARK INTER:                  -9.548
REMARK INTRA:                  -0.665
REMARK UNBOUND:                -0.700
REMARK  Name = 
REMARK  3 active torsions:
REMARK  status: ('A' for Active; 'I' for Inactive)
REMARK    1  A    between atoms: C_4  and  C_5
REMARK    2  A    between atoms: C_12  and  C_13
REMARK    3  A    between atoms: C_13  and  N_14
REMARK                            x       y       z     vdW  Elec       q    Type
REMARK                         _______ _______ _______ _____ _____    ______ ____
ROOT
ATOM      1 CL   UNL     1      48.515   7.586  11.384  0.00  0.00    +0.000 Cl
ATOM      2  C   UNL     1      47.402   6.586  12.234  0.00  0.00    +0.000 A 
ATOM      3  C   UNL     1      47.775   6.020  13.446  0.00  0.00    +0.000 A 
ATOM      4  C   UNL     1      46.894   5.182  14.141  0.00  0.00    +0.000 A 
ATOM      5  C   UNL     1      45.639   4.904  13.557  0.00  0.00    +0.000 A 
ATOM      6  C   UNL     1      45.257   5.439  12.302  0.00  0.00    +0.000 A 
ATOM      7  C   UNL     1      46.153   6.318  11.676  0.00  0.00    +0.000 A 
ENDROOT
BRANCH   4   8
ATOM      8  C   UNL     1      47.287   4.546  15.467  0.00  0.00    +0.000 C 
ATOM      9  C   UNL     1      48.322   5.384  16.238  0.00  0.00    +0.000 C 
ATOM     10  C   UNL     1      48.792   4.652  17.489  0.00  0.00    +0.000 C 
ATOM     11  O   UNL     1      49.308   3.366  17.154  0.00  0.00    +0.000 OA
ATOM     12  C   UNL     1      48.315   2.524  16.572  0.00  0.00    +0.000 C 
ATOM     13  C   UNL     1      47.810   3.114  15.262  0.00  0.00    +0.000 C 
ENDBRANCH   4   8
BRANCH   6  14
ATOM     14  C   UNL     1      43.953   5.010  11.621  0.00  0.00    +0.000 C 
ATOM     15  C   UNL     1      43.032   6.164  11.261  0.00  0.00    +0.000 C 
ATOM     16  C   UNL     1      42.612   5.216  12.327  0.00  0.00    +0.000 C 
BRANCH  14  17
ATOM     17  N   UNL     1      44.027   3.714  10.929  0.00  0.00    +0.000 N 
ATOM     18  C   UNL     1      44.744   3.464   9.761  0.00  0.00    +0.000 A 
ATOM     19  C   UNL     1      44.874   4.367   8.707  0.00  0.00    +0.000 A 
ATOM     20  N   UNL     1      45.538   4.099   7.555  0.00  0.00    +0.000 NA
ATOM     21  C   UNL     1      46.065   2.863   7.484  0.00  0.00    +0.000 A 
ATOM     22 CL   UNL     1      46.912   2.505   6.042  0.00  0.00    +0.000 Cl
ATOM     23  C   UNL     1      45.938   1.943   8.508  0.00  0.00    +0.000 A 
ATOM     24  N   UNL     1      45.276   2.223   9.660  0.00  0.00    +0.000 NA
ATOM     25  H   UNL     1      44.152   2.898  11.527  0.00  0.00    +0.000 HD
ENDBRANCH  14  17
ENDBRANCH   6  14
TORSDOF 3
ENDMDL
MODEL 3
REMARK VINA RESULT:    -6.923      4.412      7.760
REMARK INTER + INTRA:          -8.837
REMARK INTER:                  -8.028
REMARK INTRA:                  -0.809
REMARK UNBOUND:                -0.700
REMARK  Name = 
REMARK  3 active torsions:
REMARK  status: ('A' for Active; 'I' for Inactive)
REMARK    1  A    between atoms: C_4  and  C_5
REMARK    2  A    between atoms: C_12  and  C_13
REMARK    3  A    between atoms: C_13  and  N_14
REMARK                            x       y       z     vdW  Elec       q    Type
REMARK                         _______ _______ _______ _____ _____    ______ ____
ROOT
ATOM      1 CL   UNL     1      44.566  10.087  12.114  0.00  0.00    +0.000 Cl
ATOM      2  C   UNL     1      45.622   8.731  12.042  0.00  0.00    +0.000 A 
ATOM      3  C   UNL     1      45.092   7.454  11.901  0.00  0.00    +0.000 A 
ATOM      4  C   UNL     1      45.933   6.335  11.865  0.00  0.00    +0.000 A 
ATOM      5  C   UNL     1      47.322   6.541  12.013  0.00  0.00    +0.000 A 
ATOM      6  C   UNL     1      47.877   7.830  12.199  0.00  0.00    +0.000 A 
ATOM      7  C   UNL     1      46.997   8.921  12.169  0.00  0.00    +0.000 A 
ENDROOT
BRANCH   4   8
ATOM      8  C   UNL     1      45.372   4.928  11.719  0.00  0.00    +0.000 C 
ATOM      9  C   UNL     1      44.939   4.614  10.275  0.00  0.00    +0.000 C 
ATOM     10  C   UNL     1      44.259   3.253  10.195  0.00  0.00    +0.000 C 
ATOM     11  O   UNL     1      43.156   3.189  11.096  0.00  0.00    +0.000 OA
ATOM     12  C   UNL     1      43.563   3.330  12.455  0.00  0.00    +0.000 C 
ATOM     13  C   UNL     1      44.199   4.695  12.686  0.00  0.00    +0.000 C 
ENDBRANCH   4   8
BRANCH   6  14
ATOM     14  C   UNL     1      49.369   8.015  12.502  0.00  0.00    +0.000 C 
ATOM     15  C   UNL     1      49.936   9.345  12.031  0.00  0.00    +0.000 C 
ATOM     16  C   UNL     1      50.381   8.096  11.358  0.00  0.00    +0.000 C 
BRANCH  14  17
ATOM     17  N   UNL     1      49.863   7.214  13.632  0.00  0.00    +0.000 N 
ATOM     18  C   UNL     1      49.389   7.288  14.940  0.00  0.00    +0.000 A 
ATOM     19  C   UNL     1      48.988   8.466  15.568  0.00  0.00    +0.000 A 
ATOM     20  N   UNL     1      48.569   8.534  16.857  0.00  0.00    +0.000 NA
ATOM     21  C   UNL     1      48.580   7.361  17.515  0.00  0.00    +0.000 A 
ATOM     22 CL   UNL     1      48.050   7.422  19.139  0.00  0.00    +0.000 Cl
ATOM     23  C   UNL     1      48.988   6.181  16.920  0.00  0.00    +0.000 A 
ATOM     24  N   UNL     1      49.400   6.122  15.628  0.00  0.00    +0.000 NA
ATOM     25  H   UNL     1      50.029   6.228  13.438  0.00  0.00    +0.000 HD
ENDBRANCH  14  17
ENDBRANCH   6  14
TORSDOF 3
ENDMDL
MODEL 4
REMARK VINA RESULT:    -6.106      5.374      7.923
REMARK INTER + INTRA:          -7.877
REMARK INTER:                  -7.199
REMARK INTRA:                  -0.678
REMARK UNBOUND:                -0.700
REMARK  Name = 
REMARK  3 active torsions:
REMARK  status: ('A' for Active; 'I' for Inactive)
REMARK    1  A    between atoms: C_4  and  C_5
REMARK    2  A    between atoms: C_12  and  C_13
REMARK    3  A    between atoms: C_13  and  N_14
REMARK                            x       y       z     vdW  Elec       q    Type
REMARK                         _______ _______ _______ _____ _____    ______ ____
ROOT
ATOM      1 CL   UNL     1      49.968   8.657  14.459  0.00  0.00    +0.000 Cl
ATOM      2  C   UNL     1      48.996   7.245  14.610  0.00  0.00    +0.000 A 
ATOM      3  C   UNL     1      48.122   6.899  13.587  0.00  0.00    +0.000 A 
ATOM      4  C   UNL     1      47.305   5.768  13.701  0.00  0.00    +0.000 A 
ATOM      5  C   UNL     1      47.369   5.018  14.895  0.00  0.00    +0.000 A 
ATOM      6  C   UNL     1      48.223   5.377  15.966  0.00  0.00    +0.000 A 
ATOM      7  C   UNL     1      49.063   6.485  15.777  0.00  0.00    +0.000 A 
ENDROOT
BRANCH   4   8
ATOM      8  C   UNL     1      46.335   5.377  12.594  0.00  0.00    +0.000 C 
ATOM      9  C   UNL     1      45.162   6.366  12.464  0.00  0.00    +0.000 C 
ATOM     10  C   UNL     1      44.145   5.871  11.444  0.00  0.00    +0.000 C 
ATOM     11  O   UNL     1      43.689   4.564  11.782  0.00  0.00    +0.000 OA
ATOM     12  C   UNL     1      44.744   3.605  11.761  0.00  0.00    +0.000 C 
ATOM     13  C   UNL     1      45.804   3.949  12.800  0.00  0.00    +0.000 C 
ENDBRANCH   4   8
BRANCH   6  14
ATOM     14  C   UNL     1      48.171   4.634  17.306  0.00  0.00    +0.000 C 
ATOM     15  C   UNL     1      47.023   3.645  17.423  0.00  0.00    +0.000 C 
ATOM     16  C   UNL     1      47.007   4.867  18.270  0.00  0.00    +0.000 C 
BRANCH  14  17
ATOM     17  N   UNL     1      49.465   4.546  18.001  0.00  0.00    +0.000 N 
ATOM     18  C   UNL     1      50.434   3.570  17.779  0.00  0.00    +0.000 A 
ATOM     19  C   UNL     1      50.157   2.232  17.503  0.00  0.00    +0.000 A 
ATOM     20  N   UNL     1      51.108   1.280  17.331  0.00  0.00    +0.000 NA
ATOM     21  C   UNL     1      52.373   1.718  17.463  0.00  0.00    +0.000 A 
ATOM     22 CL   UNL     1      53.588   0.535  17.244  0.00  0.00    +0.000 Cl
ATOM     23  C   UNL     1      52.675   3.036  17.752  0.00  0.00    +0.000 A 
ATOM     24  N   UNL     1      51.716   3.983  17.916  0.00  0.00    +0.000 NA
ATOM     25  H   UNL     1      49.962   5.426  18.126  0.00  0.00    +0.000 HD
ENDBRANCH  14  17
ENDBRANCH   6  14
TORSDOF 3
ENDMDL
MODEL 5
REMARK VINA RESULT:    -6.069      2.949      3.818
REMARK INTER + INTRA:          -7.833
REMARK INTER:                  -7.961
REMARK INTRA:                   0.128
REMARK UNBOUND:                -0.700
REMARK  Name = 
REMARK  3 active torsions:
REMARK  status: ('A' for Active; 'I' for Inactive)
REMARK    1  A    between atoms: C_4  and  C_5
REMARK    2  A    between atoms: C_12  and  C_13
REMARK    3  A    between atoms: C_13  and  N_14
REMARK                            x       y       z     vdW  Elec       q    Type
REMARK                         _______ _______ _______ _____ _____    ______ ____
ROOT
ATOM      1 CL   UNL     1      49.148   8.085  12.048  0.00  0.00    +0.000 Cl
ATOM      2  C   UNL     1      47.445   7.908  11.882  0.00  0.00    +0.000 A 
ATOM      3  C   UNL     1      46.635   9.037  11.865  0.00  0.00    +0.000 A 
ATOM      4  C   UNL     1      45.244   8.913  11.756  0.00  0.00    +0.000 A 
ATOM      5  C   UNL     1      44.694   7.614  11.703  0.00  0.00    +0.000 A 
ATOM      6  C   UNL     1      45.499   6.451  11.761  0.00  0.00    +0.000 A 
ATOM      7  C   UNL     1      46.889   6.631  11.811  0.00  0.00    +0.000 A 
ENDROOT
BRANCH   4   8
ATOM      8  C   UNL     1      44.340  10.137  11.744  0.00  0.00    +0.000 C 
ATOM      9  C   UNL     1      43.128   9.964  10.810  0.00  0.00    +0.000 C 
ATOM     10  C   UNL     1      42.323  11.254  10.718  0.00  0.00    +0.000 C 
ATOM     11  O   UNL     1      43.152  12.334  10.299  0.00  0.00    +0.000 OA
ATOM     12  C   UNL     1      44.196  12.604  11.233  0.00  0.00    +0.000 C 
ATOM     13  C   UNL     1      45.125  11.404  11.362  0.00  0.00    +0.000 C 
ENDBRANCH   4   8
BRANCH   6  14
ATOM     14  C   UNL     1      44.871   5.055  11.847  0.00  0.00    +0.000 C 
ATOM     15  C   UNL     1      44.497   4.629  13.257  0.00  0.00    +0.000 C 
ATOM     16  C   UNL     1      45.608   3.924  12.564  0.00  0.00    +0.000 C 
BRANCH  14  17
ATOM     17  N   UNL     1      44.225   4.603  10.605  0.00  0.00    +0.000 N 
ATOM     18  C   UNL     1      44.889   4.254   9.431  0.00  0.00    +0.000 A 
ATOM     19  C   UNL     1      46.031   4.893   8.952  0.00  0.00    +0.000 A 
ATOM     20  N   UNL     1      46.646   4.575   7.785  0.00  0.00    +0.000 NA
ATOM     21  C   UNL     1      46.058   3.584   7.091  0.00  0.00    +0.000 A 
ATOM     22 CL   UNL     1      46.820   3.161   5.620  0.00  0.00    +0.000 Cl
ATOM     23  C   UNL     1      44.916   2.943   7.536  0.00  0.00    +0.000 A 
ATOM     24  N   UNL     1      44.311   3.266   8.709  0.00  0.00    +0.000 NA
ATOM     25  H   UNL     1      43.464   3.935  10.718  0.00  0.00    +0.000 HD
ENDBRANCH  14  17
ENDBRANCH   6  14
TORSDOF 3
ENDMDL
MODEL 6
REMARK VINA RESULT:    -5.817      4.154      6.344
REMARK INTER + INTRA:          -7.537
REMARK INTER:                  -6.739
REMARK INTRA:                  -0.798
REMARK UNBOUND:                -0.700
REMARK  Name = 
REMARK  3 active torsions:
REMARK  status: ('A' for Active; 'I' for Inactive)
REMARK    1  A    between atoms: C_4  and  C_5
REMARK    2  A    between atoms: C_12  and  C_13
REMARK    3  A    between atoms: C_13  and  N_14
REMARK                            x       y       z     vdW  Elec       q    Type
REMARK                         _______ _______ _______ _____ _____    ______ ____
ROOT
ATOM      1 CL   UNL     1      48.030  10.511  17.697  0.00  0.00    +0.000 Cl
ATOM      2  C   UNL     1      48.298   9.072  16.792  0.00  0.00    +0.000 A 
ATOM      3  C   UNL     1      48.758   7.930  17.438  0.00  0.00    +0.000 A 
ATOM      4  C   UNL     1      49.006   6.756  16.716  0.00  0.00    +0.000 A 
ATOM      5  C   UNL     1      48.812   6.781  15.318  0.00  0.00    +0.000 A 
ATOM      6  C   UNL     1      48.384   7.946  14.636  0.00  0.00    +0.000 A 
ATOM      7  C   UNL     1      48.094   9.077  15.414  0.00  0.00    +0.000 A 
ENDROOT
BRANCH   4   8
ATOM      8  C   UNL     1      49.518   5.498  17.403  0.00  0.00    +0.000 C 
ATOM      9  C   UNL     1      51.016   5.256  17.148  0.00  0.00    +0.000 C 
ATOM     10  C   UNL     1      51.460   3.922  17.734  0.00  0.00    +0.000 C 
ATOM     11  O   UNL     1      50.665   2.857  17.218  0.00  0.00    +0.000 OA
ATOM     12  C   UNL     1      49.291   2.991  17.575  0.00  0.00    +0.000 C 
ATOM     13  C   UNL     1      48.702   4.264  16.981  0.00  0.00    +0.000 C 
ENDBRANCH   4   8
BRANCH   6  14
ATOM     14  C   UNL     1      48.319   7.991  13.106  0.00  0.00    +0.000 C 
ATOM     15  C   UNL     1      49.609   7.576  12.417  0.00  0.00    +0.000 C 
ATOM     16  C   UNL     1      49.173   8.995  12.329  0.00  0.00    +0.000 C 
BRANCH  14  17
ATOM     17  N   UNL     1      46.963   7.864  12.552  0.00  0.00    +0.000 N 
ATOM     18  C   UNL     1      46.161   6.728  12.635  0.00  0.00    +0.000 A 
ATOM     19  C   UNL     1      46.637   5.420  12.551  0.00  0.00    +0.000 A 
ATOM     20  N   UNL     1      45.844   4.320  12.590  0.00  0.00    +0.000 NA
ATOM     21  C   UNL     1      44.528   4.579  12.702  0.00  0.00    +0.000 A 
ATOM     22 CL   UNL     1      43.510   3.206  12.760  0.00  0.00    +0.000 Cl
ATOM     23  C   UNL     1      44.029   5.866  12.773  0.00  0.00    +0.000 A 
ATOM     24  N   UNL     1      44.832   6.961  12.739  0.00  0.00    +0.000 NA
ATOM     25  H   UNL     1      46.348   8.664  12.695  0.00  0.00    +0.000 HD
ENDBRANCH  14  17
ENDBRANCH   6  14
TORSDOF 3
ENDMDL
MODEL 7
REMARK VINA RESULT:    -5.782      5.325      7.678
REMARK INTER + INTRA:          -7.496
REMARK INTER:                  -7.090
REMARK INTRA:                  -0.406
REMARK UNBOUND:                -0.700
REMARK  Name = 
REMARK  3 active torsions:
REMARK  status: ('A' for Active; 'I' for Inactive)
REMARK    1  A    between atoms: C_4  and  C_5
REMARK    2  A    between atoms: C_12  and  C_13
REMARK    3  A    between atoms: C_13  and  N_14
REMARK                            x       y       z     vdW  Elec       q    Type
REMARK                         _______ _______ _______ _____ _____    ______ ____
ROOT
ATOM      1 CL   UNL     1      48.269   8.363  13.840  0.00  0.00    +0.000 Cl
ATOM      2  C   UNL     1      46.815   8.451  12.926  0.00  0.00    +0.000 A 
ATOM      3  C   UNL     1      46.164   7.280  12.556  0.00  0.00    +0.000 A 
ATOM      4  C   UNL     1      44.992   7.329  11.791  0.00  0.00    +0.000 A 
ATOM      5  C   UNL     1      44.518   8.593  11.379  0.00  0.00    +0.000 A 
ATOM      6  C   UNL     1      45.190   9.795  11.711  0.00  0.00    +0.000 A 
ATOM      7  C   UNL     1      46.326   9.694  12.528  0.00  0.00    +0.000 A 
ENDROOT
BRANCH   4   8
ATOM      8  C   UNL     1      44.270   6.057  11.368  0.00  0.00    +0.000 C 
ATOM      9  C   UNL     1      43.866   5.184  12.569  0.00  0.00    +0.000 C 
ATOM     10  C   UNL     1      43.270   3.861  12.104  0.00  0.00    +0.000 C 
ATOM     11  O   UNL     1      44.177   3.177  11.244  0.00  0.00    +0.000 OA
ATOM     12  C   UNL     1      44.446   3.912  10.052  0.00  0.00    +0.000 C 
ATOM     13  C   UNL     1      45.118   5.239  10.380  0.00  0.00    +0.000 C 
ENDBRANCH   4   8
BRANCH   6  14
ATOM     14  C   UNL     1      44.739  11.141  11.134  0.00  0.00    +0.000 C 
ATOM     15  C   UNL     1      45.138  11.359   9.684  0.00  0.00    +0.000 C 
ATOM     16  C   UNL     1      45.775  12.193  10.737  0.00  0.00    +0.000 C 
BRANCH  14  17
ATOM     17  N   UNL     1      43.573  11.731  11.809  0.00  0.00    +0.000 N 
ATOM     18  C   UNL     1      42.242  11.429  11.530  0.00  0.00    +0.000 A 
ATOM     19  C   UNL     1      41.743  11.170  10.255  0.00  0.00    +0.000 A 
ATOM     20  N   UNL     1      40.437  10.919   9.987  0.00  0.00    +0.000 NA
ATOM     21  C   UNL     1      39.626  10.952  11.061  0.00  0.00    +0.000 A 
ATOM     22 CL   UNL     1      37.976  10.632  10.748  0.00  0.00    +0.000 Cl
ATOM     23  C   UNL     1      40.093  11.221  12.334  0.00  0.00    +0.000 A 
ATOM     24  N   UNL     1      41.403  11.465  12.592  0.00  0.00    +0.000 NA
ATOM     25  H   UNL     1      43.644  11.821  12.822  0.00  0.00    +0.000 HD
ENDBRANCH  14  17
ENDBRANCH   6  14
TORSDOF 3
ENDMDL
MODEL 8
REMARK VINA RESULT:    -5.754      4.331      7.281
REMARK INTER + INTRA:          -7.464
REMARK INTER:                  -6.604
REMARK INTRA:                  -0.860
REMARK UNBOUND:                -0.700
REMARK  Name = 
REMARK  3 active torsions:
REMARK  status: ('A' for Active; 'I' for Inactive)
REMARK    1  A    between atoms: C_4  and  C_5
REMARK    2  A    between atoms: C_12  and  C_13
REMARK    3  A    between atoms: C_13  and  N_14
REMARK                            x       y       z     vdW  Elec       q    Type
REMARK                         _______ _______ _______ _____ _____    ______ ____
ROOT
ATOM      1 CL   UNL     1      44.957   4.634  11.524  0.00  0.00    +0.000 Cl
ATOM      2  C   UNL     1      45.604   6.195  11.845  0.00  0.00    +0.000 A 
ATOM      3  C   UNL     1      44.789   7.314  11.727  0.00  0.00    +0.000 A 
ATOM      4  C   UNL     1      45.302   8.596  11.960  0.00  0.00    +0.000 A 
ATOM      5  C   UNL     1      46.672   8.717  12.279  0.00  0.00    +0.000 A 
ATOM      6  C   UNL     1      47.528   7.592  12.364  0.00  0.00    +0.000 A 
ATOM      7  C   UNL     1      46.951   6.327  12.179  0.00  0.00    +0.000 A 
ENDROOT
BRANCH   4   8
ATOM      8  C   UNL     1      44.428   9.835  11.827  0.00  0.00    +0.000 C 
ATOM      9  C   UNL     1      43.383   9.699  10.704  0.00  0.00    +0.000 C 
ATOM     10  C   UNL     1      42.620  11.003  10.511  0.00  0.00    +0.000 C 
ATOM     11  O   UNL     1      43.520  12.079  10.257  0.00  0.00    +0.000 OA
ATOM     12  C   UNL     1      44.400  12.313  11.354  0.00  0.00    +0.000 C 
ATOM     13  C   UNL     1      45.280  11.096  11.607  0.00  0.00    +0.000 C 
ENDBRANCH   4   8
BRANCH   6  14
ATOM     14  C   UNL     1      49.038   7.758  12.569  0.00  0.00    +0.000 C 
ATOM     15  C   UNL     1      49.598   9.064  12.029  0.00  0.00    +0.000 C 
ATOM     16  C   UNL     1      49.979   7.789  11.365  0.00  0.00    +0.000 C 
BRANCH  14  17
ATOM     17  N   UNL     1      49.587   6.978  13.689  0.00  0.00    +0.000 N 
ATOM     18  C   UNL     1      49.215   7.114  15.024  0.00  0.00    +0.000 A 
ATOM     19  C   UNL     1      48.902   8.326  15.637  0.00  0.00    +0.000 A 
ATOM     20  N   UNL     1      48.583   8.454  16.949  0.00  0.00    +0.000 NA
ATOM     21  C   UNL     1      48.603   7.304  17.648  0.00  0.00    +0.000 A 
ATOM     22 CL   UNL     1      48.197   7.440  19.303  0.00  0.00    +0.000 Cl
ATOM     23  C   UNL     1      48.924   6.090  17.069  0.00  0.00    +0.000 A 
ATOM     24  N   UNL     1      49.237   5.972  15.752  0.00  0.00    +0.000 NA
ATOM     25  H   UNL     1      49.704   5.980  13.520  0.00  0.00    +0.000 HD
ENDBRANCH  14  17
ENDBRANCH   6  14
TORSDOF 3
ENDMDL
MODEL 9
REMARK VINA RESULT:    -5.641      2.416      3.698
REMARK INTER + INTRA:          -7.330
REMARK INTER:                  -6.655
REMARK INTRA:                  -0.675
REMARK UNBOUND:                -0.700
REMARK  Name = 
REMARK  3 active torsions:
REMARK  status: ('A' for Active; 'I' for Inactive)
REMARK    1  A    between atoms: C_4  and  C_5
REMARK    2  A    between atoms: C_12  and  C_13
REMARK    3  A    between atoms: C_13  and  N_14
REMARK                            x       y       z     vdW  Elec       q    Type
REMARK                         _______ _______ _______ _____ _____    ______ ____
ROOT
ATOM      1 CL   UNL     1      50.009   6.871  15.937  0.00  0.00    +0.000 Cl
ATOM      2  C   UNL     1      49.459   7.267  14.356  0.00  0.00    +0.000 A 
ATOM      3  C   UNL     1      50.375   7.658  13.388  0.00  0.00    +0.000 A 
ATOM      4  C   UNL     1      49.945   8.009  12.102  0.00  0.00    +0.000 A 
ATOM      5  C   UNL     1      48.559   7.989  11.835  0.00  0.00    +0.000 A 
ATOM      6  C   UNL     1      47.606   7.634  12.821  0.00  0.00    +0.000 A 
ATOM      7  C   UNL     1      48.094   7.235  14.074  0.00  0.00    +0.000 A 
ENDROOT
BRANCH   4   8
ATOM      8  C   UNL     1      50.932   8.448  11.030  0.00  0.00    +0.000 C 
ATOM      9  C   UNL     1      51.586   7.255  10.309  0.00  0.00    +0.000 C 
ATOM     10  C   UNL     1      52.664   7.728   9.343  0.00  0.00    +0.000 C 
ATOM     11  O   UNL     1      53.634   8.523  10.021  0.00  0.00    +0.000 OA
ATOM     12  C   UNL     1      53.067   9.711  10.569  0.00  0.00    +0.000 C 
ATOM     13  C   UNL     1      52.013   9.371  11.615  0.00  0.00    +0.000 C 
ENDBRANCH   4   8
BRANCH   6  14
ATOM     14  C   UNL     1      46.102   7.758  12.553  0.00  0.00    +0.000 C 
ATOM     15  C   UNL     1      45.738   8.847  11.557  0.00  0.00    +0.000 C 
ATOM     16  C   UNL     1      45.346   9.016  12.981  0.00  0.00    +0.000 C 
BRANCH  14  17
ATOM     17  N   UNL     1      45.337   6.529  12.811  0.00  0.00    +0.000 N 
ATOM     18  C   UNL     1      45.216   5.455  11.933  0.00  0.00    +0.000 A 
ATOM     19  C   UNL     1      45.117   5.576  10.547  0.00  0.00    +0.000 A 
ATOM     20  N   UNL     1      44.957   4.527   9.703  0.00  0.00    +0.000 NA
ATOM     21  C   UNL     1      44.880   3.326  10.306  0.00  0.00    +0.000 A 
ATOM     22 CL   UNL     1      44.683   1.988   9.260  0.00  0.00    +0.000 Cl
ATOM     23  C   UNL     1      44.959   3.179  11.678  0.00  0.00    +0.000 A 
ATOM     24  N   UNL     1      45.126   4.236  12.515  0.00  0.00    +0.000 NA
ATOM     25  H   UNL     1      45.436   6.132  13.744  0.00  0.00    +0.000 HD
ENDBRANCH  14  17
ENDBRANCH   6  14
TORSDOF 3
ENDMDL
