MODEL 1
REMARK VINA RESULT:    -7.174      0.000      0.000
REMARK INTER + INTRA:         -11.422
REMARK INTER:                 -10.109
REMARK INTRA:                  -1.313
REMARK UNBOUND:                -1.313
REMARK  Name = 
REMARK  8 active torsions:
REMARK  status: ('A' for Active; 'I' for Inactive)
REMARK    1  A    between atoms: C_1  and  O_2
REMARK    2  A    between atoms: O_2  and  C_3
REMARK    3  A    between atoms: C_8  and  C_9
REMARK    4  A    between atoms: N_11  and  C_12
REMARK    5  A    between atoms: C_12  and  C_13
REMARK    6  A    between atoms: C_16  and  C_17
REMARK    7  A    between atoms: C_17  and  N_18
REMARK    8  A    between atoms: C_19  and  C_21
REMARK                            x       y       z     vdW  Elec       q    Type
REMARK                         _______ _______ _______ _____ _____    ______ ____
ROOT
ATOM      1  C   UNL     1      50.449   7.409  15.309  0.00  0.00    +0.000 A 
ATOM      2  C   UNL     1      49.193   6.790  15.370  0.00  0.00    +0.000 A 
ATOM      3  C   UNL     1      48.287   6.904  14.309  0.00  0.00    +0.000 A 
ATOM      4  C   UNL     1      48.627   7.620  13.153  0.00  0.00    +0.000 A 
ATOM      5  C   UNL     1      49.881   8.244  13.095  0.00  0.00    +0.000 A 
ATOM      6  C   UNL     1      50.785   8.131  14.157  0.00  0.00    +0.000 A 
ENDROOT
BRANCH   1   7
ATOM      7  C   UNL     1      51.439   7.268  16.438  0.00  0.00    +0.000 C 
BRANCH   7  10
ATOM      8  C   UNL     1      51.551   5.188  17.769  0.00  0.00    +0.000 C 
ATOM      9  O   UNL     1      51.005   5.709  18.737  0.00  0.00    +0.000 OA
ATOM     10  N   UNL     1      51.822   5.889  16.620  0.00  0.00    +0.000 N 
ATOM     11  H   UNL     1      52.270   5.402  15.851  0.00  0.00    +0.000 HD
BRANCH   8  17
ATOM     12  C   UNL     1      51.108   2.682  17.307  0.00  0.00    +0.000 A 
ATOM     13  C   UNL     1      51.541   1.354  17.451  0.00  0.00    +0.000 A 
ATOM     14  C   UNL     1      52.770   1.059  18.044  0.00  0.00    +0.000 A 
ATOM     15  C   UNL     1      53.589   2.086  18.496  0.00  0.00    +0.000 A 
ATOM     16  C   UNL     1      53.166   3.411  18.375  0.00  0.00    +0.000 A 
ATOM     17  C   UNL     1      51.924   3.729  17.796  0.00  0.00    +0.000 A 
BRANCH  12  19
ATOM     18  C   UNL     1      48.719   2.799  17.449  0.00  0.00    +0.000 C 
ATOM     19  O   UNL     1      49.917   3.020  16.714  0.00  0.00    +0.000 OA
ENDBRANCH  12  19
ENDBRANCH   8  17
ENDBRANCH   7  10
ENDBRANCH   1   7
BRANCH   4  20
ATOM     20  C   UNL     1      47.651   7.765  12.012  0.00  0.00    +0.000 C 
BRANCH  20  21
ATOM     21  N   UNL     1      46.936   6.534  11.789  0.00  0.00    +0.000 N 
ATOM     22  C   UNL     1      45.567   6.469  11.827  0.00  0.00    +0.000 C 
ATOM     23  O   UNL     1      44.870   7.464  12.009  0.00  0.00    +0.000 OA
ATOM     24  H   UNL     1      47.475   5.679  11.879  0.00  0.00    +0.000 HD
BRANCH  22  25
ATOM     25  C   UNL     1      44.974   5.148  11.580  0.00  0.00    +0.000 A 
ATOM     26  C   UNL     1      44.291   4.492  12.595  0.00  0.00    +0.000 A 
ATOM     27  S   UNL     1      43.597   3.011  12.107  0.00  0.00    +0.000 S 
ATOM     28  C   UNL     1      44.234   3.166  10.537  0.00  0.00    +0.000 A 
ATOM     29  N   UNL     1      44.021   2.207   9.594  0.00  0.00    +0.000 NA
ATOM     30  C   UNL     1      44.587   2.440   8.459  0.00  0.00    +0.000 A 
ATOM     31  N   UNL     1      45.350   3.543   8.180  0.00  0.00    +0.000 N 
ATOM     32  C   UNL     1      45.573   4.546   9.090  0.00  0.00    +0.000 A 
ATOM     33  O   UNL     1      46.238   5.536   8.794  0.00  0.00    +0.000 OA
ATOM     34  C   UNL     1      44.958   4.336  10.385  0.00  0.00    +0.000 A 
ATOM     35  H   UNL     1      45.769   3.669   7.268  0.00  0.00    +0.000 HD
ENDBRANCH  22  25
ENDBRANCH  20  21
ENDBRANCH   4  20
TORSDOF 7
ENDMDL
MODEL 2
REMARK VINA RESULT:    -6.883      2.892      8.933
REMARK INTER + INTRA:         -11.012
REMARK INTER:                  -9.908
REMARK INTRA:                  -1.104
REMARK UNBOUND:                -1.313
REMARK  Name = 
REMARK  8 active torsions:
REMARK  status: ('A' for Active; 'I' for Inactive)
REMARK    1  A    between atoms: C_1  and  O_2
REMARK    2  A    between atoms: O_2  and  C_3
REMARK    3  A    between atoms: C_8  and  C_9
REMARK    4  A    between atoms: N_11  and  C_12
REMARK    5  A    between atoms: C_12  and  C_13
REMARK    6  A    between atoms: C_16  and  C_17
REMARK    7  A    between atoms: C_17  and  N_18
REMARK    8  A    between atoms: C_19  and  C_21
REMARK                            x       y       z     vdW  Elec       q    Type
REMARK                         _______ _______ _______ _____ _____    ______ ____
ROOT
ATOM      1  C   UNL     1      47.933   7.833  13.334  0.00  0.00    +0.000 A 
ATOM      2  C   UNL     1      48.110   9.006  14.082  0.00  0.00    +0.000 A 
ATOM      3  C   UNL     1      48.471   8.944  15.433  0.00  0.00    +0.000 A 
ATOM      4  C   UNL     1      48.686   7.709  16.059  0.00  0.00    +0.000 A 
ATOM      5  C   UNL     1      48.503   6.537  15.312  0.00  0.00    +0.000 A 
ATOM      6  C   UNL     1      48.141   6.600  13.963  0.00  0.00    +0.000 A 
ENDROOT
BRANCH   1   7
ATOM      7  C   UNL     1      47.570   7.894  11.872  0.00  0.00    +0.000 C 
BRANCH   7  10
ATOM      8  C   UNL     1      45.632   6.515  11.198  0.00  0.00    +0.000 C 
ATOM      9  O   UNL     1      44.838   7.431  11.395  0.00  0.00    +0.000 OA
ATOM     10  N   UNL     1      46.978   6.654  11.434  0.00  0.00    +0.000 N 
ATOM     11  H   UNL     1      47.585   5.864  11.246  0.00  0.00    +0.000 HD
BRANCH   8  17
ATOM     12  C   UNL     1      44.487   4.207  11.416  0.00  0.00    +0.000 A 
ATOM     13  C   UNL     1      44.153   2.986  10.808  0.00  0.00    +0.000 A 
ATOM     14  C   UNL     1      44.448   2.747   9.465  0.00  0.00    +0.000 A 
ATOM     15  C   UNL     1      45.075   3.726   8.705  0.00  0.00    +0.000 A 
ATOM     16  C   UNL     1      45.428   4.940   9.298  0.00  0.00    +0.000 A 
ATOM     17  C   UNL     1      45.155   5.194  10.655  0.00  0.00    +0.000 A 
BRANCH  12  19
ATOM     18  C   UNL     1      42.904   4.989  13.035  0.00  0.00    +0.000 C 
ATOM     19  O   UNL     1      44.200   4.492  12.727  0.00  0.00    +0.000 OA
ENDBRANCH  12  19
ENDBRANCH   8  17
ENDBRANCH   7  10
ENDBRANCH   1   7
BRANCH   4  20
ATOM     20  C   UNL     1      49.057   7.631  17.520  0.00  0.00    +0.000 C 
BRANCH  20  21
ATOM     21  N   UNL     1      50.116   6.677  17.730  0.00  0.00    +0.000 N 
ATOM     22  C   UNL     1      49.951   5.566  18.515  0.00  0.00    +0.000 C 
ATOM     23  O   UNL     1      48.878   5.297  19.051  0.00  0.00    +0.000 OA
ATOM     24  H   UNL     1      51.055   6.993  17.510  0.00  0.00    +0.000 HD
BRANCH  22  25
ATOM     25  C   UNL     1      51.116   4.680  18.638  0.00  0.00    +0.000 A 
ATOM     26  C   UNL     1      52.236   5.098  19.343  0.00  0.00    +0.000 A 
ATOM     27  S   UNL     1      53.458   3.911  19.454  0.00  0.00    +0.000 S 
ATOM     28  C   UNL     1      52.556   2.815  18.516  0.00  0.00    +0.000 A 
ATOM     29  N   UNL     1      53.044   1.581  18.212  0.00  0.00    +0.000 NA
ATOM     30  C   UNL     1      52.269   0.869  17.468  0.00  0.00    +0.000 A 
ATOM     31  N   UNL     1      51.049   1.277  16.997  0.00  0.00    +0.000 N 
ATOM     32  C   UNL     1      50.505   2.502  17.294  0.00  0.00    +0.000 A 
ATOM     33  O   UNL     1      49.395   2.822  16.879  0.00  0.00    +0.000 OA
ATOM     34  C   UNL     1      51.337   3.345  18.130  0.00  0.00    +0.000 A 
ATOM     35  H   UNL     1      50.486   0.671  16.415  0.00  0.00    +0.000 HD
ENDBRANCH  22  25
ENDBRANCH  20  21
ENDBRANCH   4  20
TORSDOF 7
ENDMDL
MODEL 3
REMARK VINA RESULT:    -6.826      5.006     10.785
REMARK INTER + INTRA:         -10.932
REMARK INTER:                 -10.033
REMARK INTRA:                  -0.898
REMARK UNBOUND:                -1.313
REMARK  Name = 
REMARK  8 active torsions:
REMARK  status: ('A' for Active; 'I' for Inactive)
REMARK    1  A    between atoms: C_1  and  O_2
REMARK    2  A    between atoms: O_2  and  C_3
REMARK    3  A    between atoms: C_8  and  C_9
REMARK    4  A    between atoms: N_11  and  C_12
REMARK    5  A    between atoms: C_12  and  C_13
REMARK    6  A    between atoms: C_16  and  C_17
REMARK    7  A    between atoms: C_17  and  N_18
REMARK    8  A    between atoms: C_19  and  C_21
REMARK                            x       y       z     vdW  Elec       q    Type
REMARK                         _______ _______ _______ _____ _____    ______ ____
ROOT
ATOM      1  C   UNL     1      44.403   8.506  11.418  0.00  0.00    +0.000 A 
ATOM      2  C   UNL     1      43.816   7.267  11.126  0.00  0.00    +0.000 A 
ATOM      3  C   UNL     1      44.308   6.090  11.702  0.00  0.00    +0.000 A 
ATOM      4  C   UNL     1      45.383   6.129  12.601  0.00  0.00    +0.000 A 
ATOM      5  C   UNL     1      45.973   7.368  12.887  0.00  0.00    +0.000 A 
ATOM      6  C   UNL     1      45.481   8.544  12.310  0.00  0.00    +0.000 A 
ENDROOT
BRANCH   1   7
ATOM      7  C   UNL     1      43.860   9.780  10.822  0.00  0.00    +0.000 C 
BRANCH   7  10
ATOM      8  C   UNL     1      41.955  11.138  11.621  0.00  0.00    +0.000 C 
ATOM      9  O   UNL     1      42.667  12.115  11.838  0.00  0.00    +0.000 OA
ATOM     10  N   UNL     1      42.467   9.953  11.151  0.00  0.00    +0.000 N 
ATOM     11  H   UNL     1      41.827   9.184  10.985  0.00  0.00    +0.000 HD
BRANCH   8  17
ATOM     12  C   UNL     1      39.849  11.789  12.974  0.00  0.00    +0.000 A 
ATOM     13  C   UNL     1      38.451  11.737  13.091  0.00  0.00    +0.000 A 
ATOM     14  C   UNL     1      37.668  11.151  12.094  0.00  0.00    +0.000 A 
ATOM     15  C   UNL     1      38.268  10.614  10.962  0.00  0.00    +0.000 A 
ATOM     16  C   UNL     1      39.659  10.644  10.838  0.00  0.00    +0.000 A 
ATOM     17  C   UNL     1      40.467  11.214  11.839  0.00  0.00    +0.000 A 
BRANCH  12  19
ATOM     18  C   UNL     1      40.192  12.407  15.263  0.00  0.00    +0.000 C 
ATOM     19  O   UNL     1      40.657  12.370  13.919  0.00  0.00    +0.000 OA
ENDBRANCH  12  19
ENDBRANCH   8  17
ENDBRANCH   7  10
ENDBRANCH   1   7
BRANCH   4  20
ATOM     20  C   UNL     1      45.933   4.863  13.212  0.00  0.00    +0.000 C 
BRANCH  20  21
ATOM     21  N   UNL     1      46.576   5.140  14.471  0.00  0.00    +0.000 N 
ATOM     22  C   UNL     1      47.303   4.192  15.142  0.00  0.00    +0.000 C 
ATOM     23  O   UNL     1      47.485   3.064  14.687  0.00  0.00    +0.000 OA
ATOM     24  H   UNL     1      46.246   5.958  14.973  0.00  0.00    +0.000 HD
BRANCH  22  25
ATOM     25  C   UNL     1      47.904   4.614  16.414  0.00  0.00    +0.000 A 
ATOM     26  C   UNL     1      47.557   3.971  17.594  0.00  0.00    +0.000 A 
ATOM     27  S   UNL     1      48.412   4.536  18.959  0.00  0.00    +0.000 S 
ATOM     28  C   UNL     1      49.235   5.700  18.030  0.00  0.00    +0.000 A 
ATOM     29  N   UNL     1      50.130   6.552  18.603  0.00  0.00    +0.000 NA
ATOM     30  C   UNL     1      50.654   7.402  17.787  0.00  0.00    +0.000 A 
ATOM     31  N   UNL     1      50.365   7.481  16.450  0.00  0.00    +0.000 N 
ATOM     32  C   UNL     1      49.487   6.631  15.825  0.00  0.00    +0.000 A 
ATOM     33  O   UNL     1      49.275   6.712  14.618  0.00  0.00    +0.000 OA
ATOM     34  C   UNL     1      48.868   5.652  16.697  0.00  0.00    +0.000 A 
ATOM     35  H   UNL     1      50.809   8.173  15.862  0.00  0.00    +0.000 HD
ENDBRANCH  22  25
ENDBRANCH  20  21
ENDBRANCH   4  20
TORSDOF 7
ENDMDL
MODEL 4
REMARK VINA RESULT:    -6.515      5.640      8.841
REMARK INTER + INTRA:         -10.494
REMARK INTER:                  -9.327
REMARK INTRA:                  -1.167
REMARK UNBOUND:                -1.313
REMARK  Name = 
REMARK  8 active torsions:
REMARK  status: ('A' for Active; 'I' for Inactive)
REMARK    1  A    between atoms: C_1  and  O_2
REMARK    2  A    between atoms: O_2  and  C_3
REMARK    3  A    between atoms: C_8  and  C_9
REMARK    4  A    between atoms: N_11  and  C_12
REMARK    5  A    between atoms: C_12  and  C_13
REMARK    6  A    between atoms: C_16  and  C_17
REMARK    7  A    between atoms: C_17  and  N_18
REMARK    8  A    between atoms: C_19  and  C_21
REMARK                            x       y       z     vdW  Elec       q    Type
REMARK                         _______ _______ _______ _____ _____    ______ ____
ROOT
ATOM      1  C   UNL     1      48.245   8.036  12.250  0.00  0.00    +0.000 A 
ATOM      2  C   UNL     1      49.397   7.285  11.975  0.00  0.00    +0.000 A 
ATOM      3  C   UNL     1      50.550   7.900  11.474  0.00  0.00    +0.000 A 
ATOM      4  C   UNL     1      50.584   9.285  11.259  0.00  0.00    +0.000 A 
ATOM      5  C   UNL     1      49.430  10.035  11.528  0.00  0.00    +0.000 A 
ATOM      6  C   UNL     1      48.278   9.418  12.028  0.00  0.00    +0.000 A 
ENDROOT
BRANCH   1   7
ATOM      7  C   UNL     1      47.010   7.382  12.816  0.00  0.00    +0.000 C 
BRANCH   7  10
ATOM      8  C   UNL     1      45.594   6.318  11.091  0.00  0.00    +0.000 C 
ATOM      9  O   UNL     1      44.928   7.336  10.926  0.00  0.00    +0.000 OA
ATOM     10  N   UNL     1      46.610   6.252  12.014  0.00  0.00    +0.000 N 
ATOM     11  H   UNL     1      47.128   5.385  12.101  0.00  0.00    +0.000 HD
BRANCH   8  17
ATOM     12  C   UNL     1      44.662   3.936  10.710  0.00  0.00    +0.000 A 
ATOM     13  C   UNL     1      44.545   2.831   9.852  0.00  0.00    +0.000 A 
ATOM     14  C   UNL     1      45.060   2.870   8.555  0.00  0.00    +0.000 A 
ATOM     15  C   UNL     1      45.694   4.016   8.093  0.00  0.00    +0.000 A 
ATOM     16  C   UNL     1      45.834   5.118   8.938  0.00  0.00    +0.000 A 
ATOM     17  C   UNL     1      45.337   5.092  10.255  0.00  0.00    +0.000 A 
BRANCH  12  19
ATOM     18  C   UNL     1      43.482   2.784  12.448  0.00  0.00    +0.000 C 
ATOM     19  O   UNL     1      44.156   3.948  11.986  0.00  0.00    +0.000 OA
ENDBRANCH  12  19
ENDBRANCH   8  17
ENDBRANCH   7  10
ENDBRANCH   1   7
BRANCH   4  20
ATOM     20  C   UNL     1      51.815   9.955  10.700  0.00  0.00    +0.000 C 
BRANCH  20  21
ATOM     21  N   UNL     1      52.202   9.355   9.448  0.00  0.00    +0.000 N 
ATOM     22  C   UNL     1      53.357   8.630   9.315  0.00  0.00    +0.000 C 
ATOM     23  O   UNL     1      54.108   8.414  10.264  0.00  0.00    +0.000 OA
ATOM     24  H   UNL     1      51.743   9.714   8.618  0.00  0.00    +0.000 HD
BRANCH  22  25
ATOM     25  C   UNL     1      53.624   8.075   7.981  0.00  0.00    +0.000 A 
ATOM     26  C   UNL     1      53.784   8.923   6.894  0.00  0.00    +0.000 A 
ATOM     27  S   UNL     1      54.170   8.111   5.443  0.00  0.00    +0.000 S 
ATOM     28  C   UNL     1      54.080   6.592   6.204  0.00  0.00    +0.000 A 
ATOM     29  N   UNL     1      54.293   5.442   5.506  0.00  0.00    +0.000 NA
ATOM     30  C   UNL     1      54.161   4.365   6.201  0.00  0.00    +0.000 A 
ATOM     31  N   UNL     1      53.834   4.329   7.531  0.00  0.00    +0.000 N 
ATOM     32  C   UNL     1      53.632   5.461   8.281  0.00  0.00    +0.000 A 
ATOM     33  O   UNL     1      53.369   5.391   9.478  0.00  0.00    +0.000 OA
ATOM     34  C   UNL     1      53.768   6.704   7.548  0.00  0.00    +0.000 A 
ATOM     35  H   UNL     1      53.745   3.449   8.022  0.00  0.00    +0.000 HD
ENDBRANCH  22  25
ENDBRANCH  20  21
ENDBRANCH   4  20
TORSDOF 7
ENDMDL
MODEL 5
REMARK VINA RESULT:    -6.508      3.711      9.274
REMARK INTER + INTRA:         -10.484
REMARK INTER:                  -9.704
REMARK INTRA:                  -0.780
REMARK UNBOUND:                -1.313
REMARK  Name = 
REMARK  8 active torsions:
REMARK  status: ('A' for Active; 'I' for Inactive)
REMARK    1  A    between atoms: C_1  and  O_2
REMARK    2  A    between atoms: O_2  and  C_3
REMARK    3  A    between atoms: C_8  and  C_9
REMARK    4  A    between atoms: N_11  and  C_12
REMARK    5  A    between atoms: C_12  and  C_13
REMARK    6  A    between atoms: C_16  and  C_17
REMARK    7  A    between atoms: C_17  and  N_18
REMARK    8  A    between atoms: C_19  and  C_21
REMARK                            x       y       z     vdW  Elec       q    Type
REMARK                         _______ _______ _______ _____ _____    ______ ____
ROOT
ATOM      1  C   UNL     1      46.831   7.592  12.696  0.00  0.00    +0.000 A 
ATOM      2  C   UNL     1      46.907   8.592  13.675  0.00  0.00    +0.000 A 
ATOM      3  C   UNL     1      48.108   8.840  14.352  0.00  0.00    +0.000 A 
ATOM      4  C   UNL     1      49.263   8.109  14.047  0.00  0.00    +0.000 A 
ATOM      5  C   UNL     1      49.184   7.104  13.072  0.00  0.00    +0.000 A 
ATOM      6  C   UNL     1      47.984   6.857  12.397  0.00  0.00    +0.000 A 
ENDROOT
BRANCH   1   7
ATOM      7  C   UNL     1      45.548   7.339  11.945  0.00  0.00    +0.000 C 
BRANCH   7  10
ATOM      8  C   UNL     1      44.529   5.499  10.646  0.00  0.00    +0.000 C 
ATOM      9  O   UNL     1      43.390   5.904  10.856  0.00  0.00    +0.000 OA
ATOM     10  N   UNL     1      45.634   6.128  11.166  0.00  0.00    +0.000 N 
ATOM     11  H   UNL     1      46.550   5.750  10.954  0.00  0.00    +0.000 HD
BRANCH   8  17
ATOM     12  C   UNL     1      44.190   3.020   9.992  0.00  0.00    +0.000 A 
ATOM     13  C   UNL     1      44.541   1.957   9.144  0.00  0.00    +0.000 A 
ATOM     14  C   UNL     1      45.425   2.149   8.080  0.00  0.00    +0.000 A 
ATOM     15  C   UNL     1      45.967   3.406   7.843  0.00  0.00    +0.000 A 
ATOM     16  C   UNL     1      45.640   4.470   8.687  0.00  0.00    +0.000 A 
ATOM     17  C   UNL     1      44.764   4.293   9.774  0.00  0.00    +0.000 A 
BRANCH  12  19
ATOM     18  C   UNL     1      43.849   2.724  12.345  0.00  0.00    +0.000 C 
ATOM     19  O   UNL     1      43.312   2.882  11.038  0.00  0.00    +0.000 OA
ENDBRANCH  12  19
ENDBRANCH   8  17
ENDBRANCH   7  10
ENDBRANCH   1   7
BRANCH   4  20
ATOM     20  C   UNL     1      50.557   8.354  14.785  0.00  0.00    +0.000 C 
BRANCH  20  21
ATOM     21  N   UNL     1      50.352   8.300  16.210  0.00  0.00    +0.000 N 
ATOM     22  C   UNL     1      50.437   7.127  16.914  0.00  0.00    +0.000 C 
ATOM     23  O   UNL     1      50.734   6.062  16.377  0.00  0.00    +0.000 OA
ATOM     24  H   UNL     1      49.878   9.095  16.626  0.00  0.00    +0.000 HD
BRANCH  22  25
ATOM     25  C   UNL     1      50.206   7.221  18.361  0.00  0.00    +0.000 A 
ATOM     26  C   UNL     1      51.094   7.928  19.162  0.00  0.00    +0.000 A 
ATOM     27  S   UNL     1      50.625   8.004  20.802  0.00  0.00    +0.000 S 
ATOM     28  C   UNL     1      49.249   7.046  20.510  0.00  0.00    +0.000 A 
ATOM     29  N   UNL     1      48.399   6.711  21.520  0.00  0.00    +0.000 NA
ATOM     30  C   UNL     1      47.417   5.957  21.162  0.00  0.00    +0.000 A 
ATOM     31  N   UNL     1      47.206   5.503  19.886  0.00  0.00    +0.000 N 
ATOM     32  C   UNL     1      48.022   5.832  18.832  0.00  0.00    +0.000 A 
ATOM     33  O   UNL     1      47.785   5.432  17.696  0.00  0.00    +0.000 OA
ATOM     34  C   UNL     1      49.144   6.682  19.179  0.00  0.00    +0.000 A 
ATOM     35  H   UNL     1      46.416   4.912  19.668  0.00  0.00    +0.000 HD
ENDBRANCH  22  25
ENDBRANCH  20  21
ENDBRANCH   4  20
TORSDOF 7
ENDMDL
MODEL 6
REMARK VINA RESULT:    -6.351      2.562      3.485
REMARK INTER + INTRA:         -10.262
REMARK INTER:                  -8.699
REMARK INTRA:                  -1.563
REMARK UNBOUND:                -1.313
REMARK  Name = 
REMARK  8 active torsions:
REMARK  status: ('A' for Active; 'I' for Inactive)
REMARK    1  A    between atoms: C_1  and  O_2
REMARK    2  A    between atoms: O_2  and  C_3
REMARK    3  A    between atoms: C_8  and  C_9
REMARK    4  A    between atoms: N_11  and  C_12
REMARK    5  A    between atoms: C_12  and  C_13
REMARK    6  A    between atoms: C_16  and  C_17
REMARK    7  A    between atoms: C_17  and  N_18
REMARK    8  A    between atoms: C_19  and  C_21
REMARK                            x       y       z     vdW  Elec       q    Type
REMARK                         _______ _______ _______ _____ _____    ______ ____
ROOT
ATOM      1  C   UNL     1      50.160   8.518  15.243  0.00  0.00    +0.000 A 
ATOM      2  C   UNL     1      49.917   9.634  14.430  0.00  0.00    +0.000 A 
ATOM      3  C   UNL     1      49.182   9.510  13.246  0.00  0.00    +0.000 A 
ATOM      4  C   UNL     1      48.653   8.271  12.860  0.00  0.00    +0.000 A 
ATOM      5  C   UNL     1      48.901   7.154  13.670  0.00  0.00    +0.000 A 
ATOM      6  C   UNL     1      49.637   7.279  14.853  0.00  0.00    +0.000 A 
ENDROOT
BRANCH   1   7
ATOM      7  C   UNL     1      50.928   8.651  16.533  0.00  0.00    +0.000 C 
BRANCH   7  10
ATOM      8  C   UNL     1      49.293   8.569  18.386  0.00  0.00    +0.000 C 
ATOM      9  O   UNL     1      48.982   9.748  18.241  0.00  0.00    +0.000 OA
ATOM     10  N   UNL     1      50.254   7.968  17.610  0.00  0.00    +0.000 N 
ATOM     11  H   UNL     1      50.463   6.989  17.773  0.00  0.00    +0.000 HD
BRANCH   8  17
ATOM     12  C   UNL     1      47.971   6.480  19.146  0.00  0.00    +0.000 A 
ATOM     13  C   UNL     1      47.301   5.812  20.184  0.00  0.00    +0.000 A 
ATOM     14  C   UNL     1      47.271   6.339  21.476  0.00  0.00    +0.000 A 
ATOM     15  C   UNL     1      47.916   7.538  21.754  0.00  0.00    +0.000 A 
ATOM     16  C   UNL     1      48.574   8.222  20.730  0.00  0.00    +0.000 A 
ATOM     17  C   UNL     1      48.601   7.716  19.417  0.00  0.00    +0.000 A 
BRANCH  12  19
ATOM     18  C   UNL     1      48.672   4.731  17.666  0.00  0.00    +0.000 C 
ATOM     19  O   UNL     1      48.042   5.991  17.866  0.00  0.00    +0.000 OA
ENDBRANCH  12  19
ENDBRANCH   8  17
ENDBRANCH   7  10
ENDBRANCH   1   7
BRANCH   4  20
ATOM     20  C   UNL     1      47.876   8.123  11.575  0.00  0.00    +0.000 C 
BRANCH  20  21
ATOM     21  N   UNL     1      47.104   6.905  11.580  0.00  0.00    +0.000 N 
ATOM     22  C   UNL     1      45.733   6.912  11.579  0.00  0.00    +0.000 C 
ATOM     23  O   UNL     1      45.084   7.954  11.530  0.00  0.00    +0.000 OA
ATOM     24  H   UNL     1      47.596   6.064  11.862  0.00  0.00    +0.000 HD
BRANCH  22  25
ATOM     25  C   UNL     1      45.079   5.597  11.584  0.00  0.00    +0.000 A 
ATOM     26  C   UNL     1      44.423   5.151  12.722  0.00  0.00    +0.000 A 
ATOM     27  S   UNL     1      43.650   3.642  12.521  0.00  0.00    +0.000 S 
ATOM     28  C   UNL     1      44.214   3.504  10.922  0.00  0.00    +0.000 A 
ATOM     29  N   UNL     1      43.919   2.412  10.164  0.00  0.00    +0.000 NA
ATOM     30  C   UNL     1      44.439   2.426   8.984  0.00  0.00    +0.000 A 
ATOM     31  N   UNL     1      45.228   3.432   8.490  0.00  0.00    +0.000 N 
ATOM     32  C   UNL     1      45.533   4.561   9.208  0.00  0.00    +0.000 A 
ATOM     33  O   UNL     1      46.219   5.456   8.722  0.00  0.00    +0.000 OA
ATOM     34  C   UNL     1      44.974   4.598  10.545  0.00  0.00    +0.000 A 
ATOM     35  H   UNL     1      45.607   3.384   7.554  0.00  0.00    +0.000 HD
ENDBRANCH  22  25
ENDBRANCH  20  21
ENDBRANCH   4  20
TORSDOF 7
ENDMDL
MODEL 7
REMARK VINA RESULT:    -6.222      3.808      9.517
REMARK INTER + INTRA:         -10.081
REMARK INTER:                  -9.121
REMARK INTRA:                  -0.960
REMARK UNBOUND:                -1.313
REMARK  Name = 
REMARK  8 active torsions:
REMARK  status: ('A' for Active; 'I' for Inactive)
REMARK    1  A    between atoms: C_1  and  O_2
REMARK    2  A    between atoms: O_2  and  C_3
REMARK    3  A    between atoms: C_8  and  C_9
REMARK    4  A    between atoms: N_11  and  C_12
REMARK    5  A    between atoms: C_12  and  C_13
REMARK    6  A    between atoms: C_16  and  C_17
REMARK    7  A    between atoms: C_17  and  N_18
REMARK    8  A    between atoms: C_19  and  C_21
REMARK                            x       y       z     vdW  Elec       q    Type
REMARK                         _______ _______ _______ _____ _____    ______ ____
ROOT
ATOM      1  C   UNL     1      45.918   4.638  12.839  0.00  0.00    +0.000 A 
ATOM      2  C   UNL     1      46.783   4.403  13.917  0.00  0.00    +0.000 A 
ATOM      3  C   UNL     1      47.478   5.458  14.520  0.00  0.00    +0.000 A 
ATOM      4  C   UNL     1      47.305   6.774  14.073  0.00  0.00    +0.000 A 
ATOM      5  C   UNL     1      46.445   7.008  12.991  0.00  0.00    +0.000 A 
ATOM      6  C   UNL     1      45.752   5.953  12.388  0.00  0.00    +0.000 A 
ENDROOT
BRANCH   1   7
ATOM      7  C   UNL     1      45.147   3.509  12.204  0.00  0.00    +0.000 C 
BRANCH   7  10
ATOM      8  C   UNL     1      44.989   2.653   9.890  0.00  0.00    +0.000 C 
ATOM      9  O   UNL     1      43.777   2.480   9.974  0.00  0.00    +0.000 OA
ATOM     10  N   UNL     1      45.733   3.126  10.943  0.00  0.00    +0.000 N 
ATOM     11  H   UNL     1      46.731   3.254  10.811  0.00  0.00    +0.000 HD
BRANCH   8  17
ATOM     12  C   UNL     1      45.982   3.345   7.604  0.00  0.00    +0.000 A 
ATOM     13  C   UNL     1      46.607   2.946   6.412  0.00  0.00    +0.000 A 
ATOM     14  C   UNL     1      46.986   1.617   6.209  0.00  0.00    +0.000 A 
ATOM     15  C   UNL     1      46.753   0.668   7.196  0.00  0.00    +0.000 A 
ATOM     16  C   UNL     1      46.118   1.046   8.381  0.00  0.00    +0.000 A 
ATOM     17  C   UNL     1      45.713   2.376   8.598  0.00  0.00    +0.000 A 
BRANCH  12  19
ATOM     18  C   UNL     1      46.434   5.420   8.714  0.00  0.00    +0.000 C 
ATOM     19  O   UNL     1      45.610   4.642   7.854  0.00  0.00    +0.000 OA
ENDBRANCH  12  19
ENDBRANCH   8  17
ENDBRANCH   7  10
ENDBRANCH   1   7
BRANCH   4  20
ATOM     20  C   UNL     1      48.065   7.916  14.703  0.00  0.00    +0.000 C 
BRANCH  20  21
ATOM     21  N   UNL     1      48.662   7.508  15.949  0.00  0.00    +0.000 N 
ATOM     22  C   UNL     1      48.495   8.224  17.106  0.00  0.00    +0.000 C 
ATOM     23  O   UNL     1      47.790   9.230  17.157  0.00  0.00    +0.000 OA
ATOM     24  H   UNL     1      49.425   6.843  15.884  0.00  0.00    +0.000 HD
BRANCH  22  25
ATOM     25  C   UNL     1      49.161   7.690  18.301  0.00  0.00    +0.000 A 
ATOM     26  C   UNL     1      50.207   8.390  18.886  0.00  0.00    +0.000 A 
ATOM     27  S   UNL     1      50.804   7.665  20.311  0.00  0.00    +0.000 S 
ATOM     28  C   UNL     1      49.723   6.359  20.166  0.00  0.00    +0.000 A 
ATOM     29  N   UNL     1      49.719   5.345  21.075  0.00  0.00    +0.000 NA
ATOM     30  C   UNL     1      48.871   4.407  20.824  0.00  0.00    +0.000 A 
ATOM     31  N   UNL     1      48.026   4.387  19.745  0.00  0.00    +0.000 N 
ATOM     32  C   UNL     1      47.979   5.397  18.816  0.00  0.00    +0.000 A 
ATOM     33  O   UNL     1      47.187   5.359  17.878  0.00  0.00    +0.000 OA
ATOM     34  C   UNL     1      48.913   6.479  19.050  0.00  0.00    +0.000 A 
ATOM     35  H   UNL     1      47.383   3.621  19.602  0.00  0.00    +0.000 HD
ENDBRANCH  22  25
ENDBRANCH  20  21
ENDBRANCH   4  20
TORSDOF 7
ENDMDL
MODEL 8
REMARK VINA RESULT:    -5.864      5.064      9.619
REMARK INTER + INTRA:          -9.577
REMARK INTER:                  -8.071
REMARK INTRA:                  -1.506
REMARK UNBOUND:                -1.313
REMARK  Name = 
REMARK  8 active torsions:
REMARK  status: ('A' for Active; 'I' for Inactive)
REMARK    1  A    between atoms: C_1  and  O_2
REMARK    2  A    between atoms: O_2  and  C_3
REMARK    3  A    between atoms: C_8  and  C_9
REMARK    4  A    between atoms: N_11  and  C_12
REMARK    5  A    between atoms: C_12  and  C_13
REMARK    6  A    between atoms: C_16  and  C_17
REMARK    7  A    between atoms: C_17  and  N_18
REMARK    8  A    between atoms: C_19  and  C_21
REMARK                            x       y       z     vdW  Elec       q    Type
REMARK                         _______ _______ _______ _____ _____    ______ ____
ROOT
ATOM      1  C   UNL     1      47.962   4.519  16.760  0.00  0.00    +0.000 A 
ATOM      2  C   UNL     1      49.046   5.403  16.660  0.00  0.00    +0.000 A 
ATOM      3  C   UNL     1      49.524   6.078  17.790  0.00  0.00    +0.000 A 
ATOM      4  C   UNL     1      48.944   5.865  19.047  0.00  0.00    +0.000 A 
ATOM      5  C   UNL     1      47.856   4.986  19.145  0.00  0.00    +0.000 A 
ATOM      6  C   UNL     1      47.378   4.313  18.016  0.00  0.00    +0.000 A 
ENDROOT
BRANCH   1   7
ATOM      7  C   UNL     1      47.460   3.769  15.552  0.00  0.00    +0.000 C 
BRANCH   7  10
ATOM      8  C   UNL     1      46.937   5.320  13.699  0.00  0.00    +0.000 C 
ATOM      9  O   UNL     1      48.110   5.382  13.342  0.00  0.00    +0.000 OA
ATOM     10  N   UNL     1      46.544   4.576  14.785  0.00  0.00    +0.000 N 
ATOM     11  H   UNL     1      45.559   4.560  15.028  0.00  0.00    +0.000 HD
BRANCH   8  17
ATOM     12  C   UNL     1      44.669   5.453  12.464  0.00  0.00    +0.000 A 
ATOM     13  C   UNL     1      43.778   6.222  11.699  0.00  0.00    +0.000 A 
ATOM     14  C   UNL     1      44.044   7.563  11.418  0.00  0.00    +0.000 A 
ATOM     15  C   UNL     1      45.201   8.159  11.902  0.00  0.00    +0.000 A 
ATOM     16  C   UNL     1      46.106   7.404  12.651  0.00  0.00    +0.000 A 
ATOM     17  C   UNL     1      45.864   6.046  12.930  0.00  0.00    +0.000 A 
BRANCH  12  19
ATOM     18  C   UNL     1      44.732   3.153  11.794  0.00  0.00    +0.000 C 
ATOM     19  O   UNL     1      44.440   4.137  12.779  0.00  0.00    +0.000 OA
ENDBRANCH  12  19
ENDBRANCH   8  17
ENDBRANCH   7  10
ENDBRANCH   1   7
BRANCH   4  20
ATOM     20  C   UNL     1      49.439   6.603  20.268  0.00  0.00    +0.000 C 
BRANCH  20  21
ATOM     21  N   UNL     1      48.869   7.925  20.333  0.00  0.00    +0.000 N 
ATOM     22  C   UNL     1      47.713   8.187  21.021  0.00  0.00    +0.000 C 
ATOM     23  O   UNL     1      47.119   7.319  21.657  0.00  0.00    +0.000 OA
ATOM     24  H   UNL     1      49.192   8.588  19.636  0.00  0.00    +0.000 HD
BRANCH  22  25
ATOM     25  C   UNL     1      47.250   9.581  21.003  0.00  0.00    +0.000 A 
ATOM     26  C   UNL     1      46.761  10.166  22.163  0.00  0.00    +0.000 A 
ATOM     27  S   UNL     1      46.347  11.811  21.979  0.00  0.00    +0.000 S 
ATOM     28  C   UNL     1      46.753  11.785  20.326  0.00  0.00    +0.000 A 
ATOM     29  N   UNL     1      46.615  12.896  19.551  0.00  0.00    +0.000 NA
ATOM     30  C   UNL     1      46.929  12.724  18.313  0.00  0.00    +0.000 A 
ATOM     31  N   UNL     1      47.368  11.542  17.776  0.00  0.00    +0.000 N 
ATOM     32  C   UNL     1      47.544  10.403  18.522  0.00  0.00    +0.000 A 
ATOM     33  O   UNL     1      47.968   9.370  18.012  0.00  0.00    +0.000 OA
ATOM     34  C   UNL     1      47.206  10.541  19.924  0.00  0.00    +0.000 A 
ATOM     35  H   UNL     1      47.599  11.470  16.794  0.00  0.00    +0.000 HD
ENDBRANCH  22  25
ENDBRANCH  20  21
ENDBRANCH   4  20
TORSDOF 7
ENDMDL
MODEL 9
REMARK VINA RESULT:    -5.751      3.220      9.121
REMARK INTER + INTRA:          -9.417
REMARK INTER:                  -8.794
REMARK INTRA:                  -0.623
REMARK UNBOUND:                -1.313
REMARK  Name = 
REMARK  8 active torsions:
REMARK  status: ('A' for Active; 'I' for Inactive)
REMARK    1  A    between atoms: C_1  and  O_2
REMARK    2  A    between atoms: O_2  and  C_3
REMARK    3  A    between atoms: C_8  and  C_9
REMARK    4  A    between atoms: N_11  and  C_12
REMARK    5  A    between atoms: C_12  and  C_13
REMARK    6  A    between atoms: C_16  and  C_17
REMARK    7  A    between atoms: C_17  and  N_18
REMARK    8  A    between atoms: C_19  and  C_21
REMARK                            x       y       z     vdW  Elec       q    Type
REMARK                         _______ _______ _______ _____ _____    ______ ____
ROOT
ATOM      1  C   UNL     1      45.607   6.196  11.720  0.00  0.00    +0.000 A 
ATOM      2  C   UNL     1      46.714   5.709  12.428  0.00  0.00    +0.000 A 
ATOM      3  C   UNL     1      47.557   6.581  13.128  0.00  0.00    +0.000 A 
ATOM      4  C   UNL     1      47.296   7.958  13.154  0.00  0.00    +0.000 A 
ATOM      5  C   UNL     1      46.192   8.445  12.440  0.00  0.00    +0.000 A 
ATOM      6  C   UNL     1      45.352   7.573  11.740  0.00  0.00    +0.000 A 
ENDROOT
BRANCH   1   7
ATOM      7  C   UNL     1      44.681   5.259  10.987  0.00  0.00    +0.000 C 
BRANCH   7  10
ATOM      8  C   UNL     1      45.016   4.185   8.786  0.00  0.00    +0.000 C 
ATOM      9  O   UNL     1      43.977   4.656   8.333  0.00  0.00    +0.000 OA
ATOM     10  N   UNL     1      45.415   4.410  10.081  0.00  0.00    +0.000 N 
ATOM     11  H   UNL     1      46.287   3.998  10.396  0.00  0.00    +0.000 HD
BRANCH   8  17
ATOM     12  C   UNL     1      46.207   1.985   8.132  0.00  0.00    +0.000 A 
ATOM     13  C   UNL     1      47.122   1.336   7.286  0.00  0.00    +0.000 A 
ATOM     14  C   UNL     1      47.728   2.015   6.227  0.00  0.00    +0.000 A 
ATOM     15  C   UNL     1      47.425   3.350   5.992  0.00  0.00    +0.000 A 
ATOM     16  C   UNL     1      46.530   4.014   6.833  0.00  0.00    +0.000 A 
ATOM     17  C   UNL     1      45.921   3.352   7.916  0.00  0.00    +0.000 A 
BRANCH  12  19
ATOM     18  C   UNL     1      44.156   1.256   9.132  0.00  0.00    +0.000 C 
ATOM     19  O   UNL     1      45.574   1.353   9.173  0.00  0.00    +0.000 OA
ENDBRANCH  12  19
ENDBRANCH   8  17
ENDBRANCH   7  10
ENDBRANCH   1   7
BRANCH   4  20
ATOM     20  C   UNL     1      48.209   8.909  13.888  0.00  0.00    +0.000 C 
BRANCH  20  21
ATOM     21  N   UNL     1      48.814   8.263  15.025  0.00  0.00    +0.000 N 
ATOM     22  C   UNL     1      48.512   8.622  16.313  0.00  0.00    +0.000 C 
ATOM     23  O   UNL     1      47.676   9.485  16.573  0.00  0.00    +0.000 OA
ATOM     24  H   UNL     1      49.662   7.736  14.844  0.00  0.00    +0.000 HD
BRANCH  22  25
ATOM     25  C   UNL     1      49.203   7.877  17.373  0.00  0.00    +0.000 A 
ATOM     26  C   UNL     1      49.876   8.559  18.377  0.00  0.00    +0.000 A 
ATOM     27  S   UNL     1      50.548   7.538  19.568  0.00  0.00    +0.000 S 
ATOM     28  C   UNL     1      50.012   6.143  18.753  0.00  0.00    +0.000 A 
ATOM     29  N   UNL     1      50.275   4.899  19.241  0.00  0.00    +0.000 NA
ATOM     30  C   UNL     1      49.838   3.935  18.506  0.00  0.00    +0.000 A 
ATOM     31  N   UNL     1      49.162   4.099  17.325  0.00  0.00    +0.000 N 
ATOM     32  C   UNL     1      48.855   5.332  16.806  0.00  0.00    +0.000 A 
ATOM     33  O   UNL     1      48.221   5.440  15.759  0.00  0.00    +0.000 OA
ATOM     34  C   UNL     1      49.323   6.454  17.594  0.00  0.00    +0.000 A 
ATOM     35  H   UNL     1      48.844   3.300  16.792  0.00  0.00    +0.000 HD
ENDBRANCH  22  25
ENDBRANCH  20  21
ENDBRANCH   4  20
TORSDOF 7
ENDMDL
