MODEL 1
REMARK VINA RESULT:    -7.008      0.000      0.000
REMARK INTER + INTRA:         -10.470
REMARK INTER:                 -10.080
REMARK INTRA:                  -0.390
REMARK UNBOUND:                -0.390
REMARK  Name = 
REMARK  8 active torsions:
REMARK  status: ('A' for Active; 'I' for Inactive)
REMARK    1  A    between atoms: C_2  and  C_21
REMARK    2  A    between atoms: N_3  and  C_4
REMARK    3  A    between atoms: C_4  and  C_5
REMARK    4  A    between atoms: C_8  and  C_9
REMARK    5  A    between atoms: C_9  and  N_10
REMARK    6  A    between atoms: N_13  and  C_14
REMARK    7  A    between atoms: C_14  and  C_15
REMARK    8  A    between atoms: C_15  and  O_16
REMARK                            x       y       z     vdW  Elec       q    Type
REMARK                         _______ _______ _______ _____ _____    ______ ____
ROOT
ATOM      1  C   UNL     1      48.289   8.065  13.136  0.00  0.00    +0.000 A 
ATOM      2  C   UNL     1      47.764   8.792  14.213  0.00  0.00    +0.000 A 
ATOM      3  C   UNL     1      48.444   8.863  15.436  0.00  0.00    +0.000 A 
ATOM      4  C   UNL     1      49.680   8.224  15.614  0.00  0.00    +0.000 A 
ATOM      5  C   UNL     1      50.242   7.562  14.511  0.00  0.00    +0.000 A 
ATOM      6  C   UNL     1      49.557   7.487  13.284  0.00  0.00    +0.000 A 
ENDROOT
BRANCH   1   7
ATOM      7  C   UNL     1      47.475   7.895  11.874  0.00  0.00    +0.000 C 
BRANCH   7  10
ATOM      8  O   UNL     1      44.733   7.485  12.009  0.00  0.00    +0.000 OA
ATOM      9  C   UNL     1      45.452   6.514  11.786  0.00  0.00    +0.000 C 
ATOM     10  N   UNL     1      46.825   6.610  11.786  0.00  0.00    +0.000 N 
ATOM     11  H   UNL     1      47.376   5.846  11.411  0.00  0.00    +0.000 HD
BRANCH   9  12
ATOM     12  C   UNL     1      44.876   5.184  11.532  0.00  0.00    +0.000 A 
ATOM     13  C   UNL     1      44.117   4.553  12.510  0.00  0.00    +0.000 A 
ATOM     14  S   UNL     1      43.547   3.013  12.049  0.00  0.00    +0.000 S 
ATOM     15  C   UNL     1      44.245   3.157  10.505  0.00  0.00    +0.000 A 
ATOM     16  N   UNL     1      44.103   2.172   9.579  0.00  0.00    +0.000 NA
ATOM     17  C   UNL     1      44.654   2.434   8.437  0.00  0.00    +0.000 A 
ATOM     18  N   UNL     1      45.336   3.584   8.141  0.00  0.00    +0.000 N 
ATOM     19  C   UNL     1      45.536   4.582   9.060  0.00  0.00    +0.000 A 
ATOM     20  O   UNL     1      46.198   5.576   8.773  0.00  0.00    +0.000 OA
ATOM     21  C   UNL     1      44.923   4.356  10.352  0.00  0.00    +0.000 A 
ATOM     22  H   UNL     1      45.750   3.718   7.233  0.00  0.00    +0.000 HD
ENDBRANCH   9  12
ENDBRANCH   7  10
ENDBRANCH   1   7
BRANCH   4  23
ATOM     23  C   UNL     1      50.389   8.277  16.962  0.00  0.00    +0.000 C 
BRANCH  23  24
ATOM     24  N   UNL     1      49.763   7.463  18.024  0.00  0.00    +0.000 NA
ATOM     25  C   UNL     1      50.725   6.536  18.650  0.00  0.00    +0.000 C 
ATOM     26  C   UNL     1      51.191   5.374  17.740  0.00  0.00    +0.000 C 
ATOM     27  N   UNL     1      50.130   4.576  17.094  0.00  0.00    +0.000 NA
ATOM     28  C   UNL     1      48.924   5.363  16.776  0.00  0.00    +0.000 C 
ATOM     29  C   UNL     1      48.618   6.658  17.576  0.00  0.00    +0.000 C 
BRANCH  27  30
ATOM     30  C   UNL     1      49.898   3.297  17.794  0.00  0.00    +0.000 C 
BRANCH  30  31
ATOM     31  C   UNL     1      50.514   2.058  17.112  0.00  0.00    +0.000 C 
BRANCH  31  32
ATOM     32  O   UNL     1      49.742   1.660  15.981  0.00  0.00    +0.000 OA
ATOM     33  H   UNL     1      48.844   2.007  16.143  0.00  0.00    +0.000 HD
ENDBRANCH  31  32
ENDBRANCH  30  31
ENDBRANCH  27  30
ENDBRANCH  23  24
ENDBRANCH   4  23
TORSDOF 8
ENDMDL
MODEL 2
REMARK VINA RESULT:    -6.925      3.073      8.853
REMARK INTER + INTRA:         -10.352
REMARK INTER:                  -9.659
REMARK INTRA:                  -0.693
REMARK UNBOUND:                -0.390
REMARK  Name = 
REMARK  8 active torsions:
REMARK  status: ('A' for Active; 'I' for Inactive)
REMARK    1  A    between atoms: C_2  and  C_21
REMARK    2  A    between atoms: N_3  and  C_4
REMARK    3  A    between atoms: C_4  and  C_5
REMARK    4  A    between atoms: C_8  and  C_9
REMARK    5  A    between atoms: C_9  and  N_10
REMARK    6  A    between atoms: N_13  and  C_14
REMARK    7  A    between atoms: C_14  and  C_15
REMARK    8  A    between atoms: C_15  and  O_16
REMARK                            x       y       z     vdW  Elec       q    Type
REMARK                         _______ _______ _______ _____ _____    ______ ____
ROOT
ATOM      1  C   UNL     1      45.825   7.451  12.459  0.00  0.00    +0.000 A 
ATOM      2  C   UNL     1      46.807   6.454  12.380  0.00  0.00    +0.000 A 
ATOM      3  C   UNL     1      46.491   5.165  11.930  0.00  0.00    +0.000 A 
ATOM      4  C   UNL     1      45.188   4.838  11.527  0.00  0.00    +0.000 A 
ATOM      5  C   UNL     1      44.224   5.859  11.531  0.00  0.00    +0.000 A 
ATOM      6  C   UNL     1      44.540   7.152  11.988  0.00  0.00    +0.000 A 
ENDROOT
BRANCH   1   7
ATOM      7  C   UNL     1      46.161   8.792  13.071  0.00  0.00    +0.000 C 
BRANCH   7  10
ATOM      8  O   UNL     1      48.800   9.567  13.445  0.00  0.00    +0.000 OA
ATOM      9  C   UNL     1      48.172   9.166  14.422  0.00  0.00    +0.000 C 
ATOM     10  N   UNL     1      46.887   8.683  14.313  0.00  0.00    +0.000 N 
ATOM     11  H   UNL     1      46.335   8.545  15.152  0.00  0.00    +0.000 HD
BRANCH   9  12
ATOM     12  C   UNL     1      48.775   9.158  15.764  0.00  0.00    +0.000 A 
ATOM     13  C   UNL     1      49.001  10.354  16.435  0.00  0.00    +0.000 A 
ATOM     14  S   UNL     1      49.722  10.155  17.968  0.00  0.00    +0.000 S 
ATOM     15  C   UNL     1      49.706   8.461  17.815  0.00  0.00    +0.000 A 
ATOM     16  N   UNL     1      50.168   7.665  18.816  0.00  0.00    +0.000 NA
ATOM     17  C   UNL     1      50.059   6.397  18.577  0.00  0.00    +0.000 A 
ATOM     18  N   UNL     1      49.539   5.856  17.432  0.00  0.00    +0.000 N 
ATOM     19  C   UNL     1      49.102   6.625  16.384  0.00  0.00    +0.000 A 
ATOM     20  O   UNL     1      48.691   6.103  15.351  0.00  0.00    +0.000 OA
ATOM     21  C   UNL     1      49.178   8.054  16.601  0.00  0.00    +0.000 A 
ATOM     22  H   UNL     1      49.495   4.858  17.308  0.00  0.00    +0.000 HD
ENDBRANCH   9  12
ENDBRANCH   7  10
ENDBRANCH   1   7
BRANCH   4  23
ATOM     23  C   UNL     1      44.852   3.422  11.077  0.00  0.00    +0.000 C 
BRANCH  23  24
ATOM     24  N   UNL     1      44.185   3.332   9.762  0.00  0.00    +0.000 NA
ATOM     25  C   UNL     1      44.401   2.021   9.120  0.00  0.00    +0.000 C 
ATOM     26  C   UNL     1      45.850   1.766   8.640  0.00  0.00    +0.000 C 
ATOM     27  N   UNL     1      46.455   2.807   7.785  0.00  0.00    +0.000 NA
ATOM     28  C   UNL     1      45.981   4.167   8.103  0.00  0.00    +0.000 C 
ATOM     29  C   UNL     1      44.605   4.358   8.798  0.00  0.00    +0.000 C 
BRANCH  27  30
ATOM     30  C   UNL     1      46.427   2.433   6.357  0.00  0.00    +0.000 C 
BRANCH  30  31
ATOM     31  C   UNL     1      47.691   2.812   5.558  0.00  0.00    +0.000 C 
BRANCH  31  32
ATOM     32  O   UNL     1      48.598   1.715   5.485  0.00  0.00    +0.000 OA
ATOM     33  H   UNL     1      48.769   1.580   4.533  0.00  0.00    +0.000 HD
ENDBRANCH  31  32
ENDBRANCH  30  31
ENDBRANCH  27  30
ENDBRANCH  23  24
ENDBRANCH   4  23
TORSDOF 8
ENDMDL
MODEL 3
REMARK VINA RESULT:    -6.915      1.669      2.300
REMARK INTER + INTRA:         -10.337
REMARK INTER:                  -9.195
REMARK INTRA:                  -1.142
REMARK UNBOUND:                -0.390
REMARK  Name = 
REMARK  8 active torsions:
REMARK  status: ('A' for Active; 'I' for Inactive)
REMARK    1  A    between atoms: C_2  and  C_21
REMARK    2  A    between atoms: N_3  and  C_4
REMARK    3  A    between atoms: C_4  and  C_5
REMARK    4  A    between atoms: C_8  and  C_9
REMARK    5  A    between atoms: C_9  and  N_10
REMARK    6  A    between atoms: N_13  and  C_14
REMARK    7  A    between atoms: C_14  and  C_15
REMARK    8  A    between atoms: C_15  and  O_16
REMARK                            x       y       z     vdW  Elec       q    Type
REMARK                         _______ _______ _______ _____ _____    ______ ____
ROOT
ATOM      1  C   UNL     1      48.353   7.951  13.323  0.00  0.00    +0.000 A 
ATOM      2  C   UNL     1      47.757   8.785  14.279  0.00  0.00    +0.000 A 
ATOM      3  C   UNL     1      48.264   8.865  15.583  0.00  0.00    +0.000 A 
ATOM      4  C   UNL     1      49.394   8.128  15.966  0.00  0.00    +0.000 A 
ATOM      5  C   UNL     1      50.037   7.355  14.986  0.00  0.00    +0.000 A 
ATOM      6  C   UNL     1      49.525   7.270  13.678  0.00  0.00    +0.000 A 
ENDROOT
BRANCH   1   7
ATOM      7  C   UNL     1      47.709   7.782  11.965  0.00  0.00    +0.000 C 
BRANCH   7  10
ATOM      8  O   UNL     1      45.010   7.379  12.470  0.00  0.00    +0.000 OA
ATOM      9  C   UNL     1      45.660   6.439  12.017  0.00  0.00    +0.000 C 
ATOM     10  N   UNL     1      47.019   6.524  11.817  0.00  0.00    +0.000 N 
ATOM     11  H   UNL     1      47.486   5.811  11.268  0.00  0.00    +0.000 HD
BRANCH   9  12
ATOM     12  C   UNL     1      45.016   5.158  11.689  0.00  0.00    +0.000 A 
ATOM     13  C   UNL     1      44.257   4.493  12.644  0.00  0.00    +0.000 A 
ATOM     14  S   UNL     1      43.603   3.016  12.094  0.00  0.00    +0.000 S 
ATOM     15  C   UNL     1      44.262   3.240  10.542  0.00  0.00    +0.000 A 
ATOM     16  N   UNL     1      44.048   2.331   9.554  0.00  0.00    +0.000 NA
ATOM     17  C   UNL     1      44.578   2.650   8.416  0.00  0.00    +0.000 A 
ATOM     18  N   UNL     1      45.304   3.786   8.181  0.00  0.00    +0.000 N 
ATOM     19  C   UNL     1      45.576   4.706   9.161  0.00  0.00    +0.000 A 
ATOM     20  O   UNL     1      46.276   5.687   8.924  0.00  0.00    +0.000 OA
ATOM     21  C   UNL     1      44.991   4.415  10.452  0.00  0.00    +0.000 A 
ATOM     22  H   UNL     1      45.698   3.966   7.271  0.00  0.00    +0.000 HD
ENDBRANCH   9  12
ENDBRANCH   7  10
ENDBRANCH   1   7
BRANCH   4  23
ATOM     23  C   UNL     1      49.911   8.196  17.398  0.00  0.00    +0.000 C 
BRANCH  23  24
ATOM     24  N   UNL     1      50.008   6.891  18.084  0.00  0.00    +0.000 NA
ATOM     25  C   UNL     1      48.728   6.158  18.066  0.00  0.00    +0.000 C 
ATOM     26  C   UNL     1      47.616   6.777  18.947  0.00  0.00    +0.000 C 
ATOM     27  N   UNL     1      47.969   7.061  20.352  0.00  0.00    +0.000 NA
ATOM     28  C   UNL     1      49.385   7.434  20.531  0.00  0.00    +0.000 C 
ATOM     29  C   UNL     1      50.439   6.974  19.486  0.00  0.00    +0.000 C 
BRANCH  27  30
ATOM     30  C   UNL     1      47.455   6.026  21.270  0.00  0.00    +0.000 C 
BRANCH  30  31
ATOM     31  C   UNL     1      48.477   4.941  21.670  0.00  0.00    +0.000 C 
BRANCH  31  32
ATOM     32  O   UNL     1      48.400   3.819  20.794  0.00  0.00    +0.000 OA
ATOM     33  H   UNL     1      49.202   3.292  20.974  0.00  0.00    +0.000 HD
ENDBRANCH  31  32
ENDBRANCH  30  31
ENDBRANCH  27  30
ENDBRANCH  23  24
ENDBRANCH   4  23
TORSDOF 8
ENDMDL
MODEL 4
REMARK VINA RESULT:    -6.685      4.599      8.369
REMARK INTER + INTRA:         -10.006
REMARK INTER:                  -9.604
REMARK INTRA:                  -0.402
REMARK UNBOUND:                -0.390
REMARK  Name = 
REMARK  8 active torsions:
REMARK  status: ('A' for Active; 'I' for Inactive)
REMARK    1  A    between atoms: C_2  and  C_21
REMARK    2  A    between atoms: N_3  and  C_4
REMARK    3  A    between atoms: C_4  and  C_5
REMARK    4  A    between atoms: C_8  and  C_9
REMARK    5  A    between atoms: C_9  and  N_10
REMARK    6  A    between atoms: N_13  and  C_14
REMARK    7  A    between atoms: C_14  and  C_15
REMARK    8  A    between atoms: C_15  and  O_16
REMARK                            x       y       z     vdW  Elec       q    Type
REMARK                         _______ _______ _______ _____ _____    ______ ____
ROOT
ATOM      1  C   UNL     1      45.559   7.311  12.527  0.00  0.00    +0.000 A 
ATOM      2  C   UNL     1      44.383   7.022  11.820  0.00  0.00    +0.000 A 
ATOM      3  C   UNL     1      44.111   5.721  11.376  0.00  0.00    +0.000 A 
ATOM      4  C   UNL     1      44.996   4.666  11.640  0.00  0.00    +0.000 A 
ATOM      5  C   UNL     1      46.133   4.942  12.416  0.00  0.00    +0.000 A 
ATOM      6  C   UNL     1      46.410   6.249  12.858  0.00  0.00    +0.000 A 
ENDROOT
BRANCH   1   7
ATOM      7  C   UNL     1      45.892   8.743  12.879  0.00  0.00    +0.000 C 
BRANCH   7  10
ATOM      8  O   UNL     1      48.129   9.833  14.109  0.00  0.00    +0.000 OA
ATOM      9  C   UNL     1      48.151   9.694  12.888  0.00  0.00    +0.000 C 
ATOM     10  N   UNL     1      47.056   9.242  12.187  0.00  0.00    +0.000 N 
ATOM     11  H   UNL     1      47.167   8.956  11.221  0.00  0.00    +0.000 HD
BRANCH   9  12
ATOM     12  C   UNL     1      49.350  10.032  12.105  0.00  0.00    +0.000 A 
ATOM     13  C   UNL     1      49.707  11.361  11.913  0.00  0.00    +0.000 A 
ATOM     14  S   UNL     1      51.112  11.565  10.967  0.00  0.00    +0.000 S 
ATOM     15  C   UNL     1      51.328   9.883  10.829  0.00  0.00    +0.000 A 
ATOM     16  N   UNL     1      52.388   9.368  10.152  0.00  0.00    +0.000 NA
ATOM     17  C   UNL     1      52.445   8.074  10.162  0.00  0.00    +0.000 A 
ATOM     18  N   UNL     1      51.539   7.254  10.778  0.00  0.00    +0.000 N 
ATOM     19  C   UNL     1      50.434   7.733  11.435  0.00  0.00    +0.000 A 
ATOM     20  O   UNL     1      49.616   6.964  11.930  0.00  0.00    +0.000 OA
ATOM     21  C   UNL     1      50.327   9.176  11.478  0.00  0.00    +0.000 A 
ATOM     22  H   UNL     1      51.638   6.252  10.736  0.00  0.00    +0.000 HD
ENDBRANCH   9  12
ENDBRANCH   7  10
ENDBRANCH   1   7
BRANCH   4  23
ATOM     23  C   UNL     1      44.704   3.265  11.117  0.00  0.00    +0.000 C 
BRANCH  23  24
ATOM     24  N   UNL     1      44.056   3.221   9.790  0.00  0.00    +0.000 NA
ATOM     25  C   UNL     1      44.355   1.969   9.068  0.00  0.00    +0.000 C 
ATOM     26  C   UNL     1      45.821   1.832   8.591  0.00  0.00    +0.000 C 
ATOM     27  N   UNL     1      46.370   2.959   7.813  0.00  0.00    +0.000 NA
ATOM     28  C   UNL     1      45.814   4.265   8.211  0.00  0.00    +0.000 C 
ATOM     29  C   UNL     1      44.423   4.331   8.899  0.00  0.00    +0.000 C 
BRANCH  27  30
ATOM     30  C   UNL     1      46.378   2.677   6.364  0.00  0.00    +0.000 C 
BRANCH  30  31
ATOM     31  C   UNL     1      47.728   2.185   5.801  0.00  0.00    +0.000 C 
BRANCH  31  32
ATOM     32  O   UNL     1      48.820   2.789   6.490  0.00  0.00    +0.000 OA
ATOM     33  H   UNL     1      48.914   3.679   6.102  0.00  0.00    +0.000 HD
ENDBRANCH  31  32
ENDBRANCH  30  31
ENDBRANCH  27  30
ENDBRANCH  23  24
ENDBRANCH   4  23
TORSDOF 8
ENDMDL
MODEL 5
REMARK VINA RESULT:    -6.575      1.391      2.026
REMARK INTER + INTRA:          -9.847
REMARK INTER:                  -9.372
REMARK INTRA:                  -0.476
REMARK UNBOUND:                -0.390
REMARK  Name = 
REMARK  8 active torsions:
REMARK  status: ('A' for Active; 'I' for Inactive)
REMARK    1  A    between atoms: C_2  and  C_21
REMARK    2  A    between atoms: N_3  and  C_4
REMARK    3  A    between atoms: C_4  and  C_5
REMARK    4  A    between atoms: C_8  and  C_9
REMARK    5  A    between atoms: C_9  and  N_10
REMARK    6  A    between atoms: N_13  and  C_14
REMARK    7  A    between atoms: C_14  and  C_15
REMARK    8  A    between atoms: C_15  and  O_16
REMARK                            x       y       z     vdW  Elec       q    Type
REMARK                         _______ _______ _______ _____ _____    ______ ____
ROOT
ATOM      1  C   UNL     1      48.587   8.312  13.376  0.00  0.00    +0.000 A 
ATOM      2  C   UNL     1      47.896   8.973  14.400  0.00  0.00    +0.000 A 
ATOM      3  C   UNL     1      48.292   8.843  15.738  0.00  0.00    +0.000 A 
ATOM      4  C   UNL     1      49.402   8.062  16.091  0.00  0.00    +0.000 A 
ATOM      5  C   UNL     1      50.140   7.465  15.057  0.00  0.00    +0.000 A 
ATOM      6  C   UNL     1      49.740   7.591  13.714  0.00  0.00    +0.000 A 
ENDROOT
BRANCH   1   7
ATOM      7  C   UNL     1      48.062   8.362  11.959  0.00  0.00    +0.000 C 
BRANCH   7  10
ATOM      8  O   UNL     1      45.326   8.004  11.661  0.00  0.00    +0.000 OA
ATOM      9  C   UNL     1      46.067   7.074  11.351  0.00  0.00    +0.000 C 
ATOM     10  N   UNL     1      47.429   7.133  11.545  0.00  0.00    +0.000 N 
ATOM     11  H   UNL     1      48.024   6.441  11.104  0.00  0.00    +0.000 HD
BRANCH   9  12
ATOM     12  C   UNL     1      45.529   5.832  10.775  0.00  0.00    +0.000 A 
ATOM     13  C   UNL     1      45.779   5.513   9.446  0.00  0.00    +0.000 A 
ATOM     14  S   UNL     1      45.063   4.047   8.946  0.00  0.00    +0.000 S 
ATOM     15  C   UNL     1      44.443   3.756  10.503  0.00  0.00    +0.000 A 
ATOM     16  N   UNL     1      43.736   2.627  10.773  0.00  0.00    +0.000 NA
ATOM     17  C   UNL     1      43.359   2.521  12.008  0.00  0.00    +0.000 A 
ATOM     18  N   UNL     1      43.618   3.440  12.988  0.00  0.00    +0.000 N 
ATOM     19  C   UNL     1      44.292   4.610  12.746  0.00  0.00    +0.000 A 
ATOM     20  O   UNL     1      44.459   5.435  13.640  0.00  0.00    +0.000 OA
ATOM     21  C   UNL     1      44.759   4.776  11.386  0.00  0.00    +0.000 A 
ATOM     22  H   UNL     1      43.284   3.299  13.928  0.00  0.00    +0.000 HD
ENDBRANCH   9  12
ENDBRANCH   7  10
ENDBRANCH   1   7
BRANCH   4  23
ATOM     23  C   UNL     1      49.797   7.899  17.554  0.00  0.00    +0.000 C 
BRANCH  23  24
ATOM     24  N   UNL     1      49.011   6.894  18.299  0.00  0.00    +0.000 NA
ATOM     25  C   UNL     1      49.865   6.044  19.151  0.00  0.00    +0.000 C 
ATOM     26  C   UNL     1      50.780   5.064  18.377  0.00  0.00    +0.000 C 
ATOM     27  N   UNL     1      50.125   4.205  17.370  0.00  0.00    +0.000 NA
ATOM     28  C   UNL     1      48.969   4.851  16.720  0.00  0.00    +0.000 C 
ATOM     29  C   UNL     1      48.216   5.995  17.451  0.00  0.00    +0.000 C 
BRANCH  27  30
ATOM     30  C   UNL     1      49.898   2.837  17.876  0.00  0.00    +0.000 C 
BRANCH  30  31
ATOM     31  C   UNL     1      50.449   1.709  16.979  0.00  0.00    +0.000 C 
BRANCH  31  32
ATOM     32  O   UNL     1      49.687   1.591  15.780  0.00  0.00    +0.000 OA
ATOM     33  H   UNL     1      49.317   2.479  15.618  0.00  0.00    +0.000 HD
ENDBRANCH  31  32
ENDBRANCH  30  31
ENDBRANCH  27  30
ENDBRANCH  23  24
ENDBRANCH   4  23
TORSDOF 8
ENDMDL
MODEL 6
REMARK VINA RESULT:    -6.350      3.807      5.460
REMARK INTER + INTRA:          -9.524
REMARK INTER:                  -8.649
REMARK INTRA:                  -0.875
REMARK UNBOUND:                -0.390
REMARK  Name = 
REMARK  8 active torsions:
REMARK  status: ('A' for Active; 'I' for Inactive)
REMARK    1  A    between atoms: C_2  and  C_21
REMARK    2  A    between atoms: N_3  and  C_4
REMARK    3  A    between atoms: C_4  and  C_5
REMARK    4  A    between atoms: C_8  and  C_9
REMARK    5  A    between atoms: C_9  and  N_10
REMARK    6  A    between atoms: N_13  and  C_14
REMARK    7  A    between atoms: C_14  and  C_15
REMARK    8  A    between atoms: C_15  and  O_16
REMARK                            x       y       z     vdW  Elec       q    Type
REMARK                         _______ _______ _______ _____ _____    ______ ____
ROOT
ATOM      1  C   UNL     1      44.702   4.559  12.429  0.00  0.00    +0.000 A 
ATOM      2  C   UNL     1      45.852   4.257  13.170  0.00  0.00    +0.000 A 
ATOM      3  C   UNL     1      46.744   5.265  13.560  0.00  0.00    +0.000 A 
ATOM      4  C   UNL     1      46.505   6.608  13.236  0.00  0.00    +0.000 A 
ATOM      5  C   UNL     1      45.312   6.918  12.562  0.00  0.00    +0.000 A 
ATOM      6  C   UNL     1      44.419   5.906  12.166  0.00  0.00    +0.000 A 
ENDROOT
BRANCH   1   7
ATOM      7  C   UNL     1      43.826   3.442  11.908  0.00  0.00    +0.000 C 
BRANCH   7  10
ATOM      8  O   UNL     1      43.976   3.959   9.186  0.00  0.00    +0.000 OA
ATOM      9  C   UNL     1      44.580   2.981   9.622  0.00  0.00    +0.000 C 
ATOM     10  N   UNL     1      44.492   2.602  10.942  0.00  0.00    +0.000 N 
ATOM     11  H   UNL     1      45.147   1.920  11.308  0.00  0.00    +0.000 HD
BRANCH   9  12
ATOM     12  C   UNL     1      45.413   2.146   8.743  0.00  0.00    +0.000 A 
ATOM     13  C   UNL     1      45.279   0.763   8.761  0.00  0.00    +0.000 A 
ATOM     14  S   UNL     1      46.335  -0.043   7.692  0.00  0.00    +0.000 S 
ATOM     15  C   UNL     1      46.970   1.430   7.123  0.00  0.00    +0.000 A 
ATOM     16  N   UNL     1      47.919   1.452   6.150  0.00  0.00    +0.000 NA
ATOM     17  C   UNL     1      48.281   2.642   5.790  0.00  0.00    +0.000 A 
ATOM     18  N   UNL     1      47.786   3.805   6.316  0.00  0.00    +0.000 N 
ATOM     19  C   UNL     1      46.858   3.823   7.326  0.00  0.00    +0.000 A 
ATOM     20  O   UNL     1      46.477   4.886   7.809  0.00  0.00    +0.000 OA
ATOM     21  C   UNL     1      46.398   2.520   7.757  0.00  0.00    +0.000 A 
ATOM     22  H   UNL     1      48.121   4.699   5.996  0.00  0.00    +0.000 HD
ENDBRANCH   9  12
ENDBRANCH   7  10
ENDBRANCH   1   7
BRANCH   4  23
ATOM     23  C   UNL     1      47.504   7.688  13.633  0.00  0.00    +0.000 C 
BRANCH  23  24
ATOM     24  N   UNL     1      47.880   8.614  12.545  0.00  0.00    +0.000 NA
ATOM     25  C   UNL     1      48.678   7.945  11.499  0.00  0.00    +0.000 C 
ATOM     26  C   UNL     1      50.107   7.540  11.935  0.00  0.00    +0.000 C 
ATOM     27  N   UNL     1      50.935   8.599  12.546  0.00  0.00    +0.000 NA
ATOM     28  C   UNL     1      50.148   9.580  13.316  0.00  0.00    +0.000 C 
ATOM     29  C   UNL     1      48.645   9.789  12.986  0.00  0.00    +0.000 C 
BRANCH  27  30
ATOM     30  C   UNL     1      51.906   9.162  11.588  0.00  0.00    +0.000 C 
BRANCH  30  31
ATOM     31  C   UNL     1      52.945   8.158  11.045  0.00  0.00    +0.000 C 
BRANCH  31  32
ATOM     32  O   UNL     1      53.624   7.498  12.110  0.00  0.00    +0.000 OA
ATOM     33  H   UNL     1      52.996   7.495  12.858  0.00  0.00    +0.000 HD
ENDBRANCH  31  32
ENDBRANCH  30  31
ENDBRANCH  27  30
ENDBRANCH  23  24
ENDBRANCH   4  23
TORSDOF 8
ENDMDL
MODEL 7
REMARK VINA RESULT:    -6.337      3.364      8.485
REMARK INTER + INTRA:          -9.506
REMARK INTER:                  -8.603
REMARK INTRA:                  -0.902
REMARK UNBOUND:                -0.390
REMARK  Name = 
REMARK  8 active torsions:
REMARK  status: ('A' for Active; 'I' for Inactive)
REMARK    1  A    between atoms: C_2  and  C_21
REMARK    2  A    between atoms: N_3  and  C_4
REMARK    3  A    between atoms: C_4  and  C_5
REMARK    4  A    between atoms: C_8  and  C_9
REMARK    5  A    between atoms: C_9  and  N_10
REMARK    6  A    between atoms: N_13  and  C_14
REMARK    7  A    between atoms: C_14  and  C_15
REMARK    8  A    between atoms: C_15  and  O_16
REMARK                            x       y       z     vdW  Elec       q    Type
REMARK                         _______ _______ _______ _____ _____    ______ ____
ROOT
ATOM      1  C   UNL     1      50.611   7.595  15.162  0.00  0.00    +0.000 A 
ATOM      2  C   UNL     1      49.477   6.966  15.693  0.00  0.00    +0.000 A 
ATOM      3  C   UNL     1      48.303   6.840  14.939  0.00  0.00    +0.000 A 
ATOM      4  C   UNL     1      48.232   7.322  13.624  0.00  0.00    +0.000 A 
ATOM      5  C   UNL     1      49.393   7.881  13.067  0.00  0.00    +0.000 A 
ATOM      6  C   UNL     1      50.571   8.012  13.825  0.00  0.00    +0.000 A 
ENDROOT
BRANCH   1   7
ATOM      7  C   UNL     1      51.819   7.836  16.040  0.00  0.00    +0.000 C 
BRANCH   7  10
ATOM      8  O   UNL     1      51.562   6.644  18.533  0.00  0.00    +0.000 OA
ATOM      9  C   UNL     1      52.227   6.060  17.680  0.00  0.00    +0.000 C 
ATOM     10  N   UNL     1      52.477   6.618  16.446  0.00  0.00    +0.000 N 
ATOM     11  H   UNL     1      52.856   6.038  15.706  0.00  0.00    +0.000 HD
BRANCH   9  12
ATOM     12  C   UNL     1      52.815   4.739  17.945  0.00  0.00    +0.000 A 
ATOM     13  C   UNL     1      54.115   4.637  18.427  0.00  0.00    +0.000 A 
ATOM     14  S   UNL     1      54.637   3.030  18.659  0.00  0.00    +0.000 S 
ATOM     15  C   UNL     1      53.126   2.413  18.180  0.00  0.00    +0.000 A 
ATOM     16  N   UNL     1      52.886   1.075  18.179  0.00  0.00    +0.000 NA
ATOM     17  C   UNL     1      51.682   0.752  17.828  0.00  0.00    +0.000 A 
ATOM     18  N   UNL     1      50.704   1.642  17.474  0.00  0.00    +0.000 N 
ATOM     19  C   UNL     1      50.919   2.996  17.422  0.00  0.00    +0.000 A 
ATOM     20  O   UNL     1      50.032   3.758  17.048  0.00  0.00    +0.000 OA
ATOM     21  C   UNL     1      52.243   3.420  17.826  0.00  0.00    +0.000 A 
ATOM     22  H   UNL     1      49.789   1.321  17.200  0.00  0.00    +0.000 HD
ENDBRANCH   9  12
ENDBRANCH   7  10
ENDBRANCH   1   7
BRANCH   4  23
ATOM     23  C   UNL     1      46.936   7.212  12.830  0.00  0.00    +0.000 C 
BRANCH  23  24
ATOM     24  N   UNL     1      46.752   5.930  12.120  0.00  0.00    +0.000 NA
ATOM     25  C   UNL     1      45.876   6.071  10.941  0.00  0.00    +0.000 C 
ATOM     26  C   UNL     1      44.389   6.346  11.269  0.00  0.00    +0.000 C 
ATOM     27  N   UNL     1      43.741   5.422  12.221  0.00  0.00    +0.000 NA
ATOM     28  C   UNL     1      44.667   4.898  13.242  0.00  0.00    +0.000 C 
ATOM     29  C   UNL     1      46.191   4.853  12.948  0.00  0.00    +0.000 C 
BRANCH  27  30
ATOM     30  C   UNL     1      42.906   4.418  11.534  0.00  0.00    +0.000 C 
BRANCH  30  31
ATOM     31  C   UNL     1      43.348   2.953  11.734  0.00  0.00    +0.000 C 
BRANCH  31  32
ATOM     32  O   UNL     1      43.888   2.413  10.530  0.00  0.00    +0.000 OA
ATOM     33  H   UNL     1      43.126   2.298   9.930  0.00  0.00    +0.000 HD
ENDBRANCH  31  32
ENDBRANCH  30  31
ENDBRANCH  27  30
ENDBRANCH  23  24
ENDBRANCH   4  23
TORSDOF 8
ENDMDL
MODEL 8
REMARK VINA RESULT:    -6.258      3.951      5.811
REMARK INTER + INTRA:          -9.392
REMARK INTER:                  -8.504
REMARK INTRA:                  -0.888
REMARK UNBOUND:                -0.390
REMARK  Name = 
REMARK  8 active torsions:
REMARK  status: ('A' for Active; 'I' for Inactive)
REMARK    1  A    between atoms: C_2  and  C_21
REMARK    2  A    between atoms: N_3  and  C_4
REMARK    3  A    between atoms: C_4  and  C_5
REMARK    4  A    between atoms: C_8  and  C_9
REMARK    5  A    between atoms: C_9  and  N_10
REMARK    6  A    between atoms: N_13  and  C_14
REMARK    7  A    between atoms: C_14  and  C_15
REMARK    8  A    between atoms: C_15  and  O_16
REMARK                            x       y       z     vdW  Elec       q    Type
REMARK                         _______ _______ _______ _____ _____    ______ ____
ROOT
ATOM      1  C   UNL     1      48.013   8.388  12.358  0.00  0.00    +0.000 A 
ATOM      2  C   UNL     1      48.857   7.309  12.653  0.00  0.00    +0.000 A 
ATOM      3  C   UNL     1      50.210   7.330  12.288  0.00  0.00    +0.000 A 
ATOM      4  C   UNL     1      50.765   8.439  11.632  0.00  0.00    +0.000 A 
ATOM      5  C   UNL     1      49.937   9.551  11.409  0.00  0.00    +0.000 A 
ATOM      6  C   UNL     1      48.578   9.528  11.771  0.00  0.00    +0.000 A 
ENDROOT
BRANCH   1   7
ATOM      7  C   UNL     1      46.532   8.285  12.643  0.00  0.00    +0.000 C 
BRANCH   7  10
ATOM      8  O   UNL     1      44.266   7.622  11.184  0.00  0.00    +0.000 OA
ATOM      9  C   UNL     1      44.926   6.708  11.674  0.00  0.00    +0.000 C 
ATOM     10  N   UNL     1      46.014   6.948  12.481  0.00  0.00    +0.000 N 
ATOM     11  H   UNL     1      46.645   6.186  12.706  0.00  0.00    +0.000 HD
BRANCH   9  12
ATOM     12  C   UNL     1      44.567   5.300  11.440  0.00  0.00    +0.000 A 
ATOM     13  C   UNL     1      43.768   4.623  12.353  0.00  0.00    +0.000 A 
ATOM     14  S   UNL     1      43.470   2.997  11.930  0.00  0.00    +0.000 S 
ATOM     15  C   UNL     1      44.349   3.156  10.483  0.00  0.00    +0.000 A 
ATOM     16  N   UNL     1      44.464   2.115   9.617  0.00  0.00    +0.000 NA
ATOM     17  C   UNL     1      45.128   2.391   8.540  0.00  0.00    +0.000 A 
ATOM     18  N   UNL     1      45.690   3.606   8.257  0.00  0.00    +0.000 N 
ATOM     19  C   UNL     1      45.632   4.668   9.122  0.00  0.00    +0.000 A 
ATOM     20  O   UNL     1      46.194   5.727   8.855  0.00  0.00    +0.000 OA
ATOM     21  C   UNL     1      44.881   4.427  10.336  0.00  0.00    +0.000 A 
ATOM     22  H   UNL     1      46.205   3.749   7.402  0.00  0.00    +0.000 HD
ENDBRANCH   9  12
ENDBRANCH   7  10
ENDBRANCH   1   7
BRANCH   4  23
ATOM     23  C   UNL     1      52.228   8.432  11.207  0.00  0.00    +0.000 C 
BRANCH  23  24
ATOM     24  N   UNL     1      52.449   8.421   9.747  0.00  0.00    +0.000 NA
ATOM     25  C   UNL     1      52.146   7.106   9.150  0.00  0.00    +0.000 C 
ATOM     26  C   UNL     1      53.142   5.982   9.521  0.00  0.00    +0.000 C 
ATOM     27  N   UNL     1      54.574   6.271   9.306  0.00  0.00    +0.000 NA
ATOM     28  C   UNL     1      54.915   7.693   9.502  0.00  0.00    +0.000 C 
ATOM     29  C   UNL     1      53.815   8.777   9.338  0.00  0.00    +0.000 C 
BRANCH  27  30
ATOM     30  C   UNL     1      55.081   5.652   8.066  0.00  0.00    +0.000 C 
BRANCH  30  31
ATOM     31  C   UNL     1      54.459   6.194   6.763  0.00  0.00    +0.000 C 
BRANCH  31  32
ATOM     32  O   UNL     1      53.749   5.170   6.070  0.00  0.00    +0.000 OA
ATOM     33  H   UNL     1      54.373   4.423   5.999  0.00  0.00    +0.000 HD
ENDBRANCH  31  32
ENDBRANCH  30  31
ENDBRANCH  27  30
ENDBRANCH  23  24
ENDBRANCH   4  23
TORSDOF 8
ENDMDL
MODEL 9
REMARK VINA RESULT:    -6.222      3.824      5.624
REMARK INTER + INTRA:          -9.340
REMARK INTER:                  -8.388
REMARK INTRA:                  -0.951
REMARK UNBOUND:                -0.390
REMARK  Name = 
REMARK  8 active torsions:
REMARK  status: ('A' for Active; 'I' for Inactive)
REMARK    1  A    between atoms: C_2  and  C_21
REMARK    2  A    between atoms: N_3  and  C_4
REMARK    3  A    between atoms: C_4  and  C_5
REMARK    4  A    between atoms: C_8  and  C_9
REMARK    5  A    between atoms: C_9  and  N_10
REMARK    6  A    between atoms: N_13  and  C_14
REMARK    7  A    between atoms: C_14  and  C_15
REMARK    8  A    between atoms: C_15  and  O_16
REMARK                            x       y       z     vdW  Elec       q    Type
REMARK                         _______ _______ _______ _____ _____    ______ ____
ROOT
ATOM      1  C   UNL     1      48.054   4.632  17.306  0.00  0.00    +0.000 A 
ATOM      2  C   UNL     1      49.346   5.071  17.626  0.00  0.00    +0.000 A 
ATOM      3  C   UNL     1      49.565   5.946  18.699  0.00  0.00    +0.000 A 
ATOM      4  C   UNL     1      48.501   6.393  19.497  0.00  0.00    +0.000 A 
ATOM      5  C   UNL     1      47.219   5.889  19.224  0.00  0.00    +0.000 A 
ATOM      6  C   UNL     1      46.998   5.015  18.144  0.00  0.00    +0.000 A 
ENDROOT
BRANCH   1   7
ATOM      7  C   UNL     1      47.829   3.796  16.066  0.00  0.00    +0.000 C 
BRANCH   7  10
ATOM      8  O   UNL     1      48.394   5.760  14.188  0.00  0.00    +0.000 OA
ATOM      9  C   UNL     1      47.259   5.290  14.208  0.00  0.00    +0.000 C 
ATOM     10  N   UNL     1      46.867   4.375  15.159  0.00  0.00    +0.000 N 
ATOM     11  H   UNL     1      45.999   3.867  15.032  0.00  0.00    +0.000 HD
BRANCH   9  12
ATOM     12  C   UNL     1      46.246   5.705  13.225  0.00  0.00    +0.000 A 
ATOM     13  C   UNL     1      46.051   7.053  12.949  0.00  0.00    +0.000 A 
ATOM     14  S   UNL     1      44.826   7.348  11.799  0.00  0.00    +0.000 S 
ATOM     15  C   UNL     1      44.551   5.683  11.585  0.00  0.00    +0.000 A 
ATOM     16  N   UNL     1      43.626   5.236  10.695  0.00  0.00    +0.000 NA
ATOM     17  C   UNL     1      43.551   3.946  10.610  0.00  0.00    +0.000 A 
ATOM     18  N   UNL     1      44.309   3.068  11.336  0.00  0.00    +0.000 N 
ATOM     19  C   UNL     1      45.223   3.478  12.273  0.00  0.00    +0.000 A 
ATOM     20  O   UNL     1      45.847   2.659  12.942  0.00  0.00    +0.000 OA
ATOM     21  C   UNL     1      45.368   4.913  12.397  0.00  0.00    +0.000 A 
ATOM     22  H   UNL     1      44.191   2.073  11.228  0.00  0.00    +0.000 HD
ENDBRANCH   9  12
ENDBRANCH   7  10
ENDBRANCH   1   7
BRANCH   4  23
ATOM     23  C   UNL     1      48.750   7.373  20.636  0.00  0.00    +0.000 C 
BRANCH  23  24
ATOM     24  N   UNL     1      49.075   8.750  20.209  0.00  0.00    +0.000 NA
ATOM     25  C   UNL     1      48.888   9.727  21.299  0.00  0.00    +0.000 C 
ATOM     26  C   UNL     1      47.414   9.973  21.701  0.00  0.00    +0.000 C 
ATOM     27  N   UNL     1      46.480  10.310  20.609  0.00  0.00    +0.000 NA
ATOM     28  C   UNL     1      46.827   9.668  19.328  0.00  0.00    +0.000 C 
ATOM     29  C   UNL     1      48.292   9.229  19.061  0.00  0.00    +0.000 C 
BRANCH  27  30
ATOM     30  C   UNL     1      46.202  11.759  20.548  0.00  0.00    +0.000 C 
BRANCH  30  31
ATOM     31  C   UNL     1      44.717  12.133  20.359  0.00  0.00    +0.000 C 
BRANCH  31  32
ATOM     32  O   UNL     1      43.867  11.206  21.029  0.00  0.00    +0.000 OA
ATOM     33  H   UNL     1      44.435  10.443  21.250  0.00  0.00    +0.000 HD
ENDBRANCH  31  32
ENDBRANCH  30  31
ENDBRANCH  27  30
ENDBRANCH  23  24
ENDBRANCH   4  23
TORSDOF 8
ENDMDL
