MODEL 1
REMARK VINA RESULT:    -8.898      0.000      0.000
REMARK INTER + INTRA:         -12.704
REMARK INTER:                 -12.018
REMARK INTRA:                  -0.686
REMARK UNBOUND:                -0.686
REMARK  Name = 
REMARK  8 active torsions:
REMARK  status: ('A' for Active; 'I' for Inactive)
REMARK    1  A    between atoms: C_1  and  C_2
REMARK    2  A    between atoms: C_2  and  C_3
REMARK    3  A    between atoms: C_2  and  O_4
REMARK    4  A    between atoms: C_2  and  C_11
REMARK    5  A    between atoms: O_4  and  C_5
REMARK    6  A    between atoms: C_14  and  C_15
REMARK    7  A    between atoms: C_15  and  N_16
REMARK    8  A    between atoms: C_17  and  C_19
REMARK                            x       y       z     vdW  Elec       q    Type
REMARK                         _______ _______ _______ _____ _____    ______ ____
ROOT
ATOM      1  C   UNL     1      44.859   4.895  11.921  0.00  0.00    +0.000 A 
ATOM      2  C   UNL     1      45.520   4.198  12.950  0.00  0.00    +0.000 A 
ATOM      3  C   UNL     1      46.640   4.726  13.602  0.00  0.00    +0.000 A 
ATOM      4  C   UNL     1      47.131   5.987  13.260  0.00  0.00    +0.000 A 
ATOM      5  C   UNL     1      46.489   6.698  12.241  0.00  0.00    +0.000 A 
ATOM      6  C   UNL     1      45.371   6.162  11.582  0.00  0.00    +0.000 A 
ENDROOT
BRANCH   1   8
ATOM      7  C   UNL     1      42.409   5.211  11.616  0.00  0.00    +0.000 C 
ATOM      8  C   UNL     1      43.603   4.328  11.195  0.00  0.00    +0.000 C 
ATOM      9  C   UNL     1      43.393   2.847  11.586  0.00  0.00    +0.000 C 
BRANCH   8  10
ATOM     10  O   UNL     1      43.875   4.455   9.779  0.00  0.00    +0.000 OA
BRANCH  10  11
ATOM     11  C   UNL     1      44.733   3.644   9.089  0.00  0.00    +0.000 A 
ATOM     12  C   UNL     1      44.847   2.256   9.191  0.00  0.00    +0.000 A 
ATOM     13  C   UNL     1      45.809   1.552   8.463  0.00  0.00    +0.000 A 
ATOM     14  C   UNL     1      46.656   2.221   7.594  0.00  0.00    +0.000 A 
ATOM     15  C   UNL     1      46.538   3.599   7.453  0.00  0.00    +0.000 A 
ATOM     16  C   UNL     1      45.585   4.304   8.199  0.00  0.00    +0.000 A 
ENDBRANCH  10  11
ENDBRANCH   8  10
ENDBRANCH   1   8
BRANCH   4  17
ATOM     17  C   UNL     1      48.364   6.527  13.933  0.00  0.00    +0.000 C 
BRANCH  17  18
ATOM     18  N   UNL     1      48.128   6.754  15.337  0.00  0.00    +0.000 N 
ATOM     19  C   UNL     1      49.105   6.513  16.268  0.00  0.00    +0.000 C 
ATOM     20  O   UNL     1      50.230   6.139  15.948  0.00  0.00    +0.000 OA
ATOM     21  H   UNL     1      47.162   6.860  15.632  0.00  0.00    +0.000 HD
BRANCH  19  22
ATOM     22  C   UNL     1      48.761   6.786  17.670  0.00  0.00    +0.000 A 
ATOM     23  C   UNL     1      48.481   8.087  18.066  0.00  0.00    +0.000 A 
ATOM     24  S   UNL     1      48.043   8.224  19.708  0.00  0.00    +0.000 S 
ATOM     25  C   UNL     1      48.267   6.558  19.963  0.00  0.00    +0.000 A 
ATOM     26  N   UNL     1      48.072   6.006  21.191  0.00  0.00    +0.000 NA
ATOM     27  C   UNL     1      48.315   4.739  21.251  0.00  0.00    +0.000 A 
ATOM     28  N   UNL     1      48.730   3.973  20.192  0.00  0.00    +0.000 N 
ATOM     29  C   UNL     1      48.910   4.481  18.928  0.00  0.00    +0.000 A 
ATOM     30  O   UNL     1      49.248   3.760  17.995  0.00  0.00    +0.000 OA
ATOM     31  C   UNL     1      48.658   5.904  18.807  0.00  0.00    +0.000 A 
ATOM     32  H   UNL     1      48.899   2.984  20.303  0.00  0.00    +0.000 HD
ENDBRANCH  19  22
ENDBRANCH  17  18
ENDBRANCH   4  17
TORSDOF 6
ENDMDL
MODEL 2
REMARK VINA RESULT:    -8.227      2.040      2.406
REMARK INTER + INTRA:         -11.799
REMARK INTER:                 -10.525
REMARK INTRA:                  -1.274
REMARK UNBOUND:                -0.686
REMARK  Name = 
REMARK  8 active torsions:
REMARK  status: ('A' for Active; 'I' for Inactive)
REMARK    1  A    between atoms: C_1  and  C_2
REMARK    2  A    between atoms: C_2  and  C_3
REMARK    3  A    between atoms: C_2  and  O_4
REMARK    4  A    between atoms: C_2  and  C_11
REMARK    5  A    between atoms: O_4  and  C_5
REMARK    6  A    between atoms: C_14  and  C_15
REMARK    7  A    between atoms: C_15  and  N_16
REMARK    8  A    between atoms: C_17  and  C_19
REMARK                            x       y       z     vdW  Elec       q    Type
REMARK                         _______ _______ _______ _____ _____    ______ ____
ROOT
ATOM      1  C   UNL     1      44.887   5.429  11.781  0.00  0.00    +0.000 A 
ATOM      2  C   UNL     1      45.071   6.760  11.358  0.00  0.00    +0.000 A 
ATOM      3  C   UNL     1      46.227   7.483  11.670  0.00  0.00    +0.000 A 
ATOM      4  C   UNL     1      47.257   6.892  12.403  0.00  0.00    +0.000 A 
ATOM      5  C   UNL     1      47.096   5.570  12.832  0.00  0.00    +0.000 A 
ATOM      6  C   UNL     1      45.931   4.850  12.526  0.00  0.00    +0.000 A 
ENDROOT
BRANCH   1   8
ATOM      7  C   UNL     1      42.401   5.425  11.929  0.00  0.00    +0.000 C 
ATOM      8  C   UNL     1      43.611   4.606  11.430  0.00  0.00    +0.000 C 
ATOM      9  C   UNL     1      43.683   3.215  12.100  0.00  0.00    +0.000 C 
BRANCH   8  10
ATOM     10  O   UNL     1      43.603   4.486   9.988  0.00  0.00    +0.000 OA
BRANCH  10  11
ATOM     11  C   UNL     1      44.482   3.713   9.281  0.00  0.00    +0.000 A 
ATOM     12  C   UNL     1      44.614   2.323   9.333  0.00  0.00    +0.000 A 
ATOM     13  C   UNL     1      45.596   1.660   8.593  0.00  0.00    +0.000 A 
ATOM     14  C   UNL     1      46.444   2.372   7.761  0.00  0.00    +0.000 A 
ATOM     15  C   UNL     1      46.309   3.753   7.668  0.00  0.00    +0.000 A 
ATOM     16  C   UNL     1      45.337   4.417   8.427  0.00  0.00    +0.000 A 
ENDBRANCH  10  11
ENDBRANCH   8  10
ENDBRANCH   1   8
BRANCH   4  17
ATOM     17  C   UNL     1      48.476   7.691  12.775  0.00  0.00    +0.000 C 
BRANCH  17  18
ATOM     18  N   UNL     1      49.267   6.998  13.762  0.00  0.00    +0.000 N 
ATOM     19  C   UNL     1      49.677   7.625  14.910  0.00  0.00    +0.000 C 
ATOM     20  O   UNL     1      49.356   8.782  15.169  0.00  0.00    +0.000 OA
ATOM     21  H   UNL     1      49.707   6.129  13.474  0.00  0.00    +0.000 HD
BRANCH  19  22
ATOM     22  C   UNL     1      50.471   6.824  15.851  0.00  0.00    +0.000 A 
ATOM     23  C   UNL     1      51.829   7.080  15.992  0.00  0.00    +0.000 A 
ATOM     24  S   UNL     1      52.591   6.104  17.164  0.00  0.00    +0.000 S 
ATOM     25  C   UNL     1      51.147   5.265  17.484  0.00  0.00    +0.000 A 
ATOM     26  N   UNL     1      51.111   4.257  18.397  0.00  0.00    +0.000 NA
ATOM     27  C   UNL     1      49.960   3.682  18.511  0.00  0.00    +0.000 A 
ATOM     28  N   UNL     1      48.841   4.027  17.798  0.00  0.00    +0.000 N 
ATOM     29  C   UNL     1      48.822   5.056  16.888  0.00  0.00    +0.000 A 
ATOM     30  O   UNL     1      47.795   5.361  16.293  0.00  0.00    +0.000 OA
ATOM     31  C   UNL     1      50.094   5.732  16.715  0.00  0.00    +0.000 A 
ATOM     32  H   UNL     1      47.968   3.539  17.937  0.00  0.00    +0.000 HD
ENDBRANCH  19  22
ENDBRANCH  17  18
ENDBRANCH   4  17
TORSDOF 6
ENDMDL
MODEL 3
REMARK VINA RESULT:    -7.835      1.663      2.422
REMARK INTER + INTRA:         -11.268
REMARK INTER:                 -10.469
REMARK INTRA:                  -0.800
REMARK UNBOUND:                -0.686
REMARK  Name = 
REMARK  8 active torsions:
REMARK  status: ('A' for Active; 'I' for Inactive)
REMARK    1  A    between atoms: C_1  and  C_2
REMARK    2  A    between atoms: C_2  and  C_3
REMARK    3  A    between atoms: C_2  and  O_4
REMARK    4  A    between atoms: C_2  and  C_11
REMARK    5  A    between atoms: O_4  and  C_5
REMARK    6  A    between atoms: C_14  and  C_15
REMARK    7  A    between atoms: C_15  and  N_16
REMARK    8  A    between atoms: C_17  and  C_19
REMARK                            x       y       z     vdW  Elec       q    Type
REMARK                         _______ _______ _______ _____ _____    ______ ____
ROOT
ATOM      1  C   UNL     1      44.899   5.148  11.819  0.00  0.00    +0.000 A 
ATOM      2  C   UNL     1      45.365   6.405  11.388  0.00  0.00    +0.000 A 
ATOM      3  C   UNL     1      46.544   6.969  11.887  0.00  0.00    +0.000 A 
ATOM      4  C   UNL     1      47.316   6.282  12.826  0.00  0.00    +0.000 A 
ATOM      5  C   UNL     1      46.872   5.031  13.267  0.00  0.00    +0.000 A 
ATOM      6  C   UNL     1      45.684   4.472  12.772  0.00  0.00    +0.000 A 
ENDROOT
BRANCH   1   8
ATOM      7  C   UNL     1      42.421   5.384  11.738  0.00  0.00    +0.000 C 
ATOM      8  C   UNL     1      43.595   4.501  11.262  0.00  0.00    +0.000 C 
ATOM      9  C   UNL     1      43.470   3.048  11.773  0.00  0.00    +0.000 C 
BRANCH   8  10
ATOM     10  O   UNL     1      43.723   4.533   9.821  0.00  0.00    +0.000 OA
BRANCH  10  11
ATOM     11  C   UNL     1      44.674   3.843   9.122  0.00  0.00    +0.000 A 
ATOM     12  C   UNL     1      45.651   4.373   8.277  0.00  0.00    +0.000 A 
ATOM     13  C   UNL     1      46.533   3.545   7.577  0.00  0.00    +0.000 A 
ATOM     14  C   UNL     1      46.474   2.169   7.736  0.00  0.00    +0.000 A 
ATOM     15  C   UNL     1      45.530   1.621   8.598  0.00  0.00    +0.000 A 
ATOM     16  C   UNL     1      44.634   2.454   9.282  0.00  0.00    +0.000 A 
ENDBRANCH  10  11
ENDBRANCH   8  10
ENDBRANCH   1   8
BRANCH   4  17
ATOM     17  C   UNL     1      48.558   6.915  13.394  0.00  0.00    +0.000 C 
BRANCH  17  18
ATOM     18  N   UNL     1      48.881   6.354  14.682  0.00  0.00    +0.000 N 
ATOM     19  C   UNL     1      48.783   7.103  15.826  0.00  0.00    +0.000 C 
ATOM     20  O   UNL     1      48.377   8.262  15.812  0.00  0.00    +0.000 OA
ATOM     21  H   UNL     1      49.405   5.485  14.689  0.00  0.00    +0.000 HD
BRANCH  19  22
ATOM     22  C   UNL     1      49.129   6.430  17.086  0.00  0.00    +0.000 A 
ATOM     23  C   UNL     1      48.139   6.197  18.031  0.00  0.00    +0.000 A 
ATOM     24  S   UNL     1      48.693   5.355  19.408  0.00  0.00    +0.000 S 
ATOM     25  C   UNL     1      50.286   5.324  18.815  0.00  0.00    +0.000 A 
ATOM     26  N   UNL     1      51.289   4.753  19.535  0.00  0.00    +0.000 NA
ATOM     27  C   UNL     1      52.455   4.835  18.984  0.00  0.00    +0.000 A 
ATOM     28  N   UNL     1      52.707   5.431  17.776  0.00  0.00    +0.000 N 
ATOM     29  C   UNL     1      51.721   5.994  17.000  0.00  0.00    +0.000 A 
ATOM     30  O   UNL     1      51.976   6.488  15.907  0.00  0.00    +0.000 OA
ATOM     31  C   UNL     1      50.392   5.936  17.577  0.00  0.00    +0.000 A 
ATOM     32  H   UNL     1      53.642   5.459  17.397  0.00  0.00    +0.000 HD
ENDBRANCH  19  22
ENDBRANCH  17  18
ENDBRANCH   4  17
TORSDOF 6
ENDMDL
MODEL 4
REMARK VINA RESULT:    -7.301      2.251      2.730
REMARK INTER + INTRA:         -10.547
REMARK INTER:                 -10.072
REMARK INTRA:                  -0.475
REMARK UNBOUND:                -0.686
REMARK  Name = 
REMARK  8 active torsions:
REMARK  status: ('A' for Active; 'I' for Inactive)
REMARK    1  A    between atoms: C_1  and  C_2
REMARK    2  A    between atoms: C_2  and  C_3
REMARK    3  A    between atoms: C_2  and  O_4
REMARK    4  A    between atoms: C_2  and  C_11
REMARK    5  A    between atoms: O_4  and  C_5
REMARK    6  A    between atoms: C_14  and  C_15
REMARK    7  A    between atoms: C_15  and  N_16
REMARK    8  A    between atoms: C_17  and  C_19
REMARK                            x       y       z     vdW  Elec       q    Type
REMARK                         _______ _______ _______ _____ _____    ______ ____
ROOT
ATOM      1  C   UNL     1      45.196   4.997  11.959  0.00  0.00    +0.000 A 
ATOM      2  C   UNL     1      45.655   4.188  13.015  0.00  0.00    +0.000 A 
ATOM      3  C   UNL     1      46.715   4.579  13.841  0.00  0.00    +0.000 A 
ATOM      4  C   UNL     1      47.345   5.810  13.651  0.00  0.00    +0.000 A 
ATOM      5  C   UNL     1      46.903   6.631  12.608  0.00  0.00    +0.000 A 
ATOM      6  C   UNL     1      45.846   6.232  11.775  0.00  0.00    +0.000 A 
ENDROOT
BRANCH   1   8
ATOM      7  C   UNL     1      42.836   5.533  11.371  0.00  0.00    +0.000 C 
ATOM      8  C   UNL     1      44.008   4.583  11.039  0.00  0.00    +0.000 C 
ATOM      9  C   UNL     1      43.640   3.102  11.290  0.00  0.00    +0.000 C 
BRANCH   8  10
ATOM     10  O   UNL     1      44.472   4.778   9.682  0.00  0.00    +0.000 OA
BRANCH  10  11
ATOM     11  C   UNL     1      45.169   3.841   8.971  0.00  0.00    +0.000 A 
ATOM     12  C   UNL     1      45.170   2.459   9.171  0.00  0.00    +0.000 A 
ATOM     13  C   UNL     1      45.975   1.615   8.401  0.00  0.00    +0.000 A 
ATOM     14  C   UNL     1      46.771   2.136   7.395  0.00  0.00    +0.000 A 
ATOM     15  C   UNL     1      46.761   3.507   7.157  0.00  0.00    +0.000 A 
ATOM     16  C   UNL     1      45.968   4.352   7.944  0.00  0.00    +0.000 A 
ENDBRANCH  10  11
ENDBRANCH   8  10
ENDBRANCH   1   8
BRANCH   4  17
ATOM     17  C   UNL     1      48.515   6.202  14.512  0.00  0.00    +0.000 C 
BRANCH  17  18
ATOM     18  N   UNL     1      48.229   7.405  15.255  0.00  0.00    +0.000 N 
ATOM     19  C   UNL     1      49.238   8.210  15.716  0.00  0.00    +0.000 C 
ATOM     20  O   UNL     1      50.419   7.970  15.483  0.00  0.00    +0.000 OA
ATOM     21  H   UNL     1      47.290   7.505  15.628  0.00  0.00    +0.000 HD
BRANCH  19  22
ATOM     22  C   UNL     1      48.834   9.415  16.454  0.00  0.00    +0.000 A 
ATOM     23  C   UNL     1      49.153  10.667  15.947  0.00  0.00    +0.000 A 
ATOM     24  S   UNL     1      48.562  11.959  16.891  0.00  0.00    +0.000 S 
ATOM     25  C   UNL     1      47.909  10.890  18.042  0.00  0.00    +0.000 A 
ATOM     26  N   UNL     1      47.267  11.359  19.146  0.00  0.00    +0.000 NA
ATOM     27  C   UNL     1      46.856  10.439  19.954  0.00  0.00    +0.000 A 
ATOM     28  N   UNL     1      47.024   9.093  19.755  0.00  0.00    +0.000 N 
ATOM     29  C   UNL     1      47.639   8.573  18.641  0.00  0.00    +0.000 A 
ATOM     30  O   UNL     1      47.741   7.362  18.478  0.00  0.00    +0.000 OA
ATOM     31  C   UNL     1      48.128   9.566  17.703  0.00  0.00    +0.000 A 
ATOM     32  H   UNL     1      46.675   8.423  20.424  0.00  0.00    +0.000 HD
ENDBRANCH  19  22
ENDBRANCH  17  18
ENDBRANCH   4  17
TORSDOF 6
ENDMDL
MODEL 5
REMARK VINA RESULT:    -7.198      3.571      9.874
REMARK INTER + INTRA:         -10.408
REMARK INTER:                  -9.252
REMARK INTRA:                  -1.156
REMARK UNBOUND:                -0.686
REMARK  Name = 
REMARK  8 active torsions:
REMARK  status: ('A' for Active; 'I' for Inactive)
REMARK    1  A    between atoms: C_1  and  C_2
REMARK    2  A    between atoms: C_2  and  C_3
REMARK    3  A    between atoms: C_2  and  O_4
REMARK    4  A    between atoms: C_2  and  C_11
REMARK    5  A    between atoms: O_4  and  C_5
REMARK    6  A    between atoms: C_14  and  C_15
REMARK    7  A    between atoms: C_15  and  N_16
REMARK    8  A    between atoms: C_17  and  C_19
REMARK                            x       y       z     vdW  Elec       q    Type
REMARK                         _______ _______ _______ _____ _____    ______ ____
ROOT
ATOM      1  C   UNL     1      51.323   4.808  17.794  0.00  0.00    +0.000 A 
ATOM      2  C   UNL     1      50.316   5.711  17.405  0.00  0.00    +0.000 A 
ATOM      3  C   UNL     1      49.045   5.280  17.011  0.00  0.00    +0.000 A 
ATOM      4  C   UNL     1      48.726   3.921  17.012  0.00  0.00    +0.000 A 
ATOM      5  C   UNL     1      49.711   3.005  17.396  0.00  0.00    +0.000 A 
ATOM      6  C   UNL     1      50.989   3.440  17.782  0.00  0.00    +0.000 A 
ENDROOT
BRANCH   1   8
ATOM      7  C   UNL     1      52.951   6.687  17.665  0.00  0.00    +0.000 C 
ATOM      8  C   UNL     1      52.739   5.274  18.249  0.00  0.00    +0.000 C 
ATOM      9  C   UNL     1      53.807   4.275  17.749  0.00  0.00    +0.000 C 
BRANCH   8  10
ATOM     10  O   UNL     1      52.698   5.306  19.696  0.00  0.00    +0.000 OA
BRANCH  10  11
ATOM     11  C   UNL     1      51.667   5.839  20.419  0.00  0.00    +0.000 A 
ATOM     12  C   UNL     1      51.346   7.191  20.560  0.00  0.00    +0.000 A 
ATOM     13  C   UNL     1      50.292   7.605  21.378  0.00  0.00    +0.000 A 
ATOM     14  C   UNL     1      49.519   6.670  22.047  0.00  0.00    +0.000 A 
ATOM     15  C   UNL     1      49.800   5.317  21.896  0.00  0.00    +0.000 A 
ATOM     16  C   UNL     1      50.871   4.907  21.091  0.00  0.00    +0.000 A 
ENDBRANCH  10  11
ENDBRANCH   8  10
ENDBRANCH   1   8
BRANCH   4  17
ATOM     17  C   UNL     1      47.373   3.461  16.542  0.00  0.00    +0.000 C 
BRANCH  17  18
ATOM     18  N   UNL     1      46.780   4.427  15.650  0.00  0.00    +0.000 N 
ATOM     19  C   UNL     1      46.750   4.217  14.296  0.00  0.00    +0.000 C 
ATOM     20  O   UNL     1      47.183   3.187  13.788  0.00  0.00    +0.000 OA
ATOM     21  H   UNL     1      46.611   5.356  16.023  0.00  0.00    +0.000 HD
BRANCH  19  22
ATOM     22  C   UNL     1      46.116   5.263  13.481  0.00  0.00    +0.000 A 
ATOM     23  C   UNL     1      46.775   6.468  13.279  0.00  0.00    +0.000 A 
ATOM     24  S   UNL     1      45.932   7.548  12.264  0.00  0.00    +0.000 S 
ATOM     25  C   UNL     1      44.629   6.467  12.106  0.00  0.00    +0.000 A 
ATOM     26  N   UNL     1      43.536   6.793  11.364  0.00  0.00    +0.000 NA
ATOM     27  C   UNL     1      42.606   5.897  11.362  0.00  0.00    +0.000 A 
ATOM     28  N   UNL     1      42.673   4.701  12.029  0.00  0.00    +0.000 N 
ATOM     29  C   UNL     1      43.768   4.316  12.765  0.00  0.00    +0.000 A 
ATOM     30  O   UNL     1      43.810   3.224  13.320  0.00  0.00    +0.000 OA
ATOM     31  C   UNL     1      44.841   5.292  12.807  0.00  0.00    +0.000 A 
ATOM     32  H   UNL     1      41.912   4.040  11.984  0.00  0.00    +0.000 HD
ENDBRANCH  19  22
ENDBRANCH  17  18
ENDBRANCH   4  17
TORSDOF 6
ENDMDL
MODEL 6
REMARK VINA RESULT:    -7.179      3.577      8.975
REMARK INTER + INTRA:         -10.382
REMARK INTER:                  -8.906
REMARK INTRA:                  -1.476
REMARK UNBOUND:                -0.686
REMARK  Name = 
REMARK  8 active torsions:
REMARK  status: ('A' for Active; 'I' for Inactive)
REMARK    1  A    between atoms: C_1  and  C_2
REMARK    2  A    between atoms: C_2  and  C_3
REMARK    3  A    between atoms: C_2  and  O_4
REMARK    4  A    between atoms: C_2  and  C_11
REMARK    5  A    between atoms: O_4  and  C_5
REMARK    6  A    between atoms: C_14  and  C_15
REMARK    7  A    between atoms: C_15  and  N_16
REMARK    8  A    between atoms: C_17  and  C_19
REMARK                            x       y       z     vdW  Elec       q    Type
REMARK                         _______ _______ _______ _____ _____    ______ ____
ROOT
ATOM      1  C   UNL     1      49.619   8.027  15.923  0.00  0.00    +0.000 A 
ATOM      2  C   UNL     1      48.426   8.747  15.721  0.00  0.00    +0.000 A 
ATOM      3  C   UNL     1      47.742   8.721  14.502  0.00  0.00    +0.000 A 
ATOM      4  C   UNL     1      48.217   7.952  13.438  0.00  0.00    +0.000 A 
ATOM      5  C   UNL     1      49.400   7.226  13.617  0.00  0.00    +0.000 A 
ATOM      6  C   UNL     1      50.090   7.262  14.838  0.00  0.00    +0.000 A 
ENDROOT
BRANCH   1   8
ATOM      7  C   UNL     1      50.381   9.494  17.785  0.00  0.00    +0.000 C 
ATOM      8  C   UNL     1      50.386   8.035  17.279  0.00  0.00    +0.000 C 
ATOM      9  C   UNL     1      51.821   7.497  17.076  0.00  0.00    +0.000 C 
BRANCH   8  10
ATOM     10  O   UNL     1      49.631   7.172  18.164  0.00  0.00    +0.000 OA
BRANCH  10  11
ATOM     11  C   UNL     1      49.357   5.859  17.900  0.00  0.00    +0.000 A 
ATOM     12  C   UNL     1      50.272   4.808  17.807  0.00  0.00    +0.000 A 
ATOM     13  C   UNL     1      49.861   3.515  17.476  0.00  0.00    +0.000 A 
ATOM     14  C   UNL     1      48.520   3.242  17.263  0.00  0.00    +0.000 A 
ATOM     15  C   UNL     1      47.587   4.266  17.382  0.00  0.00    +0.000 A 
ATOM     16  C   UNL     1      48.005   5.566  17.694  0.00  0.00    +0.000 A 
ENDBRANCH  10  11
ENDBRANCH   8  10
ENDBRANCH   1   8
BRANCH   4  17
ATOM     17  C   UNL     1      47.501   7.966  12.115  0.00  0.00    +0.000 C 
BRANCH  17  18
ATOM     18  N   UNL     1      46.844   6.705  11.869  0.00  0.00    +0.000 N 
ATOM     19  C   UNL     1      45.486   6.577  12.001  0.00  0.00    +0.000 C 
ATOM     20  O   UNL     1      44.767   7.530  12.287  0.00  0.00    +0.000 OA
ATOM     21  H   UNL     1      47.431   5.878  11.838  0.00  0.00    +0.000 HD
BRANCH  19  22
ATOM     22  C   UNL     1      44.920   5.250  11.720  0.00  0.00    +0.000 A 
ATOM     23  C   UNL     1      44.249   4.566  12.725  0.00  0.00    +0.000 A 
ATOM     24  S   UNL     1      43.602   3.071  12.220  0.00  0.00    +0.000 S 
ATOM     25  C   UNL     1      44.246   3.258  10.657  0.00  0.00    +0.000 A 
ATOM     26  N   UNL     1      44.070   2.299   9.709  0.00  0.00    +0.000 NA
ATOM     27  C   UNL     1      44.644   2.553   8.580  0.00  0.00    +0.000 A 
ATOM     28  N   UNL     1      45.374   3.682   8.313  0.00  0.00    +0.000 N 
ATOM     29  C   UNL     1      45.553   4.691   9.229  0.00  0.00    +0.000 A 
ATOM     30  O   UNL     1      46.181   5.705   8.945  0.00  0.00    +0.000 OA
ATOM     31  C   UNL     1      44.933   4.452  10.519  0.00  0.00    +0.000 A 
ATOM     32  H   UNL     1      45.795   3.824   7.407  0.00  0.00    +0.000 HD
ENDBRANCH  19  22
ENDBRANCH  17  18
ENDBRANCH   4  17
TORSDOF 6
ENDMDL
MODEL 7
REMARK VINA RESULT:    -7.156      3.545      9.514
REMARK INTER + INTRA:         -10.352
REMARK INTER:                  -9.122
REMARK INTRA:                  -1.229
REMARK UNBOUND:                -0.686
REMARK  Name = 
REMARK  8 active torsions:
REMARK  status: ('A' for Active; 'I' for Inactive)
REMARK    1  A    between atoms: C_1  and  C_2
REMARK    2  A    between atoms: C_2  and  C_3
REMARK    3  A    between atoms: C_2  and  O_4
REMARK    4  A    between atoms: C_2  and  C_11
REMARK    5  A    between atoms: O_4  and  C_5
REMARK    6  A    between atoms: C_14  and  C_15
REMARK    7  A    between atoms: C_15  and  N_16
REMARK    8  A    between atoms: C_17  and  C_19
REMARK                            x       y       z     vdW  Elec       q    Type
REMARK                         _______ _______ _______ _____ _____    ______ ____
ROOT
ATOM      1  C   UNL     1      48.707   6.033  20.106  0.00  0.00    +0.000 A 
ATOM      2  C   UNL     1      47.379   6.055  19.636  0.00  0.00    +0.000 A 
ATOM      3  C   UNL     1      46.976   5.315  18.520  0.00  0.00    +0.000 A 
ATOM      4  C   UNL     1      47.886   4.506  17.839  0.00  0.00    +0.000 A 
ATOM      5  C   UNL     1      49.210   4.467  18.289  0.00  0.00    +0.000 A 
ATOM      6  C   UNL     1      49.615   5.217  19.404  0.00  0.00    +0.000 A 
ENDROOT
BRANCH   1   8
ATOM      7  C   UNL     1      50.257   5.995  22.054  0.00  0.00    +0.000 C 
ATOM      8  C   UNL     1      49.169   6.839  21.356  0.00  0.00    +0.000 C 
ATOM      9  C   UNL     1      47.962   7.109  22.284  0.00  0.00    +0.000 C 
BRANCH   8  10
ATOM     10  O   UNL     1      49.716   8.079  20.846  0.00  0.00    +0.000 OA
BRANCH  10  11
ATOM     11  C   UNL     1      49.113   8.841  19.885  0.00  0.00    +0.000 A 
ATOM     12  C   UNL     1      47.981   9.646  20.032  0.00  0.00    +0.000 A 
ATOM     13  C   UNL     1      47.434  10.335  18.947  0.00  0.00    +0.000 A 
ATOM     14  C   UNL     1      48.029  10.257  17.698  0.00  0.00    +0.000 A 
ATOM     15  C   UNL     1      49.176   9.487  17.535  0.00  0.00    +0.000 A 
ATOM     16  C   UNL     1      49.710   8.782  18.621  0.00  0.00    +0.000 A 
ENDBRANCH  10  11
ENDBRANCH   8  10
ENDBRANCH   1   8
BRANCH   4  17
ATOM     17  C   UNL     1      47.456   3.750  16.611  0.00  0.00    +0.000 C 
BRANCH  17  18
ATOM     18  N   UNL     1      46.816   4.628  15.662  0.00  0.00    +0.000 N 
ATOM     19  C   UNL     1      46.772   4.320  14.328  0.00  0.00    +0.000 C 
ATOM     20  O   UNL     1      47.233   3.270  13.888  0.00  0.00    +0.000 OA
ATOM     21  H   UNL     1      46.620   5.576  15.970  0.00  0.00    +0.000 HD
BRANCH  19  22
ATOM     22  C   UNL     1      46.089   5.281  13.451  0.00  0.00    +0.000 A 
ATOM     23  C   UNL     1      46.696   6.495  13.161  0.00  0.00    +0.000 A 
ATOM     24  S   UNL     1      45.801   7.469  12.085  0.00  0.00    +0.000 S 
ATOM     25  C   UNL     1      44.542   6.328  12.014  0.00  0.00    +0.000 A 
ATOM     26  N   UNL     1      43.431   6.558  11.265  0.00  0.00    +0.000 NA
ATOM     27  C   UNL     1      42.539   5.627  11.333  0.00  0.00    +0.000 A 
ATOM     28  N   UNL     1      42.660   4.483  12.079  0.00  0.00    +0.000 N 
ATOM     29  C   UNL     1      43.777   4.193  12.826  0.00  0.00    +0.000 A 
ATOM     30  O   UNL     1      43.868   3.144  13.453  0.00  0.00    +0.000 OA
ATOM     31  C   UNL     1      44.808   5.213  12.791  0.00  0.00    +0.000 A 
ATOM     32  H   UNL     1      41.927   3.789  12.086  0.00  0.00    +0.000 HD
ENDBRANCH  19  22
ENDBRANCH  17  18
ENDBRANCH   4  17
TORSDOF 6
ENDMDL
MODEL 8
REMARK VINA RESULT:    -7.142      3.751      8.246
REMARK INTER + INTRA:         -10.333
REMARK INTER:                  -8.739
REMARK INTRA:                  -1.594
REMARK UNBOUND:                -0.686
REMARK  Name = 
REMARK  8 active torsions:
REMARK  status: ('A' for Active; 'I' for Inactive)
REMARK    1  A    between atoms: C_1  and  C_2
REMARK    2  A    between atoms: C_2  and  C_3
REMARK    3  A    between atoms: C_2  and  O_4
REMARK    4  A    between atoms: C_2  and  C_11
REMARK    5  A    between atoms: O_4  and  C_5
REMARK    6  A    between atoms: C_14  and  C_15
REMARK    7  A    between atoms: C_15  and  N_16
REMARK    8  A    between atoms: C_17  and  C_19
REMARK                            x       y       z     vdW  Elec       q    Type
REMARK                         _______ _______ _______ _____ _____    ______ ____
ROOT
ATOM      1  C   UNL     1      49.921   7.125  17.635  0.00  0.00    +0.000 A 
ATOM      2  C   UNL     1      48.887   8.079  17.695  0.00  0.00    +0.000 A 
ATOM      3  C   UNL     1      48.323   8.635  16.542  0.00  0.00    +0.000 A 
ATOM      4  C   UNL     1      48.761   8.239  15.277  0.00  0.00    +0.000 A 
ATOM      5  C   UNL     1      49.787   7.291  15.193  0.00  0.00    +0.000 A 
ATOM      6  C   UNL     1      50.357   6.742  16.352  0.00  0.00    +0.000 A 
ENDROOT
BRANCH   1   8
ATOM      7  C   UNL     1      50.597   7.594  19.985  0.00  0.00    +0.000 C 
ATOM      8  C   UNL     1      50.549   6.487  18.910  0.00  0.00    +0.000 C 
ATOM      9  C   UNL     1      51.956   5.937  18.583  0.00  0.00    +0.000 C 
BRANCH   8  10
ATOM     10  O   UNL     1      49.653   5.418  19.298  0.00  0.00    +0.000 OA
BRANCH  10  11
ATOM     11  C   UNL     1      49.184   4.465  18.438  0.00  0.00    +0.000 A 
ATOM     12  C   UNL     1      49.900   3.401  17.884  0.00  0.00    +0.000 A 
ATOM     13  C   UNL     1      49.309   2.525  16.971  0.00  0.00    +0.000 A 
ATOM     14  C   UNL     1      47.977   2.678  16.619  0.00  0.00    +0.000 A 
ATOM     15  C   UNL     1      47.235   3.710  17.183  0.00  0.00    +0.000 A 
ATOM     16  C   UNL     1      47.838   4.599  18.083  0.00  0.00    +0.000 A 
ENDBRANCH  10  11
ENDBRANCH   8  10
ENDBRANCH   1   8
BRANCH   4  17
ATOM     17  C   UNL     1      48.184   8.876  14.042  0.00  0.00    +0.000 C 
BRANCH  17  18
ATOM     18  N   UNL     1      46.989   8.188  13.617  0.00  0.00    +0.000 N 
ATOM     19  C   UNL     1      47.019   7.293  12.580  0.00  0.00    +0.000 C 
ATOM     20  O   UNL     1      48.061   7.004  11.999  0.00  0.00    +0.000 OA
ATOM     21  H   UNL     1      46.102   8.562  13.939  0.00  0.00    +0.000 HD
BRANCH  19  22
ATOM     22  C   UNL     1      45.746   6.643  12.234  0.00  0.00    +0.000 A 
ATOM     23  C   UNL     1      44.714   7.402  11.698  0.00  0.00    +0.000 A 
ATOM     24  S   UNL     1      43.331   6.489  11.298  0.00  0.00    +0.000 S 
ATOM     25  C   UNL     1      44.040   5.058  11.881  0.00  0.00    +0.000 A 
ATOM     26  N   UNL     1      43.361   3.879  11.852  0.00  0.00    +0.000 NA
ATOM     27  C   UNL     1      44.003   2.881  12.361  0.00  0.00    +0.000 A 
ATOM     28  N   UNL     1      45.265   2.954  12.893  0.00  0.00    +0.000 N 
ATOM     29  C   UNL     1      46.000   4.116  12.916  0.00  0.00    +0.000 A 
ATOM     30  O   UNL     1      47.140   4.138  13.367  0.00  0.00    +0.000 OA
ATOM     31  C   UNL     1      45.320   5.271  12.362  0.00  0.00    +0.000 A 
ATOM     32  H   UNL     1      45.716   2.135  13.273  0.00  0.00    +0.000 HD
ENDBRANCH  19  22
ENDBRANCH  17  18
ENDBRANCH   4  17
TORSDOF 6
ENDMDL
MODEL 9
REMARK VINA RESULT:    -6.742      3.618      8.913
REMARK INTER + INTRA:          -9.793
REMARK INTER:                  -8.290
REMARK INTRA:                  -1.503
REMARK UNBOUND:                -0.686
REMARK  Name = 
REMARK  8 active torsions:
REMARK  status: ('A' for Active; 'I' for Inactive)
REMARK    1  A    between atoms: C_1  and  C_2
REMARK    2  A    between atoms: C_2  and  C_3
REMARK    3  A    between atoms: C_2  and  O_4
REMARK    4  A    between atoms: C_2  and  C_11
REMARK    5  A    between atoms: O_4  and  C_5
REMARK    6  A    between atoms: C_14  and  C_15
REMARK    7  A    between atoms: C_15  and  N_16
REMARK    8  A    between atoms: C_17  and  C_19
REMARK                            x       y       z     vdW  Elec       q    Type
REMARK                         _______ _______ _______ _____ _____    ______ ____
ROOT
ATOM      1  C   UNL     1      50.414   7.305  18.178  0.00  0.00    +0.000 A 
ATOM      2  C   UNL     1      49.090   7.783  18.171  0.00  0.00    +0.000 A 
ATOM      3  C   UNL     1      48.444   8.156  16.988  0.00  0.00    +0.000 A 
ATOM      4  C   UNL     1      49.096   8.046  15.758  0.00  0.00    +0.000 A 
ATOM      5  C   UNL     1      50.412   7.571  15.742  0.00  0.00    +0.000 A 
ATOM      6  C   UNL     1      51.061   7.206  16.932  0.00  0.00    +0.000 A 
ENDROOT
BRANCH   1   8
ATOM      7  C   UNL     1      50.855   7.964  20.539  0.00  0.00    +0.000 C 
ATOM      8  C   UNL     1      51.143   6.871  19.486  0.00  0.00    +0.000 C 
ATOM      9  C   UNL     1      52.656   6.711  19.217  0.00  0.00    +0.000 C 
BRANCH   8  10
ATOM     10  O   UNL     1      50.549   5.608  19.868  0.00  0.00    +0.000 OA
BRANCH  10  11
ATOM     11  C   UNL     1      50.370   4.557  19.011  0.00  0.00    +0.000 A 
ATOM     12  C   UNL     1      51.361   3.840  18.337  0.00  0.00    +0.000 A 
ATOM     13  C   UNL     1      51.036   2.817  17.443  0.00  0.00    +0.000 A 
ATOM     14  C   UNL     1      49.711   2.471  17.230  0.00  0.00    +0.000 A 
ATOM     15  C   UNL     1      48.709   3.150  17.914  0.00  0.00    +0.000 A 
ATOM     16  C   UNL     1      49.039   4.189  18.795  0.00  0.00    +0.000 A 
ENDBRANCH  10  11
ENDBRANCH   8  10
ENDBRANCH   1   8
BRANCH   4  17
ATOM     17  C   UNL     1      48.412   8.494  14.496  0.00  0.00    +0.000 C 
BRANCH  17  18
ATOM     18  N   UNL     1      47.390   7.555  14.100  0.00  0.00    +0.000 N 
ATOM     19  C   UNL     1      47.680   6.499  13.277  0.00  0.00    +0.000 C 
ATOM     20  O   UNL     1      48.820   6.278  12.877  0.00  0.00    +0.000 OA
ATOM     21  H   UNL     1      46.425   7.835  14.246  0.00  0.00    +0.000 HD
BRANCH  19  22
ATOM     22  C   UNL     1      46.566   5.600  12.943  0.00  0.00    +0.000 A 
ATOM     23  C   UNL     1      46.692   4.237  13.181  0.00  0.00    +0.000 A 
ATOM     24  S   UNL     1      45.292   3.343  12.795  0.00  0.00    +0.000 S 
ATOM     25  C   UNL     1      44.489   4.737  12.241  0.00  0.00    +0.000 A 
ATOM     26  N   UNL     1      43.225   4.664  11.744  0.00  0.00    +0.000 NA
ATOM     27  C   UNL     1      42.751   5.790  11.325  0.00  0.00    +0.000 A 
ATOM     28  N   UNL     1      43.426   6.984  11.363  0.00  0.00    +0.000 N 
ATOM     29  C   UNL     1      44.692   7.110  11.884  0.00  0.00    +0.000 A 
ATOM     30  O   UNL     1      45.252   8.199  11.935  0.00  0.00    +0.000 OA
ATOM     31  C   UNL     1      45.274   5.871  12.363  0.00  0.00    +0.000 A 
ATOM     32  H   UNL     1      42.998   7.831  11.023  0.00  0.00    +0.000 HD
ENDBRANCH  19  22
ENDBRANCH  17  18
ENDBRANCH   4  17
TORSDOF 6
ENDMDL
