MODEL 1
REMARK VINA RESULT:    -8.099      0.000      0.000
REMARK INTER + INTRA:         -11.246
REMARK INTER:                 -10.466
REMARK INTRA:                  -0.780
REMARK UNBOUND:                -0.780
REMARK  Name = 
REMARK  5 active torsions:
REMARK  status: ('A' for Active; 'I' for Inactive)
REMARK    1  A    between atoms: C_2  and  C_5
REMARK    2  A    between atoms: C_9  and  C_10
REMARK    3  A    between atoms: C_10  and  C_11
REMARK    4  A    between atoms: C_11  and  C_12
REMARK    5  A    between atoms: C_16  and  C_17
REMARK                            x       y       z     vdW  Elec       q    Type
REMARK                         _______ _______ _______ _____ _____    ______ ____
ROOT
ATOM      1  C   UNL     1      44.144   6.482  11.474  0.00  0.00    +0.000 C 
ENDROOT
BRANCH   1   2
ATOM      2  C   UNL     1      44.118   5.039  11.028  0.00  0.00    +0.000 A 
ATOM      3  C   UNL     1      43.315   4.076  11.628  0.00  0.00    +0.000 A 
ATOM      4  N   UNL     1      43.256   2.787  11.241  0.00  0.00    +0.000 NA
ATOM      5  C   UNL     1      44.027   2.435  10.184  0.00  0.00    +0.000 A 
ATOM      6  C   UNL     1      44.870   3.296   9.480  0.00  0.00    +0.000 A 
ATOM      7  C   UNL     1      44.885   4.627   9.926  0.00  0.00    +0.000 A 
BRANCH   6   8
ATOM      8  C   UNL     1      45.709   2.828   8.357  0.00  0.00    +0.000 A 
ATOM      9  C   UNL     1      46.082   3.683   7.304  0.00  0.00    +0.000 A 
ATOM     10  C   UNL     1      46.909   3.243   6.265  0.00  0.00    +0.000 A 
ATOM     11  C   UNL     1      47.372   1.931   6.249  0.00  0.00    +0.000 A 
ATOM     12  C   UNL     1      47.006   1.059   7.267  0.00  0.00    +0.000 A 
ATOM     13  C   UNL     1      46.187   1.505   8.310  0.00  0.00    +0.000 A 
ENDBRANCH   6   8
ENDBRANCH   1   2
BRANCH   1  14
ATOM     14  C   UNL     1      44.815   6.717  12.834  0.00  0.00    +0.000 C 
BRANCH  14  19
ATOM     15  C   UNL     1      48.270   7.984  12.335  0.00  0.00    +0.000 A 
ATOM     16  C   UNL     1      49.009   6.892  12.764  0.00  0.00    +0.000 A 
ATOM     17  N   UNL     1      48.440   5.746  13.205  0.00  0.00    +0.000 NA
ATOM     18  C   UNL     1      47.087   5.730  13.207  0.00  0.00    +0.000 A 
ATOM     19  C   UNL     1      46.319   6.809  12.783  0.00  0.00    +0.000 A 
ATOM     20  N   UNL     1      46.902   7.950  12.342  0.00  0.00    +0.000 NA
BRANCH  15  22
ATOM     21  F   UNL     1      50.072   8.954  11.067  0.00  0.00    +0.000 F 
ATOM     22  C   UNL     1      48.990   9.227  11.857  0.00  0.00    +0.000 C 
ATOM     23  F   UNL     1      49.472   9.989  12.879  0.00  0.00    +0.000 F 
ATOM     24  F   UNL     1      48.199  10.049  11.113  0.00  0.00    +0.000 F 
ENDBRANCH  15  22
ENDBRANCH  14  19
ENDBRANCH   1  14
TORSDOF 5
ENDMDL
MODEL 2
REMARK VINA RESULT:    -7.965      3.604      4.170
REMARK INTER + INTRA:         -11.073
REMARK INTER:                 -10.430
REMARK INTRA:                  -0.642
REMARK UNBOUND:                -0.780
REMARK  Name = 
REMARK  5 active torsions:
REMARK  status: ('A' for Active; 'I' for Inactive)
REMARK    1  A    between atoms: C_2  and  C_5
REMARK    2  A    between atoms: C_9  and  C_10
REMARK    3  A    between atoms: C_10  and  C_11
REMARK    4  A    between atoms: C_11  and  C_12
REMARK    5  A    between atoms: C_16  and  C_17
REMARK                            x       y       z     vdW  Elec       q    Type
REMARK                         _______ _______ _______ _____ _____    ______ ____
ROOT
ATOM      1  C   UNL     1      45.225   5.306  12.998  0.00  0.00    +0.000 C 
ENDROOT
BRANCH   1   2
ATOM      2  C   UNL     1      44.737   4.225  12.062  0.00  0.00    +0.000 A 
ATOM      3  C   UNL     1      43.619   3.443  12.327  0.00  0.00    +0.000 A 
ATOM      4  N   UNL     1      43.149   2.486  11.503  0.00  0.00    +0.000 NA
ATOM      5  C   UNL     1      43.819   2.303  10.340  0.00  0.00    +0.000 A 
ATOM      6  C   UNL     1      44.947   3.021   9.940  0.00  0.00    +0.000 A 
ATOM      7  C   UNL     1      45.386   4.009  10.836  0.00  0.00    +0.000 A 
BRANCH   6   8
ATOM      8  C   UNL     1      45.646   2.740   8.668  0.00  0.00    +0.000 A 
ATOM      9  C   UNL     1      45.864   3.741   7.704  0.00  0.00    +0.000 A 
ATOM     10  C   UNL     1      46.560   3.475   6.521  0.00  0.00    +0.000 A 
ATOM     11  C   UNL     1      47.044   2.196   6.268  0.00  0.00    +0.000 A 
ATOM     12  C   UNL     1      46.828   1.181   7.194  0.00  0.00    +0.000 A 
ATOM     13  C   UNL     1      46.140   1.453   8.380  0.00  0.00    +0.000 A 
ENDBRANCH   6   8
ENDBRANCH   1   2
BRANCH   1  14
ATOM     14  C   UNL     1      46.734   5.576  12.929  0.00  0.00    +0.000 C 
BRANCH  14  19
ATOM     15  C   UNL     1      48.055   4.397  16.193  0.00  0.00    +0.000 A 
ATOM     16  C   UNL     1      48.767   5.515  16.602  0.00  0.00    +0.000 A 
ATOM     17  N   UNL     1      48.835   6.651  15.870  0.00  0.00    +0.000 NA
ATOM     18  C   UNL     1      48.163   6.630  14.696  0.00  0.00    +0.000 A 
ATOM     19  C   UNL     1      47.442   5.525  14.259  0.00  0.00    +0.000 A 
ATOM     20  N   UNL     1      47.379   4.393  15.003  0.00  0.00    +0.000 NA
BRANCH  15  22
ATOM     21  F   UNL     1      48.552   2.057  16.471  0.00  0.00    +0.000 F 
ATOM     22  C   UNL     1      48.032   3.168  17.076  0.00  0.00    +0.000 C 
ATOM     23  F   UNL     1      46.775   2.813  17.462  0.00  0.00    +0.000 F 
ATOM     24  F   UNL     1      48.751   3.321  18.223  0.00  0.00    +0.000 F 
ENDBRANCH  15  22
ENDBRANCH  14  19
ENDBRANCH   1  14
TORSDOF 5
ENDMDL
MODEL 3
REMARK VINA RESULT:    -7.729      2.618      3.232
REMARK INTER + INTRA:         -10.768
REMARK INTER:                  -9.893
REMARK INTRA:                  -0.875
REMARK UNBOUND:                -0.780
REMARK  Name = 
REMARK  5 active torsions:
REMARK  status: ('A' for Active; 'I' for Inactive)
REMARK    1  A    between atoms: C_2  and  C_5
REMARK    2  A    between atoms: C_9  and  C_10
REMARK    3  A    between atoms: C_10  and  C_11
REMARK    4  A    between atoms: C_11  and  C_12
REMARK    5  A    between atoms: C_16  and  C_17
REMARK                            x       y       z     vdW  Elec       q    Type
REMARK                         _______ _______ _______ _____ _____    ______ ____
ROOT
ATOM      1  C   UNL     1      43.503   6.396  10.965  0.00  0.00    +0.000 C 
ENDROOT
BRANCH   1   2
ATOM      2  C   UNL     1      43.740   4.927  10.702  0.00  0.00    +0.000 A 
ATOM      3  C   UNL     1      43.130   3.919  11.439  0.00  0.00    +0.000 A 
ATOM      4  N   UNL     1      43.306   2.602  11.216  0.00  0.00    +0.000 NA
ATOM      5  C   UNL     1      44.125   2.264  10.190  0.00  0.00    +0.000 A 
ATOM      6  C   UNL     1      44.792   3.168   9.362  0.00  0.00    +0.000 A 
ATOM      7  C   UNL     1      44.565   4.526   9.639  0.00  0.00    +0.000 A 
BRANCH   6   8
ATOM      8  C   UNL     1      45.698   2.722   8.283  0.00  0.00    +0.000 A 
ATOM      9  C   UNL     1      46.233   1.421   8.254  0.00  0.00    +0.000 A 
ATOM     10  C   UNL     1      47.059   0.995   7.209  0.00  0.00    +0.000 A 
ATOM     11  C   UNL     1      47.379   1.866   6.172  0.00  0.00    +0.000 A 
ATOM     12  C   UNL     1      46.878   3.163   6.182  0.00  0.00    +0.000 A 
ATOM     13  C   UNL     1      46.045   3.583   7.224  0.00  0.00    +0.000 A 
ENDBRANCH   6   8
ENDBRANCH   1   2
BRANCH   1  14
ATOM     14  C   UNL     1      43.980   6.882  12.341  0.00  0.00    +0.000 C 
BRANCH  14  19
ATOM     15  C   UNL     1      46.944   5.315  13.938  0.00  0.00    +0.000 A 
ATOM     16  C   UNL     1      47.967   5.875  13.186  0.00  0.00    +0.000 A 
ATOM     17  N   UNL     1      47.745   6.752  12.180  0.00  0.00    +0.000 NA
ATOM     18  C   UNL     1      46.447   7.053  11.944  0.00  0.00    +0.000 A 
ATOM     19  C   UNL     1      45.401   6.509  12.679  0.00  0.00    +0.000 A 
ATOM     20  N   UNL     1      45.637   5.632  13.686  0.00  0.00    +0.000 NA
BRANCH  15  22
ATOM     21  F   UNL     1      48.415   4.680  15.735  0.00  0.00    +0.000 F 
ATOM     22  C   UNL     1      47.284   4.341  15.045  0.00  0.00    +0.000 C 
ATOM     23  F   UNL     1      47.502   3.075  14.592  0.00  0.00    +0.000 F 
ATOM     24  F   UNL     1      46.304   4.242  15.988  0.00  0.00    +0.000 F 
ENDBRANCH  15  22
ENDBRANCH  14  19
ENDBRANCH   1  14
TORSDOF 5
ENDMDL
MODEL 4
REMARK VINA RESULT:    -7.720      3.730      7.027
REMARK INTER + INTRA:         -10.756
REMARK INTER:                 -10.351
REMARK INTRA:                  -0.405
REMARK UNBOUND:                -0.780
REMARK  Name = 
REMARK  5 active torsions:
REMARK  status: ('A' for Active; 'I' for Inactive)
REMARK    1  A    between atoms: C_2  and  C_5
REMARK    2  A    between atoms: C_9  and  C_10
REMARK    3  A    between atoms: C_10  and  C_11
REMARK    4  A    between atoms: C_11  and  C_12
REMARK    5  A    between atoms: C_16  and  C_17
REMARK                            x       y       z     vdW  Elec       q    Type
REMARK                         _______ _______ _______ _____ _____    ______ ____
ROOT
ATOM      1  C   UNL     1      43.752   3.904  11.876  0.00  0.00    +0.000 C 
ENDROOT
BRANCH   1   2
ATOM      2  C   UNL     1      45.069   4.436  12.390  0.00  0.00    +0.000 A 
ATOM      3  C   UNL     1      45.949   3.672  13.148  0.00  0.00    +0.000 A 
ATOM      4  N   UNL     1      47.139   4.111  13.603  0.00  0.00    +0.000 NA
ATOM      5  C   UNL     1      47.483   5.380  13.275  0.00  0.00    +0.000 A 
ATOM      6  C   UNL     1      46.705   6.253  12.514  0.00  0.00    +0.000 A 
ATOM      7  C   UNL     1      45.480   5.738  12.063  0.00  0.00    +0.000 A 
BRANCH   6   8
ATOM      8  C   UNL     1      47.135   7.638  12.226  0.00  0.00    +0.000 A 
ATOM      9  C   UNL     1      46.243   8.723  12.307  0.00  0.00    +0.000 A 
ATOM     10  C   UNL     1      46.667  10.035  12.071  0.00  0.00    +0.000 A 
ATOM     11  C   UNL     1      47.993  10.291  11.736  0.00  0.00    +0.000 A 
ATOM     12  C   UNL     1      48.893   9.237  11.632  0.00  0.00    +0.000 A 
ATOM     13  C   UNL     1      48.468   7.927  11.878  0.00  0.00    +0.000 A 
ENDBRANCH   6   8
ENDBRANCH   1   2
BRANCH   1  14
ATOM     14  C   UNL     1      43.877   2.720  10.907  0.00  0.00    +0.000 C 
BRANCH  14  19
ATOM     15  C   UNL     1      46.170   2.288   8.018  0.00  0.00    +0.000 A 
ATOM     16  C   UNL     1      46.168   3.572   7.493  0.00  0.00    +0.000 A 
ATOM     17  N   UNL     1      45.460   4.588   8.039  0.00  0.00    +0.000 NA
ATOM     18  C   UNL     1      44.739   4.272   9.140  0.00  0.00    +0.000 A 
ATOM     19  C   UNL     1      44.721   2.995   9.688  0.00  0.00    +0.000 A 
ATOM     20  N   UNL     1      45.436   1.986   9.133  0.00  0.00    +0.000 NA
BRANCH  15  22
ATOM     21  F   UNL     1      46.631   0.991   6.042  0.00  0.00    +0.000 F 
ATOM     22  C   UNL     1      46.992   1.211   7.342  0.00  0.00    +0.000 C 
ATOM     23  F   UNL     1      46.888  -0.001   7.956  0.00  0.00    +0.000 F 
ATOM     24  F   UNL     1      48.322   1.502   7.302  0.00  0.00    +0.000 F 
ENDBRANCH  15  22
ENDBRANCH  14  19
ENDBRANCH   1  14
TORSDOF 5
ENDMDL
MODEL 5
REMARK VINA RESULT:    -7.643      1.059      1.966
REMARK INTER + INTRA:         -10.657
REMARK INTER:                 -10.009
REMARK INTRA:                  -0.648
REMARK UNBOUND:                -0.780
REMARK  Name = 
REMARK  5 active torsions:
REMARK  status: ('A' for Active; 'I' for Inactive)
REMARK    1  A    between atoms: C_2  and  C_5
REMARK    2  A    between atoms: C_9  and  C_10
REMARK    3  A    between atoms: C_10  and  C_11
REMARK    4  A    between atoms: C_11  and  C_12
REMARK    5  A    between atoms: C_16  and  C_17
REMARK                            x       y       z     vdW  Elec       q    Type
REMARK                         _______ _______ _______ _____ _____    ______ ____
ROOT
ATOM      1  C   UNL     1      44.003   6.467  11.373  0.00  0.00    +0.000 C 
ENDROOT
BRANCH   1   2
ATOM      2  C   UNL     1      44.043   5.010  10.975  0.00  0.00    +0.000 A 
ATOM      3  C   UNL     1      43.300   4.029  11.621  0.00  0.00    +0.000 A 
ATOM      4  N   UNL     1      43.300   2.726  11.277  0.00  0.00    +0.000 NA
ATOM      5  C   UNL     1      44.073   2.378  10.219  0.00  0.00    +0.000 A 
ATOM      6  C   UNL     1      44.859   3.257   9.473  0.00  0.00    +0.000 A 
ATOM      7  C   UNL     1      44.814   4.601   9.875  0.00  0.00    +0.000 A 
BRANCH   6   8
ATOM      8  C   UNL     1      45.704   2.794   8.352  0.00  0.00    +0.000 A 
ATOM      9  C   UNL     1      46.199   1.479   8.290  0.00  0.00    +0.000 A 
ATOM     10  C   UNL     1      46.966   1.038   7.206  0.00  0.00    +0.000 A 
ATOM     11  C   UNL     1      47.265   1.908   6.163  0.00  0.00    +0.000 A 
ATOM     12  C   UNL     1      46.804   3.219   6.205  0.00  0.00    +0.000 A 
ATOM     13  C   UNL     1      46.029   3.654   7.285  0.00  0.00    +0.000 A 
ENDBRANCH   6   8
ENDBRANCH   1   2
BRANCH   1  14
ATOM     14  C   UNL     1      44.828   6.810  12.621  0.00  0.00    +0.000 C 
BRANCH  14  19
ATOM     15  C   UNL     1      48.051   8.575  12.082  0.00  0.00    +0.000 A 
ATOM     16  C   UNL     1      47.615   9.890  12.011  0.00  0.00    +0.000 A 
ATOM     17  N   UNL     1      46.315  10.242  12.138  0.00  0.00    +0.000 NA
ATOM     18  C   UNL     1      45.451   9.220  12.338  0.00  0.00    +0.000 A 
ATOM     19  C   UNL     1      45.857   7.893  12.414  0.00  0.00    +0.000 A 
ATOM     20  N   UNL     1      47.163   7.554  12.286  0.00  0.00    +0.000 NA
BRANCH  15  22
ATOM     21  F   UNL     1      49.794   7.383  10.925  0.00  0.00    +0.000 F 
ATOM     22  C   UNL     1      49.526   8.272  11.929  0.00  0.00    +0.000 C 
ATOM     23  F   UNL     1      50.077   7.727  13.050  0.00  0.00    +0.000 F 
ATOM     24  F   UNL     1      50.270   9.375  11.640  0.00  0.00    +0.000 F 
ENDBRANCH  15  22
ENDBRANCH  14  19
ENDBRANCH   1  14
TORSDOF 5
ENDMDL
MODEL 6
REMARK VINA RESULT:    -7.533      2.853      3.685
REMARK INTER + INTRA:         -10.515
REMARK INTER:                  -9.931
REMARK INTRA:                  -0.584
REMARK UNBOUND:                -0.780
REMARK  Name = 
REMARK  5 active torsions:
REMARK  status: ('A' for Active; 'I' for Inactive)
REMARK    1  A    between atoms: C_2  and  C_5
REMARK    2  A    between atoms: C_9  and  C_10
REMARK    3  A    between atoms: C_10  and  C_11
REMARK    4  A    between atoms: C_11  and  C_12
REMARK    5  A    between atoms: C_16  and  C_17
REMARK                            x       y       z     vdW  Elec       q    Type
REMARK                         _______ _______ _______ _____ _____    ______ ____
ROOT
ATOM      1  C   UNL     1      45.908   7.006  12.432  0.00  0.00    +0.000 C 
ENDROOT
BRANCH   1   2
ATOM      2  C   UNL     1      45.102   6.084  11.548  0.00  0.00    +0.000 A 
ATOM      3  C   UNL     1      43.715   6.009  11.598  0.00  0.00    +0.000 A 
ATOM      4  N   UNL     1      42.968   5.212  10.809  0.00  0.00    +0.000 NA
ATOM      5  C   UNL     1      43.636   4.454   9.906  0.00  0.00    +0.000 A 
ATOM      6  C   UNL     1      45.021   4.436   9.738  0.00  0.00    +0.000 A 
ATOM      7  C   UNL     1      45.745   5.292  10.583  0.00  0.00    +0.000 A 
BRANCH   6   8
ATOM      8  C   UNL     1      45.680   3.554   8.751  0.00  0.00    +0.000 A 
ATOM      9  C   UNL     1      45.693   2.155   8.900  0.00  0.00    +0.000 A 
ATOM     10  C   UNL     1      46.286   1.325   7.943  0.00  0.00    +0.000 A 
ATOM     11  C   UNL     1      46.891   1.878   6.819  0.00  0.00    +0.000 A 
ATOM     12  C   UNL     1      46.908   3.258   6.653  0.00  0.00    +0.000 A 
ATOM     13  C   UNL     1      46.306   4.084   7.607  0.00  0.00    +0.000 A 
ENDBRANCH   6   8
ENDBRANCH   1   2
BRANCH   1  14
ATOM     14  C   UNL     1      47.334   6.521  12.728  0.00  0.00    +0.000 C 
BRANCH  14  19
ATOM     15  C   UNL     1      48.447   5.389  16.085  0.00  0.00    +0.000 A 
ATOM     16  C   UNL     1      47.630   4.283  16.268  0.00  0.00    +0.000 A 
ATOM     17  N   UNL     1      46.730   3.874  15.344  0.00  0.00    +0.000 NA
ATOM     18  C   UNL     1      46.670   4.619  14.217  0.00  0.00    +0.000 A 
ATOM     19  C   UNL     1      47.475   5.732  14.005  0.00  0.00    +0.000 A 
ATOM     20  N   UNL     1      48.374   6.131  14.938  0.00  0.00    +0.000 NA
BRANCH  15  22
ATOM     21  F   UNL     1      49.690   7.118  17.210  0.00  0.00    +0.000 F 
ATOM     22  C   UNL     1      49.427   5.777  17.172  0.00  0.00    +0.000 C 
ATOM     23  F   UNL     1      50.641   5.174  17.033  0.00  0.00    +0.000 F 
ATOM     24  F   UNL     1      48.989   5.460  18.423  0.00  0.00    +0.000 F 
ENDBRANCH  15  22
ENDBRANCH  14  19
ENDBRANCH   1  14
TORSDOF 5
ENDMDL
MODEL 7
REMARK VINA RESULT:    -7.170      3.258      6.703
REMARK INTER + INTRA:         -10.046
REMARK INTER:                  -9.247
REMARK INTRA:                  -0.798
REMARK UNBOUND:                -0.780
REMARK  Name = 
REMARK  5 active torsions:
REMARK  status: ('A' for Active; 'I' for Inactive)
REMARK    1  A    between atoms: C_2  and  C_5
REMARK    2  A    between atoms: C_9  and  C_10
REMARK    3  A    between atoms: C_10  and  C_11
REMARK    4  A    between atoms: C_11  and  C_12
REMARK    5  A    between atoms: C_16  and  C_17
REMARK                            x       y       z     vdW  Elec       q    Type
REMARK                         _______ _______ _______ _____ _____    ______ ____
ROOT
ATOM      1  C   UNL     1      43.647   5.140  11.378  0.00  0.00    +0.000 C 
ENDROOT
BRANCH   1   2
ATOM      2  C   UNL     1      44.907   5.290  12.198  0.00  0.00    +0.000 A 
ATOM      3  C   UNL     1      45.204   4.474  13.284  0.00  0.00    +0.000 A 
ATOM      4  N   UNL     1      46.328   4.570  14.021  0.00  0.00    +0.000 NA
ATOM      5  C   UNL     1      47.217   5.523  13.651  0.00  0.00    +0.000 A 
ATOM      6  C   UNL     1      47.056   6.402  12.580  0.00  0.00    +0.000 A 
ATOM      7  C   UNL     1      45.869   6.250  11.845  0.00  0.00    +0.000 A 
BRANCH   6   8
ATOM      8  C   UNL     1      48.058   7.441  12.259  0.00  0.00    +0.000 A 
ATOM      9  C   UNL     1      49.431   7.147  12.182  0.00  0.00    +0.000 A 
ATOM     10  C   UNL     1      50.369   8.127  11.840  0.00  0.00    +0.000 A 
ATOM     11  C   UNL     1      49.954   9.429  11.578  0.00  0.00    +0.000 A 
ATOM     12  C   UNL     1      48.604   9.752  11.662  0.00  0.00    +0.000 A 
ATOM     13  C   UNL     1      47.669   8.768  11.995  0.00  0.00    +0.000 A 
ENDBRANCH   6   8
ENDBRANCH   1   2
BRANCH   1  14
ATOM     14  C   UNL     1      43.867   5.179   9.859  0.00  0.00    +0.000 C 
BRANCH  14  19
ATOM     15  C   UNL     1      45.934   2.897   7.783  0.00  0.00    +0.000 A 
ATOM     16  C   UNL     1      45.619   1.673   8.356  0.00  0.00    +0.000 A 
ATOM     17  N   UNL     1      44.754   1.545   9.388  0.00  0.00    +0.000 NA
ATOM     18  C   UNL     1      44.209   2.698   9.839  0.00  0.00    +0.000 A 
ATOM     19  C   UNL     1      44.505   3.939   9.287  0.00  0.00    +0.000 A 
ATOM     20  N   UNL     1      45.372   4.053   8.251  0.00  0.00    +0.000 NA
BRANCH  15  22
ATOM     21  F   UNL     1      48.217   3.046   7.033  0.00  0.00    +0.000 F 
ATOM     22  C   UNL     1      46.914   2.948   6.631  0.00  0.00    +0.000 C 
ATOM     23  F   UNL     1      46.710   4.012   5.805  0.00  0.00    +0.000 F 
ATOM     24  F   UNL     1      46.864   1.840   5.839  0.00  0.00    +0.000 F 
ENDBRANCH  15  22
ENDBRANCH  14  19
ENDBRANCH   1  14
TORSDOF 5
ENDMDL
MODEL 8
REMARK VINA RESULT:    -7.063      1.491      1.896
REMARK INTER + INTRA:          -9.907
REMARK INTER:                  -9.230
REMARK INTRA:                  -0.677
REMARK UNBOUND:                -0.780
REMARK  Name = 
REMARK  5 active torsions:
REMARK  status: ('A' for Active; 'I' for Inactive)
REMARK    1  A    between atoms: C_2  and  C_5
REMARK    2  A    between atoms: C_9  and  C_10
REMARK    3  A    between atoms: C_10  and  C_11
REMARK    4  A    between atoms: C_11  and  C_12
REMARK    5  A    between atoms: C_16  and  C_17
REMARK                            x       y       z     vdW  Elec       q    Type
REMARK                         _______ _______ _______ _____ _____    ______ ____
ROOT
ATOM      1  C   UNL     1      44.944   5.900  12.615  0.00  0.00    +0.000 C 
ENDROOT
BRANCH   1   2
ATOM      2  C   UNL     1      44.576   4.669  11.820  0.00  0.00    +0.000 A 
ATOM      3  C   UNL     1      43.538   3.817  12.182  0.00  0.00    +0.000 A 
ATOM      4  N   UNL     1      43.173   2.724  11.483  0.00  0.00    +0.000 NA
ATOM      5  C   UNL     1      43.870   2.468  10.350  0.00  0.00    +0.000 A 
ATOM      6  C   UNL     1      44.925   3.240   9.862  0.00  0.00    +0.000 A 
ATOM      7  C   UNL     1      45.255   4.369  10.628  0.00  0.00    +0.000 A 
BRANCH   6   8
ATOM      8  C   UNL     1      45.661   2.876   8.632  0.00  0.00    +0.000 A 
ATOM      9  C   UNL     1      45.961   3.825   7.639  0.00  0.00    +0.000 A 
ATOM     10  C   UNL     1      46.692   3.480   6.497  0.00  0.00    +0.000 A 
ATOM     11  C   UNL     1      47.128   2.172   6.317  0.00  0.00    +0.000 A 
ATOM     12  C   UNL     1      46.831   1.207   7.274  0.00  0.00    +0.000 A 
ATOM     13  C   UNL     1      46.109   1.558   8.419  0.00  0.00    +0.000 A 
ENDBRANCH   6   8
ENDBRANCH   1   2
BRANCH   1  14
ATOM     14  C   UNL     1      46.426   5.987  13.005  0.00  0.00    +0.000 C 
BRANCH  14  19
ATOM     15  C   UNL     1      47.081   9.501  11.997  0.00  0.00    +0.000 A 
ATOM     16  C   UNL     1      48.451   9.456  11.783  0.00  0.00    +0.000 A 
ATOM     17  N   UNL     1      49.183   8.329  11.943  0.00  0.00    +0.000 NA
ATOM     18  C   UNL     1      48.492   7.234  12.332  0.00  0.00    +0.000 A 
ATOM     19  C   UNL     1      47.120   7.247  12.554  0.00  0.00    +0.000 A 
ATOM     20  N   UNL     1      46.397   8.383  12.390  0.00  0.00    +0.000 NA
BRANCH  15  22
ATOM     21  F   UNL     1      46.278  11.194  10.486  0.00  0.00    +0.000 F 
ATOM     22  C   UNL     1      46.341  10.805  11.796  0.00  0.00    +0.000 C 
ATOM     23  F   UNL     1      46.914  11.850  12.456  0.00  0.00    +0.000 F 
ATOM     24  F   UNL     1      45.046  10.755  12.218  0.00  0.00    +0.000 F 
ENDBRANCH  15  22
ENDBRANCH  14  19
ENDBRANCH   1  14
TORSDOF 5
ENDMDL
MODEL 9
REMARK VINA RESULT:    -6.905      4.170      7.794
REMARK INTER + INTRA:          -9.703
REMARK INTER:                  -8.966
REMARK INTRA:                  -0.737
REMARK UNBOUND:                -0.780
REMARK  Name = 
REMARK  5 active torsions:
REMARK  status: ('A' for Active; 'I' for Inactive)
REMARK    1  A    between atoms: C_2  and  C_5
REMARK    2  A    between atoms: C_9  and  C_10
REMARK    3  A    between atoms: C_10  and  C_11
REMARK    4  A    between atoms: C_11  and  C_12
REMARK    5  A    between atoms: C_16  and  C_17
REMARK                            x       y       z     vdW  Elec       q    Type
REMARK                         _______ _______ _______ _____ _____    ______ ____
ROOT
ATOM      1  C   UNL     1      46.915   6.694  11.720  0.00  0.00    +0.000 C 
ENDROOT
BRANCH   1   2
ATOM      2  C   UNL     1      47.723   6.882  12.983  0.00  0.00    +0.000 A 
ATOM      3  C   UNL     1      48.529   7.992  13.208  0.00  0.00    +0.000 A 
ATOM      4  N   UNL     1      49.244   8.197  14.331  0.00  0.00    +0.000 NA
ATOM      5  C   UNL     1      49.144   7.251  15.295  0.00  0.00    +0.000 A 
ATOM      6  C   UNL     1      48.366   6.095  15.211  0.00  0.00    +0.000 A 
ATOM      7  C   UNL     1      47.639   5.939  14.021  0.00  0.00    +0.000 A 
BRANCH   6   8
ATOM      8  C   UNL     1      48.335   5.089  16.295  0.00  0.00    +0.000 A 
ATOM      9  C   UNL     1      47.307   4.134  16.390  0.00  0.00    +0.000 A 
ATOM     10  C   UNL     1      47.306   3.162  17.396  0.00  0.00    +0.000 A 
ATOM     11  C   UNL     1      48.328   3.132  18.339  0.00  0.00    +0.000 A 
ATOM     12  C   UNL     1      49.349   4.074  18.280  0.00  0.00    +0.000 A 
ATOM     13  C   UNL     1      49.352   5.038  17.267  0.00  0.00    +0.000 A 
ENDBRANCH   6   8
ENDBRANCH   1   2
BRANCH   1  14
ATOM     14  C   UNL     1      45.400   6.592  11.942  0.00  0.00    +0.000 C 
BRANCH  14  19
ATOM     15  C   UNL     1      44.529   3.286  10.491  0.00  0.00    +0.000 A 
ATOM     16  C   UNL     1      43.807   2.728  11.536  0.00  0.00    +0.000 A 
ATOM     17  N   UNL     1      43.577   3.379  12.700  0.00  0.00    +0.000 NA
ATOM     18  C   UNL     1      44.103   4.622  12.788  0.00  0.00    +0.000 A 
ATOM     19  C   UNL     1      44.831   5.208  11.758  0.00  0.00    +0.000 A 
ATOM     20  N   UNL     1      45.053   4.546  10.596  0.00  0.00    +0.000 NA
BRANCH  15  22
ATOM     21  F   UNL     1      44.221   3.089   8.111  0.00  0.00    +0.000 F 
ATOM     22  C   UNL     1      44.739   2.486   9.224  0.00  0.00    +0.000 C 
ATOM     23  F   UNL     1      44.158   1.254   9.270  0.00  0.00    +0.000 F 
ATOM     24  F   UNL     1      46.054   2.274   8.938  0.00  0.00    +0.000 F 
ENDBRANCH  15  22
ENDBRANCH  14  19
ENDBRANCH   1  14
TORSDOF 5
ENDMDL
