MODEL 1
REMARK VINA RESULT:    -8.333      0.000      0.000
REMARK INTER + INTRA:         -11.810
REMARK INTER:                 -10.768
REMARK INTRA:                  -1.042
REMARK UNBOUND:                -1.042
REMARK  Name = 
REMARK  5 active torsions:
REMARK  status: ('A' for Active; 'I' for Inactive)
REMARK    1  A    between atoms: C_2  and  C_19
REMARK    2  A    between atoms: N_3  and  C_4
REMARK    3  A    between atoms: C_4  and  C_5
REMARK    4  A    between atoms: C_8  and  C_9
REMARK    5  A    between atoms: C_9  and  N_10
REMARK                            x       y       z     vdW  Elec       q    Type
REMARK                         _______ _______ _______ _____ _____    ______ ____
ROOT
ATOM      1  C   UNL     1      47.303   8.510  13.168  0.00  0.00    +0.000 C 
ENDROOT
BRANCH   1   2
ATOM      2  C   UNL     1      46.474   7.453  12.482  0.00  0.00    +0.000 A 
ATOM      3  C   UNL     1      46.972   6.784  11.357  0.00  0.00    +0.000 A 
ATOM      4  C   UNL     1      46.199   5.823  10.704  0.00  0.00    +0.000 A 
ATOM      5  C   UNL     1      44.900   5.531  11.142  0.00  0.00    +0.000 A 
ATOM      6  C   UNL     1      44.392   6.214  12.256  0.00  0.00    +0.000 A 
ATOM      7  C   UNL     1      45.169   7.172  12.913  0.00  0.00    +0.000 A 
BRANCH   5   8
ATOM      8  C   UNL     1      44.060   4.507  10.413  0.00  0.00    +0.000 C 
BRANCH   8   9
ATOM      9  N   UNL     1      44.228   4.646   8.983  0.00  0.00    +0.000 N 
ATOM     10  C   UNL     1      45.071   3.680   8.449  0.00  0.00    +0.000 A 
ATOM     11  N   UNL     1      45.112   2.453   8.985  0.00  0.00    +0.000 NA
ATOM     12  C   UNL     1      45.950   1.557   8.439  0.00  0.00    +0.000 A 
ATOM     13  C   UNL     1      46.762   1.844   7.371  0.00  0.00    +0.000 A 
ATOM     14  C   UNL     1      46.659   3.126   6.892  0.00  0.00    +0.000 A 
ATOM     15  N   UNL     1      45.834   4.058   7.412  0.00  0.00    +0.000 NA
ATOM     16  H   UNL     1      44.570   5.544   8.664  0.00  0.00    +0.000 HD
ENDBRANCH   8   9
ENDBRANCH   5   8
ENDBRANCH   1   2
BRANCH   1  19
ATOM     17  O   UNL     1      49.532   6.904  13.951  0.00  0.00    +0.000 OA
ATOM     18  C   UNL     1      48.687   7.241  14.770  0.00  0.00    +0.000 C 
ATOM     19  N   UNL     1      47.631   8.079  14.497  0.00  0.00    +0.000 N 
ATOM     20  H   UNL     1      46.887   8.149  15.177  0.00  0.00    +0.000 HD
BRANCH  18  21
ATOM     21  C   UNL     1      48.557   6.636  16.089  0.00  0.00    +0.000 A 
ATOM     22  C   UNL     1      48.969   7.269  17.248  0.00  0.00    +0.000 A 
ATOM     23  S   UNL     1      49.198   6.153  18.532  0.00  0.00    +0.000 S 
ATOM     24  C   UNL     1      48.624   4.855  17.584  0.00  0.00    +0.000 A 
ATOM     25  N   UNL     1      48.674   3.562  18.002  0.00  0.00    +0.000 NA
ATOM     26  C   UNL     1      48.150   2.718  17.173  0.00  0.00    +0.000 A 
ATOM     27  N   UNL     1      47.534   3.050  15.990  0.00  0.00    +0.000 N 
ATOM     28  C   UNL     1      47.437   4.344  15.542  0.00  0.00    +0.000 A 
ATOM     29  O   UNL     1      46.802   4.638  14.536  0.00  0.00    +0.000 OA
ATOM     30  C   UNL     1      48.135   5.299  16.375  0.00  0.00    +0.000 A 
ATOM     31  H   UNL     1      47.064   2.352  15.433  0.00  0.00    +0.000 HD
ENDBRANCH  18  21
ENDBRANCH   1  19
TORSDOF 5
ENDMDL
MODEL 2
REMARK VINA RESULT:    -7.871      1.479      1.862
REMARK INTER + INTRA:         -11.214
REMARK INTER:                 -10.248
REMARK INTRA:                  -0.966
REMARK UNBOUND:                -1.042
REMARK  Name = 
REMARK  5 active torsions:
REMARK  status: ('A' for Active; 'I' for Inactive)
REMARK    1  A    between atoms: C_2  and  C_19
REMARK    2  A    between atoms: N_3  and  C_4
REMARK    3  A    between atoms: C_4  and  C_5
REMARK    4  A    between atoms: C_8  and  C_9
REMARK    5  A    between atoms: C_9  and  N_10
REMARK                            x       y       z     vdW  Elec       q    Type
REMARK                         _______ _______ _______ _____ _____    ______ ____
ROOT
ATOM      1  C   UNL     1      48.488   6.899  13.620  0.00  0.00    +0.000 C 
ENDROOT
BRANCH   1   2
ATOM      2  C   UNL     1      47.315   6.281  12.902  0.00  0.00    +0.000 A 
ATOM      3  C   UNL     1      46.760   5.078  13.359  0.00  0.00    +0.000 A 
ATOM      4  C   UNL     1      45.690   4.490  12.683  0.00  0.00    +0.000 A 
ATOM      5  C   UNL     1      45.172   5.072  11.518  0.00  0.00    +0.000 A 
ATOM      6  C   UNL     1      45.738   6.265  11.048  0.00  0.00    +0.000 A 
ATOM      7  C   UNL     1      46.806   6.857  11.728  0.00  0.00    +0.000 A 
BRANCH   5   8
ATOM      8  C   UNL     1      44.029   4.414  10.779  0.00  0.00    +0.000 C 
BRANCH   8   9
ATOM      9  N   UNL     1      44.135   4.675   9.360  0.00  0.00    +0.000 N 
ATOM     10  C   UNL     1      44.983   3.781   8.715  0.00  0.00    +0.000 A 
ATOM     11  N   UNL     1      45.079   2.517   9.146  0.00  0.00    +0.000 NA
ATOM     12  C   UNL     1      45.919   1.694   8.497  0.00  0.00    +0.000 A 
ATOM     13  C   UNL     1      46.679   2.093   7.426  0.00  0.00    +0.000 A 
ATOM     14  C   UNL     1      46.521   3.406   7.058  0.00  0.00    +0.000 A 
ATOM     15  N   UNL     1      45.692   4.266   7.684  0.00  0.00    +0.000 NA
ATOM     16  H   UNL     1      44.439   5.605   9.103  0.00  0.00    +0.000 HD
ENDBRANCH   8   9
ENDBRANCH   5   8
ENDBRANCH   1   2
BRANCH   1  19
ATOM     17  O   UNL     1      50.211   7.837  15.697  0.00  0.00    +0.000 OA
ATOM     18  C   UNL     1      49.038   7.574  15.929  0.00  0.00    +0.000 C 
ATOM     19  N   UNL     1      48.122   7.198  14.975  0.00  0.00    +0.000 N 
ATOM     20  H   UNL     1      47.237   6.822  15.283  0.00  0.00    +0.000 HD
BRANCH  18  21
ATOM     21  C   UNL     1      48.501   7.415  17.274  0.00  0.00    +0.000 A 
ATOM     22  C   UNL     1      48.101   8.486  18.053  0.00  0.00    +0.000 A 
ATOM     23  S   UNL     1      48.035   8.067  19.717  0.00  0.00    +0.000 S 
ATOM     24  C   UNL     1      48.408   6.436  19.382  0.00  0.00    +0.000 A 
ATOM     25  N   UNL     1      48.654   5.523  20.360  0.00  0.00    +0.000 NA
ATOM     26  C   UNL     1      48.871   4.325  19.922  0.00  0.00    +0.000 A 
ATOM     27  N   UNL     1      48.814   3.943  18.602  0.00  0.00    +0.000 N 
ATOM     28  C   UNL     1      48.542   4.825  17.586  0.00  0.00    +0.000 A 
ATOM     29  O   UNL     1      48.397   4.456  16.426  0.00  0.00    +0.000 OA
ATOM     30  C   UNL     1      48.432   6.198  18.025  0.00  0.00    +0.000 A 
ATOM     31  H   UNL     1      48.903   2.973  18.336  0.00  0.00    +0.000 HD
ENDBRANCH  18  21
ENDBRANCH   1  19
TORSDOF 5
ENDMDL
MODEL 3
REMARK VINA RESULT:    -7.871      1.884      2.619
REMARK INTER + INTRA:         -11.213
REMARK INTER:                 -10.415
REMARK INTRA:                  -0.799
REMARK UNBOUND:                -1.042
REMARK  Name = 
REMARK  5 active torsions:
REMARK  status: ('A' for Active; 'I' for Inactive)
REMARK    1  A    between atoms: C_2  and  C_19
REMARK    2  A    between atoms: N_3  and  C_4
REMARK    3  A    between atoms: C_4  and  C_5
REMARK    4  A    between atoms: C_8  and  C_9
REMARK    5  A    between atoms: C_9  and  N_10
REMARK                            x       y       z     vdW  Elec       q    Type
REMARK                         _______ _______ _______ _____ _____    ______ ____
ROOT
ATOM      1  C   UNL     1      47.845   7.177  13.413  0.00  0.00    +0.000 C 
ENDROOT
BRANCH   1   2
ATOM      2  C   UNL     1      46.838   6.365  12.638  0.00  0.00    +0.000 A 
ATOM      3  C   UNL     1      46.405   5.126  13.126  0.00  0.00    +0.000 A 
ATOM      4  C   UNL     1      45.491   4.359  12.400  0.00  0.00    +0.000 A 
ATOM      5  C   UNL     1      45.015   4.799  11.158  0.00  0.00    +0.000 A 
ATOM      6  C   UNL     1      45.462   6.030  10.659  0.00  0.00    +0.000 A 
ATOM      7  C   UNL     1      46.372   6.801  11.388  0.00  0.00    +0.000 A 
BRANCH   5   8
ATOM      8  C   UNL     1      44.045   3.950  10.367  0.00  0.00    +0.000 C 
BRANCH   8   9
ATOM      9  N   UNL     1      44.176   4.226   8.953  0.00  0.00    +0.000 N 
ATOM     10  C   UNL     1      45.126   3.420   8.338  0.00  0.00    +0.000 A 
ATOM     11  N   UNL     1      45.327   2.168   8.771  0.00  0.00    +0.000 NA
ATOM     12  C   UNL     1      46.263   1.432   8.151  0.00  0.00    +0.000 A 
ATOM     13  C   UNL     1      47.019   1.906   7.108  0.00  0.00    +0.000 A 
ATOM     14  C   UNL     1      46.750   3.199   6.736  0.00  0.00    +0.000 A 
ATOM     15  N   UNL     1      45.821   3.974   7.334  0.00  0.00    +0.000 NA
ATOM     16  H   UNL     1      44.398   5.182   8.709  0.00  0.00    +0.000 HD
ENDBRANCH   8   9
ENDBRANCH   5   8
ENDBRANCH   1   2
BRANCH   1  19
ATOM     17  O   UNL     1      50.097   6.821  15.134  0.00  0.00    +0.000 OA
ATOM     18  C   UNL     1      48.965   6.566  15.525  0.00  0.00    +0.000 C 
ATOM     19  N   UNL     1      47.822   6.787  14.794  0.00  0.00    +0.000 N 
ATOM     20  H   UNL     1      46.959   6.375  15.118  0.00  0.00    +0.000 HD
BRANCH  18  21
ATOM     21  C   UNL     1      48.685   5.798  16.731  0.00  0.00    +0.000 A 
ATOM     22  C   UNL     1      48.300   4.469  16.700  0.00  0.00    +0.000 A 
ATOM     23  S   UNL     1      47.532   3.999  18.163  0.00  0.00    +0.000 S 
ATOM     24  C   UNL     1      47.832   5.520  18.877  0.00  0.00    +0.000 A 
ATOM     25  N   UNL     1      47.323   5.876  20.087  0.00  0.00    +0.000 NA
ATOM     26  C   UNL     1      47.694   7.047  20.493  0.00  0.00    +0.000 A 
ATOM     27  N   UNL     1      48.568   7.873  19.828  0.00  0.00    +0.000 N 
ATOM     28  C   UNL     1      49.127   7.543  18.619  0.00  0.00    +0.000 A 
ATOM     29  O   UNL     1      49.979   8.244  18.083  0.00  0.00    +0.000 OA
ATOM     30  C   UNL     1      48.626   6.303  18.069  0.00  0.00    +0.000 A 
ATOM     31  H   UNL     1      48.889   8.736  20.244  0.00  0.00    +0.000 HD
ENDBRANCH  18  21
ENDBRANCH   1  19
TORSDOF 5
ENDMDL
MODEL 4
REMARK VINA RESULT:    -7.311      2.377      4.248
REMARK INTER + INTRA:         -10.489
REMARK INTER:                  -9.586
REMARK INTRA:                  -0.903
REMARK UNBOUND:                -1.042
REMARK  Name = 
REMARK  5 active torsions:
REMARK  status: ('A' for Active; 'I' for Inactive)
REMARK    1  A    between atoms: C_2  and  C_19
REMARK    2  A    between atoms: N_3  and  C_4
REMARK    3  A    between atoms: C_4  and  C_5
REMARK    4  A    between atoms: C_8  and  C_9
REMARK    5  A    between atoms: C_9  and  N_10
REMARK                            x       y       z     vdW  Elec       q    Type
REMARK                         _______ _______ _______ _____ _____    ______ ____
ROOT
ATOM      1  C   UNL     1      47.654   5.602  14.529  0.00  0.00    +0.000 C 
ENDROOT
BRANCH   1   2
ATOM      2  C   UNL     1      46.666   5.219  13.456  0.00  0.00    +0.000 A 
ATOM      3  C   UNL     1      46.077   6.203  12.652  0.00  0.00    +0.000 A 
ATOM      4  C   UNL     1      45.145   5.855  11.674  0.00  0.00    +0.000 A 
ATOM      5  C   UNL     1      44.757   4.520  11.497  0.00  0.00    +0.000 A 
ATOM      6  C   UNL     1      45.331   3.535  12.313  0.00  0.00    +0.000 A 
ATOM      7  C   UNL     1      46.269   3.883  13.289  0.00  0.00    +0.000 A 
BRANCH   5   8
ATOM      8  C   UNL     1      43.727   4.155  10.452  0.00  0.00    +0.000 C 
BRANCH   8   9
ATOM      9  N   UNL     1      44.156   4.609   9.147  0.00  0.00    +0.000 N 
ATOM     10  C   UNL     1      45.078   3.751   8.560  0.00  0.00    +0.000 A 
ATOM     11  N   UNL     1      45.014   2.433   8.795  0.00  0.00    +0.000 NA
ATOM     12  C   UNL     1      45.933   1.646   8.213  0.00  0.00    +0.000 A 
ATOM     13  C   UNL     1      46.929   2.131   7.403  0.00  0.00    +0.000 A 
ATOM     14  C   UNL     1      46.922   3.492   7.224  0.00  0.00    +0.000 A 
ATOM     15  N   UNL     1      46.019   4.319   7.792  0.00  0.00    +0.000 NA
ATOM     16  H   UNL     1      44.554   5.538   9.112  0.00  0.00    +0.000 HD
ENDBRANCH   8   9
ENDBRANCH   5   8
ENDBRANCH   1   2
BRANCH   1  19
ATOM     17  O   UNL     1      50.183   6.575  15.431  0.00  0.00    +0.000 OA
ATOM     18  C   UNL     1      49.454   7.277  14.744  0.00  0.00    +0.000 C 
ATOM     19  N   UNL     1      48.262   6.860  14.199  0.00  0.00    +0.000 N 
ATOM     20  H   UNL     1      47.644   7.556  13.808  0.00  0.00    +0.000 HD
BRANCH  18  21
ATOM     21  C   UNL     1      49.638   8.713  14.581  0.00  0.00    +0.000 A 
ATOM     22  C   UNL     1      50.106   9.528  15.596  0.00  0.00    +0.000 A 
ATOM     23  S   UNL     1      49.713  11.176  15.316  0.00  0.00    +0.000 S 
ATOM     24  C   UNL     1      49.042  10.817  13.789  0.00  0.00    +0.000 A 
ATOM     25  N   UNL     1      48.383  11.742  13.041  0.00  0.00    +0.000 NA
ATOM     26  C   UNL     1      47.984  11.304  11.890  0.00  0.00    +0.000 A 
ATOM     27  N   UNL     1      48.229  10.046  11.395  0.00  0.00    +0.000 N 
ATOM     28  C   UNL     1      48.914   9.090  12.103  0.00  0.00    +0.000 A 
ATOM     29  O   UNL     1      49.211   8.006  11.614  0.00  0.00    +0.000 OA
ATOM     30  C   UNL     1      49.253   9.499  13.449  0.00  0.00    +0.000 A 
ATOM     31  H   UNL     1      47.970   9.797  10.451  0.00  0.00    +0.000 HD
ENDBRANCH  18  21
ENDBRANCH   1  19
TORSDOF 5
ENDMDL
MODEL 5
REMARK VINA RESULT:    -7.019      3.128      4.570
REMARK INTER + INTRA:         -10.113
REMARK INTER:                  -9.341
REMARK INTRA:                  -0.772
REMARK UNBOUND:                -1.042
REMARK  Name = 
REMARK  5 active torsions:
REMARK  status: ('A' for Active; 'I' for Inactive)
REMARK    1  A    between atoms: C_2  and  C_19
REMARK    2  A    between atoms: N_3  and  C_4
REMARK    3  A    between atoms: C_4  and  C_5
REMARK    4  A    between atoms: C_8  and  C_9
REMARK    5  A    between atoms: C_9  and  N_10
REMARK                            x       y       z     vdW  Elec       q    Type
REMARK                         _______ _______ _______ _____ _____    ______ ____
ROOT
ATOM      1  C   UNL     1      47.508   5.833  14.130  0.00  0.00    +0.000 C 
ENDROOT
BRANCH   1   2
ATOM      2  C   UNL     1      46.595   5.319  13.045  0.00  0.00    +0.000 A 
ATOM      3  C   UNL     1      46.288   6.124  11.941  0.00  0.00    +0.000 A 
ATOM      4  C   UNL     1      45.425   5.661  10.946  0.00  0.00    +0.000 A 
ATOM      5  C   UNL     1      44.825   4.399  11.048  0.00  0.00    +0.000 A 
ATOM      6  C   UNL     1      45.116   3.600  12.163  0.00  0.00    +0.000 A 
ATOM      7  C   UNL     1      45.986   4.060  13.155  0.00  0.00    +0.000 A 
BRANCH   5   8
ATOM      8  C   UNL     1      43.872   3.917   9.979  0.00  0.00    +0.000 C 
BRANCH   8   9
ATOM      9  N   UNL     1      44.343   4.316   8.670  0.00  0.00    +0.000 N 
ATOM     10  C   UNL     1      45.333   3.473   8.180  0.00  0.00    +0.000 A 
ATOM     11  N   UNL     1      45.319   2.170   8.490  0.00  0.00    +0.000 NA
ATOM     12  C   UNL     1      46.303   1.398   8.000  0.00  0.00    +0.000 A 
ATOM     13  C   UNL     1      47.314   1.884   7.210  0.00  0.00    +0.000 A 
ATOM     14  C   UNL     1      47.251   3.231   6.950  0.00  0.00    +0.000 A 
ATOM     15  N   UNL     1      46.284   4.043   7.425  0.00  0.00    +0.000 NA
ATOM     16  H   UNL     1      44.698   5.261   8.599  0.00  0.00    +0.000 HD
ENDBRANCH   8   9
ENDBRANCH   5   8
ENDBRANCH   1   2
BRANCH   1  19
ATOM     17  O   UNL     1      49.009   7.859  15.473  0.00  0.00    +0.000 OA
ATOM     18  C   UNL     1      49.126   7.692  14.266  0.00  0.00    +0.000 C 
ATOM     19  N   UNL     1      48.507   6.689  13.557  0.00  0.00    +0.000 N 
ATOM     20  H   UNL     1      48.511   6.743  12.548  0.00  0.00    +0.000 HD
BRANCH  18  21
ATOM     21  C   UNL     1      49.765   8.654  13.378  0.00  0.00    +0.000 A 
ATOM     22  C   UNL     1      49.049   9.542  12.595  0.00  0.00    +0.000 A 
ATOM     23  S   UNL     1      49.996  10.146  11.297  0.00  0.00    +0.000 S 
ATOM     24  C   UNL     1      51.387   9.331  11.855  0.00  0.00    +0.000 A 
ATOM     25  N   UNL     1      52.547   9.286  11.145  0.00  0.00    +0.000 NA
ATOM     26  C   UNL     1      53.510   8.665  11.745  0.00  0.00    +0.000 A 
ATOM     27  N   UNL     1      53.440   8.130  13.010  0.00  0.00    +0.000 N 
ATOM     28  C   UNL     1      52.300   8.177  13.772  0.00  0.00    +0.000 A 
ATOM     29  O   UNL     1      52.277   7.784  14.934  0.00  0.00    +0.000 OA
ATOM     30  C   UNL     1      51.162   8.740  13.079  0.00  0.00    +0.000 A 
ATOM     31  H   UNL     1      54.256   7.739  13.457  0.00  0.00    +0.000 HD
ENDBRANCH  18  21
ENDBRANCH   1  19
TORSDOF 5
ENDMDL
MODEL 6
REMARK VINA RESULT:    -6.846      2.624      4.090
REMARK INTER + INTRA:          -9.889
REMARK INTER:                  -9.328
REMARK INTRA:                  -0.561
REMARK UNBOUND:                -1.042
REMARK  Name = 
REMARK  5 active torsions:
REMARK  status: ('A' for Active; 'I' for Inactive)
REMARK    1  A    between atoms: C_2  and  C_19
REMARK    2  A    between atoms: N_3  and  C_4
REMARK    3  A    between atoms: C_4  and  C_5
REMARK    4  A    between atoms: C_8  and  C_9
REMARK    5  A    between atoms: C_9  and  N_10
REMARK                            x       y       z     vdW  Elec       q    Type
REMARK                         _______ _______ _______ _____ _____    ______ ____
ROOT
ATOM      1  C   UNL     1      46.235   7.641  13.283  0.00  0.00    +0.000 C 
ENDROOT
BRANCH   1   2
ATOM      2  C   UNL     1      45.727   6.496  12.442  0.00  0.00    +0.000 A 
ATOM      3  C   UNL     1      45.122   5.388  13.049  0.00  0.00    +0.000 A 
ATOM      4  C   UNL     1      44.671   4.317  12.277  0.00  0.00    +0.000 A 
ATOM      5  C   UNL     1      44.843   4.313  10.886  0.00  0.00    +0.000 A 
ATOM      6  C   UNL     1      45.466   5.412  10.279  0.00  0.00    +0.000 A 
ATOM      7  C   UNL     1      45.912   6.489  11.051  0.00  0.00    +0.000 A 
BRANCH   5   8
ATOM      8  C   UNL     1      44.375   3.136  10.061  0.00  0.00    +0.000 C 
BRANCH   8   9
ATOM      9  N   UNL     1      44.391   3.473   8.654  0.00  0.00    +0.000 N 
ATOM     10  C   UNL     1      45.435   2.861   7.971  0.00  0.00    +0.000 A 
ATOM     11  N   UNL     1      45.866   1.650   8.348  0.00  0.00    +0.000 NA
ATOM     12  C   UNL     1      46.884   1.105   7.663  0.00  0.00    +0.000 A 
ATOM     13  C   UNL     1      47.499   1.733   6.609  0.00  0.00    +0.000 A 
ATOM     14  C   UNL     1      46.996   2.971   6.297  0.00  0.00    +0.000 A 
ATOM     15  N   UNL     1      45.978   3.557   6.961  0.00  0.00    +0.000 NA
ATOM     16  H   UNL     1      44.435   4.460   8.437  0.00  0.00    +0.000 HD
ENDBRANCH   8   9
ENDBRANCH   5   8
ENDBRANCH   1   2
BRANCH   1  19
ATOM     17  O   UNL     1      48.061   5.975  14.715  0.00  0.00    +0.000 OA
ATOM     18  C   UNL     1      48.470   6.889  14.011  0.00  0.00    +0.000 C 
ATOM     19  N   UNL     1      47.668   7.683  13.225  0.00  0.00    +0.000 N 
ATOM     20  H   UNL     1      48.066   8.523  12.830  0.00  0.00    +0.000 HD
BRANCH  18  21
ATOM     21  C   UNL     1      49.832   7.402  14.070  0.00  0.00    +0.000 A 
ATOM     22  C   UNL     1      50.624   7.300  15.199  0.00  0.00    +0.000 A 
ATOM     23  S   UNL     1      51.918   8.429  15.169  0.00  0.00    +0.000 S 
ATOM     24  C   UNL     1      51.499   8.955  13.601  0.00  0.00    +0.000 A 
ATOM     25  N   UNL     1      52.100  10.016  12.997  0.00  0.00    +0.000 NA
ATOM     26  C   UNL     1      51.689  10.240  11.791  0.00  0.00    +0.000 A 
ATOM     27  N   UNL     1      50.773   9.472  11.113  0.00  0.00    +0.000 N 
ATOM     28  C   UNL     1      50.162   8.378  11.672  0.00  0.00    +0.000 A 
ATOM     29  O   UNL     1      49.421   7.645  11.027  0.00  0.00    +0.000 OA
ATOM     30  C   UNL     1      50.493   8.181  13.067  0.00  0.00    +0.000 A 
ATOM     31  H   UNL     1      50.564   9.647  10.140  0.00  0.00    +0.000 HD
ENDBRANCH  18  21
ENDBRANCH   1  19
TORSDOF 5
ENDMDL
MODEL 7
REMARK VINA RESULT:    -6.844      3.091      4.087
REMARK INTER + INTRA:          -9.886
REMARK INTER:                  -9.199
REMARK INTRA:                  -0.687
REMARK UNBOUND:                -1.042
REMARK  Name = 
REMARK  5 active torsions:
REMARK  status: ('A' for Active; 'I' for Inactive)
REMARK    1  A    between atoms: C_2  and  C_19
REMARK    2  A    between atoms: N_3  and  C_4
REMARK    3  A    between atoms: C_4  and  C_5
REMARK    4  A    between atoms: C_8  and  C_9
REMARK    5  A    between atoms: C_9  and  N_10
REMARK                            x       y       z     vdW  Elec       q    Type
REMARK                         _______ _______ _______ _____ _____    ______ ____
ROOT
ATOM      1  C   UNL     1      46.320   7.539  13.060  0.00  0.00    +0.000 C 
ENDROOT
BRANCH   1   2
ATOM      2  C   UNL     1      45.838   6.336  12.288  0.00  0.00    +0.000 A 
ATOM      3  C   UNL     1      45.559   5.135  12.953  0.00  0.00    +0.000 A 
ATOM      4  C   UNL     1      45.135   4.013  12.240  0.00  0.00    +0.000 A 
ATOM      5  C   UNL     1      45.011   4.055  10.845  0.00  0.00    +0.000 A 
ATOM      6  C   UNL     1      45.308   5.251  10.175  0.00  0.00    +0.000 A 
ATOM      7  C   UNL     1      45.726   6.377  10.890  0.00  0.00    +0.000 A 
BRANCH   5   8
ATOM      8  C   UNL     1      44.575   2.827  10.079  0.00  0.00    +0.000 C 
BRANCH   8   9
ATOM      9  N   UNL     1      44.398   3.147   8.679  0.00  0.00    +0.000 N 
ATOM     10  C   UNL     1      45.472   2.737   7.898  0.00  0.00    +0.000 A 
ATOM     11  N   UNL     1      46.157   1.633   8.225  0.00  0.00    +0.000 NA
ATOM     12  C   UNL     1      47.193   1.283   7.445  0.00  0.00    +0.000 A 
ATOM     13  C   UNL     1      47.578   2.006   6.344  0.00  0.00    +0.000 A 
ATOM     14  C   UNL     1      46.824   3.124   6.089  0.00  0.00    +0.000 A 
ATOM     15  N   UNL     1      45.779   3.513   6.848  0.00  0.00    +0.000 NA
ATOM     16  H   UNL     1      44.235   4.122   8.466  0.00  0.00    +0.000 HD
ENDBRANCH   8   9
ENDBRANCH   5   8
ENDBRANCH   1   2
BRANCH   1  19
ATOM     17  O   UNL     1      48.708   6.220  13.909  0.00  0.00    +0.000 OA
ATOM     18  C   UNL     1      48.763   7.211  13.192  0.00  0.00    +0.000 C 
ATOM     19  N   UNL     1      47.665   7.855  12.671  0.00  0.00    +0.000 N 
ATOM     20  H   UNL     1      47.797   8.764  12.251  0.00  0.00    +0.000 HD
BRANCH  18  21
ATOM     21  C   UNL     1      49.983   7.973  12.964  0.00  0.00    +0.000 A 
ATOM     22  C   UNL     1      50.573   8.088  11.718  0.00  0.00    +0.000 A 
ATOM     23  S   UNL     1      52.221   8.555  11.839  0.00  0.00    +0.000 S 
ATOM     24  C   UNL     1      52.108   8.730  13.533  0.00  0.00    +0.000 A 
ATOM     25  N   UNL     1      53.190   8.975  14.320  0.00  0.00    +0.000 NA
ATOM     26  C   UNL     1      52.908   9.126  15.574  0.00  0.00    +0.000 A 
ATOM     27  N   UNL     1      51.642   9.107  16.107  0.00  0.00    +0.000 N 
ATOM     28  C   UNL     1      50.519   8.891  15.347  0.00  0.00    +0.000 A 
ATOM     29  O   UNL     1      49.390   8.973  15.816  0.00  0.00    +0.000 OA
ATOM     30  C   UNL     1      50.808   8.580  13.964  0.00  0.00    +0.000 A 
ATOM     31  H   UNL     1      51.483   9.323  17.081  0.00  0.00    +0.000 HD
ENDBRANCH  18  21
ENDBRANCH   1  19
TORSDOF 5
ENDMDL
MODEL 8
REMARK VINA RESULT:    -6.734      3.950      5.840
REMARK INTER + INTRA:          -9.744
REMARK INTER:                  -8.738
REMARK INTRA:                  -1.006
REMARK UNBOUND:                -1.042
REMARK  Name = 
REMARK  5 active torsions:
REMARK  status: ('A' for Active; 'I' for Inactive)
REMARK    1  A    between atoms: C_2  and  C_19
REMARK    2  A    between atoms: N_3  and  C_4
REMARK    3  A    between atoms: C_4  and  C_5
REMARK    4  A    between atoms: C_8  and  C_9
REMARK    5  A    between atoms: C_9  and  N_10
REMARK                            x       y       z     vdW  Elec       q    Type
REMARK                         _______ _______ _______ _____ _____    ______ ____
ROOT
ATOM      1  C   UNL     1      49.276   7.174  13.798  0.00  0.00    +0.000 C 
ENDROOT
BRANCH   1   2
ATOM      2  C   UNL     1      48.074   6.562  13.123  0.00  0.00    +0.000 A 
ATOM      3  C   UNL     1      47.659   7.022  11.867  0.00  0.00    +0.000 A 
ATOM      4  C   UNL     1      46.533   6.475  11.249  0.00  0.00    +0.000 A 
ATOM      5  C   UNL     1      45.779   5.480  11.886  0.00  0.00    +0.000 A 
ATOM      6  C   UNL     1      46.182   5.032  13.152  0.00  0.00    +0.000 A 
ATOM      7  C   UNL     1      47.313   5.575  13.768  0.00  0.00    +0.000 A 
BRANCH   5   8
ATOM      8  C   UNL     1      44.546   4.912  11.221  0.00  0.00    +0.000 C 
BRANCH   8   9
ATOM      9  N   UNL     1      44.571   5.189   9.801  0.00  0.00    +0.000 N 
ATOM     10  C   UNL     1      45.171   4.172   9.069  0.00  0.00    +0.000 A 
ATOM     11  N   UNL     1      45.065   2.900   9.475  0.00  0.00    +0.000 NA
ATOM     12  C   UNL     1      45.671   1.953   8.740  0.00  0.00    +0.000 A 
ATOM     13  C   UNL     1      46.392   2.233   7.606  0.00  0.00    +0.000 A 
ATOM     14  C   UNL     1      46.453   3.563   7.270  0.00  0.00    +0.000 A 
ATOM     15  N   UNL     1      45.862   4.545   7.982  0.00  0.00    +0.000 NA
ATOM     16  H   UNL     1      45.020   6.053   9.528  0.00  0.00    +0.000 HD
ENDBRANCH   8   9
ENDBRANCH   5   8
ENDBRANCH   1   2
BRANCH   1  19
ATOM     17  O   UNL     1      51.290   9.181  14.078  0.00  0.00    +0.000 OA
ATOM     18  C   UNL     1      51.119   8.612  13.007  0.00  0.00    +0.000 C 
ATOM     19  N   UNL     1      50.232   7.580  12.808  0.00  0.00    +0.000 N 
ATOM     20  H   UNL     1      50.025   7.303  11.859  0.00  0.00    +0.000 HD
BRANCH  18  21
ATOM     21  C   UNL     1      51.673   9.087  11.746  0.00  0.00    +0.000 A 
ATOM     22  C   UNL     1      52.905   8.678  11.267  0.00  0.00    +0.000 A 
ATOM     23  S   UNL     1      53.521   9.770  10.094  0.00  0.00    +0.000 S 
ATOM     24  C   UNL     1      52.095  10.706  10.130  0.00  0.00    +0.000 A 
ATOM     25  N   UNL     1      51.977  11.890   9.471  0.00  0.00    +0.000 NA
ATOM     26  C   UNL     1      50.808  12.437   9.572  0.00  0.00    +0.000 A 
ATOM     27  N   UNL     1      49.732  11.886  10.226  0.00  0.00    +0.000 N 
ATOM     28  C   UNL     1      49.798  10.682  10.880  0.00  0.00    +0.000 A 
ATOM     29  O   UNL     1      48.808  10.155  11.376  0.00  0.00    +0.000 OA
ATOM     30  C   UNL     1      51.126  10.110  10.907  0.00  0.00    +0.000 A 
ATOM     31  H   UNL     1      48.821  12.321  10.189  0.00  0.00    +0.000 HD
ENDBRANCH  18  21
ENDBRANCH   1  19
TORSDOF 5
ENDMDL
MODEL 9
REMARK VINA RESULT:    -6.724      3.406      5.507
REMARK INTER + INTRA:          -9.732
REMARK INTER:                  -8.923
REMARK INTRA:                  -0.809
REMARK UNBOUND:                -1.042
REMARK  Name = 
REMARK  5 active torsions:
REMARK  status: ('A' for Active; 'I' for Inactive)
REMARK    1  A    between atoms: C_2  and  C_19
REMARK    2  A    between atoms: N_3  and  C_4
REMARK    3  A    between atoms: C_4  and  C_5
REMARK    4  A    between atoms: C_8  and  C_9
REMARK    5  A    between atoms: C_9  and  N_10
REMARK                            x       y       z     vdW  Elec       q    Type
REMARK                         _______ _______ _______ _____ _____    ______ ____
ROOT
ATOM      1  C   UNL     1      48.555   6.828  13.583  0.00  0.00    +0.000 C 
ENDROOT
BRANCH   1   2
ATOM      2  C   UNL     1      47.424   6.177  12.826  0.00  0.00    +0.000 A 
ATOM      3  C   UNL     1      46.969   6.730  11.622  0.00  0.00    +0.000 A 
ATOM      4  C   UNL     1      45.908   6.144  10.931  0.00  0.00    +0.000 A 
ATOM      5  C   UNL     1      45.256   5.014  11.442  0.00  0.00    +0.000 A 
ATOM      6  C   UNL     1      45.697   4.470  12.657  0.00  0.00    +0.000 A 
ATOM      7  C   UNL     1      46.765   5.053  13.346  0.00  0.00    +0.000 A 
BRANCH   5   8
ATOM      8  C   UNL     1      44.090   4.402  10.699  0.00  0.00    +0.000 C 
BRANCH   8   9
ATOM      9  N   UNL     1      44.219   4.644   9.278  0.00  0.00    +0.000 N 
ATOM     10  C   UNL     1      45.051   3.722   8.654  0.00  0.00    +0.000 A 
ATOM     11  N   UNL     1      45.110   2.460   9.101  0.00  0.00    +0.000 NA
ATOM     12  C   UNL     1      45.937   1.609   8.471  0.00  0.00    +0.000 A 
ATOM     13  C   UNL     1      46.719   1.976   7.405  0.00  0.00    +0.000 A 
ATOM     14  C   UNL     1      46.598   3.288   7.020  0.00  0.00    +0.000 A 
ATOM     15  N   UNL     1      45.784   4.177   7.627  0.00  0.00    +0.000 NA
ATOM     16  H   UNL     1      44.549   5.563   9.015  0.00  0.00    +0.000 HD
ENDBRANCH   8   9
ENDBRANCH   5   8
ENDBRANCH   1   2
BRANCH   1  19
ATOM     17  O   UNL     1      48.047   9.420  14.670  0.00  0.00    +0.000 OA
ATOM     18  C   UNL     1      48.522   9.295  13.549  0.00  0.00    +0.000 C 
ATOM     19  N   UNL     1      48.874   8.091  12.983  0.00  0.00    +0.000 N 
ATOM     20  H   UNL     1      49.077   8.068  11.994  0.00  0.00    +0.000 HD
BRANCH  18  21
ATOM     21  C   UNL     1      48.582  10.377  12.575  0.00  0.00    +0.000 A 
ATOM     22  C   UNL     1      47.462  11.074  12.158  0.00  0.00    +0.000 A 
ATOM     23  S   UNL     1      47.736  11.878  10.666  0.00  0.00    +0.000 S 
ATOM     24  C   UNL     1      49.376  11.408  10.647  0.00  0.00    +0.000 A 
ATOM     25  N   UNL     1      50.192  11.631   9.582  0.00  0.00    +0.000 NA
ATOM     26  C   UNL     1      51.415  11.250   9.764  0.00  0.00    +0.000 A 
ATOM     27  N   UNL     1      51.912  10.717  10.929  0.00  0.00    +0.000 N 
ATOM     28  C   UNL     1      51.132  10.500  12.038  0.00  0.00    +0.000 A 
ATOM     29  O   UNL     1      51.605  10.115  13.101  0.00  0.00    +0.000 OA
ATOM     30  C   UNL     1      49.730  10.783  11.823  0.00  0.00    +0.000 A 
ATOM     31  H   UNL     1      52.898  10.526  11.036  0.00  0.00    +0.000 HD
ENDBRANCH  18  21
ENDBRANCH   1  19
TORSDOF 5
ENDMDL
