MODEL 1
REMARK VINA RESULT:    -8.757      0.000      0.000
REMARK INTER + INTRA:         -14.141
REMARK INTER:                 -12.852
REMARK INTRA:                  -1.289
REMARK UNBOUND:                -1.289
REMARK  Name = 
REMARK  9 active torsions:
REMARK  status: ('A' for Active; 'I' for Inactive)
REMARK    1  A    between atoms: C_1  and  C_2
REMARK    2  A    between atoms: C_2  and  C_3
REMARK    3  A    between atoms: C_3  and  N_4
REMARK    4  A    between atoms: C_3  and  C_12
REMARK    5  A    between atoms: N_4  and  C_5
REMARK    6  A    between atoms: C_5  and  C_6
REMARK    7  A    between atoms: C_15  and  C_16
REMARK    8  A    between atoms: C_16  and  N_17
REMARK    9  A    between atoms: C_18  and  C_20
REMARK                            x       y       z     vdW  Elec       q    Type
REMARK                         _______ _______ _______ _____ _____    ______ ____
ROOT
ATOM      1  C   UNL     1      45.450   4.509  12.220  0.00  0.00    +0.000 A 
ATOM      2  C   UNL     1      45.929   5.645  11.541  0.00  0.00    +0.000 A 
ATOM      3  C   UNL     1      46.909   6.470  12.106  0.00  0.00    +0.000 A 
ATOM      4  C   UNL     1      47.481   6.144  13.340  0.00  0.00    +0.000 A 
ATOM      5  C   UNL     1      47.024   5.006  14.013  0.00  0.00    +0.000 A 
ATOM      6  C   UNL     1      46.018   4.207  13.467  0.00  0.00    +0.000 A 
ENDROOT
BRANCH   1   7
ATOM      7  C   UNL     1      44.271   3.711  11.645  0.00  0.00    +0.000 C 
BRANCH   7   9
ATOM      8  C   UNL     1      42.361   5.477  11.791  0.00  0.00    +0.000 C 
ATOM      9  C   UNL     1      43.272   4.640  10.904  0.00  0.00    +0.000 C 
ENDBRANCH   7   9
BRANCH   7  10
ATOM     10  N   UNL     1      44.726   2.610  10.766  0.00  0.00    +0.000 NA
ATOM     11  H   UNL     1      44.284   1.744  11.068  0.00  0.00    +0.000 HD
BRANCH  10  12
ATOM     12  C   UNL     1      44.371   2.845   9.358  0.00  0.00    +0.000 C 
BRANCH  12  13
ATOM     13  C   UNL     1      45.490   2.613   8.369  0.00  0.00    +0.000 A 
ATOM     14  C   UNL     1      46.108   1.348   8.322  0.00  0.00    +0.000 A 
ATOM     15  C   UNL     1      47.065   1.053   7.352  0.00  0.00    +0.000 A 
ATOM     16  C   UNL     1      47.410   2.019   6.411  0.00  0.00    +0.000 A 
ATOM     17  C   UNL     1      46.810   3.277   6.447  0.00  0.00    +0.000 A 
ATOM     18  C   UNL     1      45.851   3.573   7.418  0.00  0.00    +0.000 A 
ENDBRANCH  12  13
ENDBRANCH  10  12
ENDBRANCH   7  10
ENDBRANCH   1   7
BRANCH   4  19
ATOM     19  C   UNL     1      48.537   7.014  13.966  0.00  0.00    +0.000 C 
BRANCH  19  20
ATOM     20  N   UNL     1      48.333   7.134  15.387  0.00  0.00    +0.000 N 
ATOM     21  C   UNL     1      49.287   6.713  16.278  0.00  0.00    +0.000 C 
ATOM     22  O   UNL     1      50.369   6.263  15.910  0.00  0.00    +0.000 OA
ATOM     23  H   UNL     1      47.379   7.268  15.707  0.00  0.00    +0.000 HD
BRANCH  21  24
ATOM     24  C   UNL     1      48.976   6.891  17.701  0.00  0.00    +0.000 A 
ATOM     25  C   UNL     1      48.777   8.171  18.206  0.00  0.00    +0.000 A 
ATOM     26  S   UNL     1      48.353   8.197  19.857  0.00  0.00    +0.000 S 
ATOM     27  C   UNL     1      48.477   6.504  19.972  0.00  0.00    +0.000 A 
ATOM     28  N   UNL     1      48.253   5.866  21.152  0.00  0.00    +0.000 NA
ATOM     29  C   UNL     1      48.411   4.585  21.103  0.00  0.00    +0.000 A 
ATOM     30  N   UNL     1      48.771   3.884  19.981  0.00  0.00    +0.000 N 
ATOM     31  C   UNL     1      48.983   4.482  18.762  0.00  0.00    +0.000 A 
ATOM     32  O   UNL     1      49.270   3.822  17.769  0.00  0.00    +0.000 OA
ATOM     33  C   UNL     1      48.823   5.925  18.764  0.00  0.00    +0.000 A 
ATOM     34  H   UNL     1      48.875   2.880  20.011  0.00  0.00    +0.000 HD
ENDBRANCH  21  24
ENDBRANCH  19  20
ENDBRANCH   4  19
TORSDOF 8
ENDMDL
MODEL 2
REMARK VINA RESULT:    -8.499      1.462      2.208
REMARK INTER + INTRA:         -13.762
REMARK INTER:                 -12.318
REMARK INTRA:                  -1.444
REMARK UNBOUND:                -1.289
REMARK  Name = 
REMARK  9 active torsions:
REMARK  status: ('A' for Active; 'I' for Inactive)
REMARK    1  A    between atoms: C_1  and  C_2
REMARK    2  A    between atoms: C_2  and  C_3
REMARK    3  A    between atoms: C_3  and  N_4
REMARK    4  A    between atoms: C_3  and  C_12
REMARK    5  A    between atoms: N_4  and  C_5
REMARK    6  A    between atoms: C_5  and  C_6
REMARK    7  A    between atoms: C_15  and  C_16
REMARK    8  A    between atoms: C_16  and  N_17
REMARK    9  A    between atoms: C_18  and  C_20
REMARK                            x       y       z     vdW  Elec       q    Type
REMARK                         _______ _______ _______ _____ _____    ______ ____
ROOT
ATOM      1  C   UNL     1      45.637   5.013  11.900  0.00  0.00    +0.000 A 
ATOM      2  C   UNL     1      46.009   4.431  13.127  0.00  0.00    +0.000 A 
ATOM      3  C   UNL     1      46.973   5.025  13.950  0.00  0.00    +0.000 A 
ATOM      4  C   UNL     1      47.546   6.251  13.596  0.00  0.00    +0.000 A 
ATOM      5  C   UNL     1      47.169   6.844  12.387  0.00  0.00    +0.000 A 
ATOM      6  C   UNL     1      46.237   6.230  11.547  0.00  0.00    +0.000 A 
ENDROOT
BRANCH   1   7
ATOM      7  C   UNL     1      44.691   4.263  10.950  0.00  0.00    +0.000 C 
BRANCH   7   9
ATOM      8  C   UNL     1      42.522   5.436  11.792  0.00  0.00    +0.000 C 
ATOM      9  C   UNL     1      43.270   4.130  11.562  0.00  0.00    +0.000 C 
ENDBRANCH   7   9
BRANCH   7  10
ATOM     10  N   UNL     1      44.638   4.894   9.612  0.00  0.00    +0.000 NA
ATOM     11  H   UNL     1      45.538   5.326   9.417  0.00  0.00    +0.000 HD
BRANCH  10  12
ATOM     12  C   UNL     1      44.353   3.915   8.552  0.00  0.00    +0.000 C 
BRANCH  12  13
ATOM     13  C   UNL     1      45.548   3.120   8.078  0.00  0.00    +0.000 A 
ATOM     14  C   UNL     1      45.637   1.754   8.416  0.00  0.00    +0.000 A 
ATOM     15  C   UNL     1      46.660   0.955   7.908  0.00  0.00    +0.000 A 
ATOM     16  C   UNL     1      47.603   1.511   7.049  0.00  0.00    +0.000 A 
ATOM     17  C   UNL     1      47.532   2.860   6.709  0.00  0.00    +0.000 A 
ATOM     18  C   UNL     1      46.506   3.662   7.216  0.00  0.00    +0.000 A 
ENDBRANCH  12  13
ENDBRANCH  10  12
ENDBRANCH   7  10
ENDBRANCH   1   7
BRANCH   4  19
ATOM     19  C   UNL     1      48.583   6.909  14.465  0.00  0.00    +0.000 C 
BRANCH  19  20
ATOM     20  N   UNL     1      48.310   6.682  15.861  0.00  0.00    +0.000 N 
ATOM     21  C   UNL     1      49.254   6.131  16.688  0.00  0.00    +0.000 C 
ATOM     22  O   UNL     1      50.384   5.853  16.293  0.00  0.00    +0.000 OA
ATOM     23  H   UNL     1      47.335   6.673  16.144  0.00  0.00    +0.000 HD
BRANCH  21  24
ATOM     24  C   UNL     1      48.869   5.953  18.093  0.00  0.00    +0.000 A 
ATOM     25  C   UNL     1      49.048   4.717  18.703  0.00  0.00    +0.000 A 
ATOM     26  S   UNL     1      48.620   4.700  20.352  0.00  0.00    +0.000 S 
ATOM     27  C   UNL     1      48.123   6.327  20.297  0.00  0.00    +0.000 A 
ATOM     28  N   UNL     1      47.620   6.941  21.401  0.00  0.00    +0.000 NA
ATOM     29  C   UNL     1      47.255   8.165  21.209  0.00  0.00    +0.000 A 
ATOM     30  N   UNL     1      47.350   8.832  20.014  0.00  0.00    +0.000 N 
ATOM     31  C   UNL     1      47.875   8.260  18.880  0.00  0.00    +0.000 A 
ATOM     32  O   UNL     1      47.979   8.895  17.836  0.00  0.00    +0.000 OA
ATOM     33  C   UNL     1      48.296   6.880  19.041  0.00  0.00    +0.000 A 
ATOM     34  H   UNL     1      47.049   9.791  19.934  0.00  0.00    +0.000 HD
ENDBRANCH  21  24
ENDBRANCH  19  20
ENDBRANCH   4  19
TORSDOF 8
ENDMDL
MODEL 3
REMARK VINA RESULT:    -8.262      2.022      2.687
REMARK INTER + INTRA:         -13.414
REMARK INTER:                 -11.933
REMARK INTRA:                  -1.481
REMARK UNBOUND:                -1.289
REMARK  Name = 
REMARK  9 active torsions:
REMARK  status: ('A' for Active; 'I' for Inactive)
REMARK    1  A    between atoms: C_1  and  C_2
REMARK    2  A    between atoms: C_2  and  C_3
REMARK    3  A    between atoms: C_3  and  N_4
REMARK    4  A    between atoms: C_3  and  C_12
REMARK    5  A    between atoms: N_4  and  C_5
REMARK    6  A    between atoms: C_5  and  C_6
REMARK    7  A    between atoms: C_15  and  C_16
REMARK    8  A    between atoms: C_16  and  N_17
REMARK    9  A    between atoms: C_18  and  C_20
REMARK                            x       y       z     vdW  Elec       q    Type
REMARK                         _______ _______ _______ _____ _____    ______ ____
ROOT
ATOM      1  C   UNL     1      45.410   4.751  12.114  0.00  0.00    +0.000 A 
ATOM      2  C   UNL     1      46.027   4.820  13.378  0.00  0.00    +0.000 A 
ATOM      3  C   UNL     1      47.065   5.725  13.630  0.00  0.00    +0.000 A 
ATOM      4  C   UNL     1      47.470   6.629  12.643  0.00  0.00    +0.000 A 
ATOM      5  C   UNL     1      46.849   6.579  11.391  0.00  0.00    +0.000 A 
ATOM      6  C   UNL     1      45.842   5.648  11.127  0.00  0.00    +0.000 A 
ENDROOT
BRANCH   1   7
ATOM      7  C   UNL     1      44.382   3.648  11.822  0.00  0.00    +0.000 C 
BRANCH   7   9
ATOM      8  C   UNL     1      42.482   5.414  12.080  0.00  0.00    +0.000 C 
ATOM      9  C   UNL     1      43.053   4.246  11.286  0.00  0.00    +0.000 C 
ENDBRANCH   7   9
BRANCH   7  10
ATOM     10  N   UNL     1      44.918   2.625  10.894  0.00  0.00    +0.000 NA
ATOM     11  H   UNL     1      44.651   1.704  11.233  0.00  0.00    +0.000 HD
BRANCH  10  12
ATOM     12  C   UNL     1      44.392   2.789   9.530  0.00  0.00    +0.000 C 
BRANCH  12  13
ATOM     13  C   UNL     1      45.395   2.549   8.425  0.00  0.00    +0.000 A 
ATOM     14  C   UNL     1      45.757   3.623   7.587  0.00  0.00    +0.000 A 
ATOM     15  C   UNL     1      46.759   3.478   6.629  0.00  0.00    +0.000 A 
ATOM     16  C   UNL     1      47.417   2.259   6.503  0.00  0.00    +0.000 A 
ATOM     17  C   UNL     1      47.068   1.186   7.321  0.00  0.00    +0.000 A 
ATOM     18  C   UNL     1      46.065   1.330   8.282  0.00  0.00    +0.000 A 
ENDBRANCH  12  13
ENDBRANCH  10  12
ENDBRANCH   7  10
ENDBRANCH   1   7
BRANCH   4  19
ATOM     19  C   UNL     1      48.582   7.612  12.892  0.00  0.00    +0.000 C 
BRANCH  19  20
ATOM     20  N   UNL     1      49.570   7.062  13.784  0.00  0.00    +0.000 N 
ATOM     21  C   UNL     1      50.156   7.832  14.755  0.00  0.00    +0.000 C 
ATOM     22  O   UNL     1      49.834   9.004  14.940  0.00  0.00    +0.000 OA
ATOM     23  H   UNL     1      50.018   6.196  13.499  0.00  0.00    +0.000 HD
BRANCH  21  24
ATOM     24  C   UNL     1      51.144   7.165  15.611  0.00  0.00    +0.000 A 
ATOM     25  C   UNL     1      52.487   7.502  15.502  0.00  0.00    +0.000 A 
ATOM     26  S   UNL     1      53.489   6.691  16.617  0.00  0.00    +0.000 S 
ATOM     27  C   UNL     1      52.173   5.815  17.246  0.00  0.00    +0.000 A 
ATOM     28  N   UNL     1      52.351   4.905  18.241  0.00  0.00    +0.000 NA
ATOM     29  C   UNL     1      51.273   4.292  18.601  0.00  0.00    +0.000 A 
ATOM     30  N   UNL     1      50.032   4.508  18.059  0.00  0.00    +0.000 N 
ATOM     31  C   UNL     1      49.800   5.434  17.070  0.00  0.00    +0.000 A 
ATOM     32  O   UNL     1      48.672   5.628  16.630  0.00  0.00    +0.000 OA
ATOM     33  C   UNL     1      50.982   6.148  16.624  0.00  0.00    +0.000 A 
ATOM     34  H   UNL     1      49.228   3.996  18.390  0.00  0.00    +0.000 HD
ENDBRANCH  21  24
ENDBRANCH  19  20
ENDBRANCH   4  19
TORSDOF 8
ENDMDL
MODEL 4
REMARK VINA RESULT:    -7.473      2.361      3.359
REMARK INTER + INTRA:         -12.256
REMARK INTER:                 -10.799
REMARK INTRA:                  -1.457
REMARK UNBOUND:                -1.289
REMARK  Name = 
REMARK  9 active torsions:
REMARK  status: ('A' for Active; 'I' for Inactive)
REMARK    1  A    between atoms: C_1  and  C_2
REMARK    2  A    between atoms: C_2  and  C_3
REMARK    3  A    between atoms: C_3  and  N_4
REMARK    4  A    between atoms: C_3  and  C_12
REMARK    5  A    between atoms: N_4  and  C_5
REMARK    6  A    between atoms: C_5  and  C_6
REMARK    7  A    between atoms: C_15  and  C_16
REMARK    8  A    between atoms: C_16  and  N_17
REMARK    9  A    between atoms: C_18  and  C_20
REMARK                            x       y       z     vdW  Elec       q    Type
REMARK                         _______ _______ _______ _____ _____    ______ ____
ROOT
ATOM      1  C   UNL     1      46.041   5.809  12.081  0.00  0.00    +0.000 A 
ATOM      2  C   UNL     1      46.928   5.490  13.127  0.00  0.00    +0.000 A 
ATOM      3  C   UNL     1      47.578   6.490  13.859  0.00  0.00    +0.000 A 
ATOM      4  C   UNL     1      47.308   7.839  13.606  0.00  0.00    +0.000 A 
ATOM      5  C   UNL     1      46.415   8.165  12.581  0.00  0.00    +0.000 A 
ATOM      6  C   UNL     1      45.798   7.166  11.824  0.00  0.00    +0.000 A 
ENDROOT
BRANCH   1   7
ATOM      7  C   UNL     1      45.462   4.694  11.198  0.00  0.00    +0.000 C 
BRANCH   7   9
ATOM      8  C   UNL     1      43.298   4.731  12.650  0.00  0.00    +0.000 C 
ATOM      9  C   UNL     1      44.362   3.896  11.950  0.00  0.00    +0.000 C 
ENDBRANCH   7   9
BRANCH   7  10
ATOM     10  N   UNL     1      44.953   5.218   9.910  0.00  0.00    +0.000 NA
ATOM     11  H   UNL     1      45.732   5.607   9.384  0.00  0.00    +0.000 HD
BRANCH  10  12
ATOM     12  C   UNL     1      44.323   4.166   9.097  0.00  0.00    +0.000 C 
BRANCH  12  13
ATOM     13  C   UNL     1      45.286   3.259   8.366  0.00  0.00    +0.000 A 
ATOM     14  C   UNL     1      46.168   3.821   7.421  0.00  0.00    +0.000 A 
ATOM     15  C   UNL     1      47.149   3.044   6.806  0.00  0.00    +0.000 A 
ATOM     16  C   UNL     1      47.264   1.696   7.134  0.00  0.00    +0.000 A 
ATOM     17  C   UNL     1      46.396   1.126   8.063  0.00  0.00    +0.000 A 
ATOM     18  C   UNL     1      45.415   1.903   8.681  0.00  0.00    +0.000 A 
ENDBRANCH  12  13
ENDBRANCH  10  12
ENDBRANCH   7  10
ENDBRANCH   1   7
BRANCH   4  19
ATOM     19  C   UNL     1      47.993   8.932  14.381  0.00  0.00    +0.000 C 
BRANCH  19  20
ATOM     20  N   UNL     1      47.669   8.855  15.783  0.00  0.00    +0.000 N 
ATOM     21  C   UNL     1      48.606   8.473  16.708  0.00  0.00    +0.000 C 
ATOM     22  O   UNL     1      49.768   8.228  16.395  0.00  0.00    +0.000 OA
ATOM     23  H   UNL     1      46.684   8.813  16.026  0.00  0.00    +0.000 HD
BRANCH  21  24
ATOM     24  C   UNL     1      48.166   8.438  18.108  0.00  0.00    +0.000 A 
ATOM     25  C   UNL     1      48.182   7.235  18.803  0.00  0.00    +0.000 A 
ATOM     26  S   UNL     1      47.712   7.382  20.435  0.00  0.00    +0.000 S 
ATOM     27  C   UNL     1      47.413   9.048  20.256  0.00  0.00    +0.000 A 
ATOM     28  N   UNL     1      46.958   9.791  21.300  0.00  0.00    +0.000 NA
ATOM     29  C   UNL     1      46.746  11.033  21.016  0.00  0.00    +0.000 A 
ATOM     30  N   UNL     1      46.950  11.600  19.785  0.00  0.00    +0.000 N 
ATOM     31  C   UNL     1      47.433  10.894  18.708  0.00  0.00    +0.000 A 
ATOM     32  O   UNL     1      47.638  11.439  17.629  0.00  0.00    +0.000 OA
ATOM     33  C   UNL     1      47.683   9.489  18.973  0.00  0.00    +0.000 A 
ATOM     34  H   UNL     1      46.767  12.580  19.631  0.00  0.00    +0.000 HD
ENDBRANCH  21  24
ENDBRANCH  19  20
ENDBRANCH   4  19
TORSDOF 8
ENDMDL
MODEL 5
REMARK VINA RESULT:    -7.392      3.856      5.470
REMARK INTER + INTRA:         -12.138
REMARK INTER:                 -10.596
REMARK INTRA:                  -1.542
REMARK UNBOUND:                -1.289
REMARK  Name = 
REMARK  9 active torsions:
REMARK  status: ('A' for Active; 'I' for Inactive)
REMARK    1  A    between atoms: C_1  and  C_2
REMARK    2  A    between atoms: C_2  and  C_3
REMARK    3  A    between atoms: C_3  and  N_4
REMARK    4  A    between atoms: C_3  and  C_12
REMARK    5  A    between atoms: N_4  and  C_5
REMARK    6  A    between atoms: C_5  and  C_6
REMARK    7  A    between atoms: C_15  and  C_16
REMARK    8  A    between atoms: C_16  and  N_17
REMARK    9  A    between atoms: C_18  and  C_20
REMARK                            x       y       z     vdW  Elec       q    Type
REMARK                         _______ _______ _______ _____ _____    ______ ____
ROOT
ATOM      1  C   UNL     1      45.686   5.637  11.699  0.00  0.00    +0.000 A 
ATOM      2  C   UNL     1      46.496   5.220  12.772  0.00  0.00    +0.000 A 
ATOM      3  C   UNL     1      47.198   6.146  13.554  0.00  0.00    +0.000 A 
ATOM      4  C   UNL     1      47.056   7.518  13.322  0.00  0.00    +0.000 A 
ATOM      5  C   UNL     1      46.239   7.940  12.269  0.00  0.00    +0.000 A 
ATOM      6  C   UNL     1      45.572   7.014  11.464  0.00  0.00    +0.000 A 
ENDROOT
BRANCH   1   7
ATOM      7  C   UNL     1      45.051   4.594  10.767  0.00  0.00    +0.000 C 
BRANCH   7   9
ATOM      8  C   UNL     1      43.553   3.047  12.235  0.00  0.00    +0.000 C 
ATOM      9  C   UNL     1      43.627   4.204  11.247  0.00  0.00    +0.000 C 
ENDBRANCH   7   9
BRANCH   7  10
ATOM     10  N   UNL     1      45.032   5.051   9.358  0.00  0.00    +0.000 NA
ATOM     11  H   UNL     1      45.973   5.334   9.093  0.00  0.00    +0.000 HD
BRANCH  10  12
ATOM     12  C   UNL     1      44.590   3.990   8.441  0.00  0.00    +0.000 C 
BRANCH  12  13
ATOM     13  C   UNL     1      45.696   3.128   7.878  0.00  0.00    +0.000 A 
ATOM     14  C   UNL     1      45.844   1.810   8.356  0.00  0.00    +0.000 A 
ATOM     15  C   UNL     1      46.775   0.942   7.788  0.00  0.00    +0.000 A 
ATOM     16  C   UNL     1      47.567   1.381   6.731  0.00  0.00    +0.000 A 
ATOM     17  C   UNL     1      47.437   2.682   6.251  0.00  0.00    +0.000 A 
ATOM     18  C   UNL     1      46.503   3.552   6.818  0.00  0.00    +0.000 A 
ENDBRANCH  12  13
ENDBRANCH  10  12
ENDBRANCH   7  10
ENDBRANCH   1   7
BRANCH   4  19
ATOM     19  C   UNL     1      47.799   8.531  14.150  0.00  0.00    +0.000 C 
BRANCH  19  20
ATOM     20  N   UNL     1      49.119   8.764  13.623  0.00  0.00    +0.000 N 
ATOM     21  C   UNL     1      50.224   8.191  14.199  0.00  0.00    +0.000 C 
ATOM     22  O   UNL     1      50.136   7.420  15.152  0.00  0.00    +0.000 OA
ATOM     23  H   UNL     1      49.237   9.566  13.012  0.00  0.00    +0.000 HD
BRANCH  21  24
ATOM     24  C   UNL     1      51.517   8.492  13.573  0.00  0.00    +0.000 A 
ATOM     25  C   UNL     1      52.541   9.035  14.340  0.00  0.00    +0.000 A 
ATOM     26  S   UNL     1      53.996   9.254  13.481  0.00  0.00    +0.000 S 
ATOM     27  C   UNL     1      53.294   8.687  12.038  0.00  0.00    +0.000 A 
ATOM     28  N   UNL     1      54.013   8.635  10.885  0.00  0.00    +0.000 NA
ATOM     29  C   UNL     1      53.348   8.213   9.861  0.00  0.00    +0.000 A 
ATOM     30  N   UNL     1      52.030   7.837   9.886  0.00  0.00    +0.000 N 
ATOM     31  C   UNL     1      51.271   7.849  11.033  0.00  0.00    +0.000 A 
ATOM     32  O   UNL     1      50.104   7.473  11.028  0.00  0.00    +0.000 OA
ATOM     33  C   UNL     1      51.971   8.321  12.213  0.00  0.00    +0.000 A 
ATOM     34  H   UNL     1      51.570   7.513   9.049  0.00  0.00    +0.000 HD
ENDBRANCH  21  24
ENDBRANCH  19  20
ENDBRANCH   4  19
TORSDOF 8
ENDMDL
MODEL 6
REMARK VINA RESULT:    -7.324      3.289      8.995
REMARK INTER + INTRA:         -12.038
REMARK INTER:                 -10.016
REMARK INTRA:                  -2.022
REMARK UNBOUND:                -1.289
REMARK  Name = 
REMARK  9 active torsions:
REMARK  status: ('A' for Active; 'I' for Inactive)
REMARK    1  A    between atoms: C_1  and  C_2
REMARK    2  A    between atoms: C_2  and  C_3
REMARK    3  A    between atoms: C_3  and  N_4
REMARK    4  A    between atoms: C_3  and  C_12
REMARK    5  A    between atoms: N_4  and  C_5
REMARK    6  A    between atoms: C_5  and  C_6
REMARK    7  A    between atoms: C_15  and  C_16
REMARK    8  A    between atoms: C_16  and  N_17
REMARK    9  A    between atoms: C_18  and  C_20
REMARK                            x       y       z     vdW  Elec       q    Type
REMARK                         _______ _______ _______ _____ _____    ______ ____
ROOT
ATOM      1  C   UNL     1      48.953   8.097  16.235  0.00  0.00    +0.000 A 
ATOM      2  C   UNL     1      49.259   6.944  15.488  0.00  0.00    +0.000 A 
ATOM      3  C   UNL     1      48.866   6.819  14.150  0.00  0.00    +0.000 A 
ATOM      4  C   UNL     1      48.210   7.873  13.505  0.00  0.00    +0.000 A 
ATOM      5  C   UNL     1      47.918   9.030  14.235  0.00  0.00    +0.000 A 
ATOM      6  C   UNL     1      48.275   9.136  15.582  0.00  0.00    +0.000 A 
ENDROOT
BRANCH   1   7
ATOM      7  C   UNL     1      49.263   8.142  17.738  0.00  0.00    +0.000 C 
BRANCH   7   9
ATOM      8  C   UNL     1      47.574   9.636  19.045  0.00  0.00    +0.000 C 
ATOM      9  C   UNL     1      47.960   8.239  18.578  0.00  0.00    +0.000 C 
ENDBRANCH   7   9
BRANCH   7  10
ATOM     10  N   UNL     1      50.088   6.990  18.167  0.00  0.00    +0.000 NA
ATOM     11  H   UNL     1      50.849   7.330  18.750  0.00  0.00    +0.000 HD
BRANCH  10  12
ATOM     12  C   UNL     1      49.310   6.013  18.943  0.00  0.00    +0.000 C 
BRANCH  12  13
ATOM     13  C   UNL     1      49.038   4.704  18.237  0.00  0.00    +0.000 A 
ATOM     14  C   UNL     1      47.719   4.403  17.843  0.00  0.00    +0.000 A 
ATOM     15  C   UNL     1      47.439   3.263  17.091  0.00  0.00    +0.000 A 
ATOM     16  C   UNL     1      48.476   2.414  16.718  0.00  0.00    +0.000 A 
ATOM     17  C   UNL     1      49.785   2.696  17.104  0.00  0.00    +0.000 A 
ATOM     18  C   UNL     1      50.067   3.838  17.856  0.00  0.00    +0.000 A 
ENDBRANCH  12  13
ENDBRANCH  10  12
ENDBRANCH   7  10
ENDBRANCH   1   7
BRANCH   4  19
ATOM     19  C   UNL     1      47.779   7.763  12.068  0.00  0.00    +0.000 C 
BRANCH  19  20
ATOM     20  N   UNL     1      47.052   6.542  11.837  0.00  0.00    +0.000 N 
ATOM     21  C   UNL     1      45.688   6.491  11.973  0.00  0.00    +0.000 C 
ATOM     22  O   UNL     1      45.024   7.488  12.249  0.00  0.00    +0.000 OA
ATOM     23  H   UNL     1      47.585   5.678  11.851  0.00  0.00    +0.000 HD
BRANCH  21  24
ATOM     24  C   UNL     1      45.052   5.196  11.705  0.00  0.00    +0.000 A 
ATOM     25  C   UNL     1      44.372   4.541  12.724  0.00  0.00    +0.000 A 
ATOM     26  S   UNL     1      43.629   3.089  12.229  0.00  0.00    +0.000 S 
ATOM     27  C   UNL     1      44.240   3.252  10.648  0.00  0.00    +0.000 A 
ATOM     28  N   UNL     1      43.985   2.311   9.700  0.00  0.00    +0.000 NA
ATOM     29  C   UNL     1      44.534   2.546   8.555  0.00  0.00    +0.000 A 
ATOM     30  N   UNL     1      45.314   3.638   8.272  0.00  0.00    +0.000 N 
ATOM     31  C   UNL     1      45.578   4.626   9.190  0.00  0.00    +0.000 A 
ATOM     32  O   UNL     1      46.252   5.608   8.894  0.00  0.00    +0.000 OA
ATOM     33  C   UNL     1      44.988   4.407  10.497  0.00  0.00    +0.000 A 
ATOM     34  H   UNL     1      45.712   3.763   7.353  0.00  0.00    +0.000 HD
ENDBRANCH  21  24
ENDBRANCH  19  20
ENDBRANCH   4  19
TORSDOF 8
ENDMDL
MODEL 7
REMARK VINA RESULT:    -7.196      1.930      2.651
REMARK INTER + INTRA:         -11.850
REMARK INTER:                 -10.522
REMARK INTRA:                  -1.328
REMARK UNBOUND:                -1.289
REMARK  Name = 
REMARK  9 active torsions:
REMARK  status: ('A' for Active; 'I' for Inactive)
REMARK    1  A    between atoms: C_1  and  C_2
REMARK    2  A    between atoms: C_2  and  C_3
REMARK    3  A    between atoms: C_3  and  N_4
REMARK    4  A    between atoms: C_3  and  C_12
REMARK    5  A    between atoms: N_4  and  C_5
REMARK    6  A    between atoms: C_5  and  C_6
REMARK    7  A    between atoms: C_15  and  C_16
REMARK    8  A    between atoms: C_16  and  N_17
REMARK    9  A    between atoms: C_18  and  C_20
REMARK                            x       y       z     vdW  Elec       q    Type
REMARK                         _______ _______ _______ _____ _____    ______ ____
ROOT
ATOM      1  C   UNL     1      45.458   5.331  11.337  0.00  0.00    +0.000 A 
ATOM      2  C   UNL     1      44.427   6.072  11.946  0.00  0.00    +0.000 A 
ATOM      3  C   UNL     1      44.684   7.302  12.563  0.00  0.00    +0.000 A 
ATOM      4  C   UNL     1      45.969   7.854  12.530  0.00  0.00    +0.000 A 
ATOM      5  C   UNL     1      46.994   7.133  11.911  0.00  0.00    +0.000 A 
ATOM      6  C   UNL     1      46.745   5.887  11.332  0.00  0.00    +0.000 A 
ENDROOT
BRANCH   1   7
ATOM      7  C   UNL     1      45.176   3.919  10.803  0.00  0.00    +0.000 C 
BRANCH   7   9
ATOM      8  C   UNL     1      43.345   2.593  12.100  0.00  0.00    +0.000 C 
ATOM      9  C   UNL     1      44.820   2.943  11.957  0.00  0.00    +0.000 C 
ENDBRANCH   7   9
BRANCH   7  10
ATOM     10  N   UNL     1      44.120   3.922   9.764  0.00  0.00    +0.000 NA
ATOM     11  H   UNL     1      43.430   4.631  10.000  0.00  0.00    +0.000 HD
BRANCH  10  12
ATOM     12  C   UNL     1      44.661   4.225   8.430  0.00  0.00    +0.000 C 
BRANCH  12  13
ATOM     13  C   UNL     1      45.575   3.168   7.855  0.00  0.00    +0.000 A 
ATOM     14  C   UNL     1      46.478   3.529   6.835  0.00  0.00    +0.000 A 
ATOM     15  C   UNL     1      47.416   2.618   6.353  0.00  0.00    +0.000 A 
ATOM     16  C   UNL     1      47.468   1.335   6.892  0.00  0.00    +0.000 A 
ATOM     17  C   UNL     1      46.579   0.962   7.898  0.00  0.00    +0.000 A 
ATOM     18  C   UNL     1      45.639   1.875   8.382  0.00  0.00    +0.000 A 
ENDBRANCH  12  13
ENDBRANCH  10  12
ENDBRANCH   7  10
ENDBRANCH   1   7
BRANCH   4  19
ATOM     19  C   UNL     1      46.269   9.175  13.185  0.00  0.00    +0.000 C 
BRANCH  19  20
ATOM     20  N   UNL     1      46.931   8.989  14.451  0.00  0.00    +0.000 N 
ATOM     21  C   UNL     1      48.253   9.315  14.615  0.00  0.00    +0.000 C 
ATOM     22  O   UNL     1      48.915   9.823  13.713  0.00  0.00    +0.000 OA
ATOM     23  H   UNL     1      46.488   8.361  15.115  0.00  0.00    +0.000 HD
BRANCH  21  24
ATOM     24  C   UNL     1      48.821   9.090  15.949  0.00  0.00    +0.000 A 
ATOM     25  C   UNL     1      49.178  10.179  16.736  0.00  0.00    +0.000 A 
ATOM     26  S   UNL     1      49.752   9.746  18.282  0.00  0.00    +0.000 S 
ATOM     27  C   UNL     1      49.601   8.087  17.934  0.00  0.00    +0.000 A 
ATOM     28  N   UNL     1      49.953   7.146  18.851  0.00  0.00    +0.000 NA
ATOM     29  C   UNL     1      49.815   5.929  18.444  0.00  0.00    +0.000 A 
ATOM     30  N   UNL     1      49.355   5.566  17.204  0.00  0.00    +0.000 N 
ATOM     31  C   UNL     1      48.964   6.480  16.255  0.00  0.00    +0.000 A 
ATOM     32  O   UNL     1      48.524   6.122  15.168  0.00  0.00    +0.000 OA
ATOM     33  C   UNL     1      49.105   7.866  16.661  0.00  0.00    +0.000 A 
ATOM     34  H   UNL     1      49.269   4.593  16.951  0.00  0.00    +0.000 HD
ENDBRANCH  21  24
ENDBRANCH  19  20
ENDBRANCH   4  19
TORSDOF 8
ENDMDL
MODEL 8
REMARK VINA RESULT:    -7.128      3.585      8.617
REMARK INTER + INTRA:         -11.750
REMARK INTER:                  -9.715
REMARK INTRA:                  -2.035
REMARK UNBOUND:                -1.289
REMARK  Name = 
REMARK  9 active torsions:
REMARK  status: ('A' for Active; 'I' for Inactive)
REMARK    1  A    between atoms: C_1  and  C_2
REMARK    2  A    between atoms: C_2  and  C_3
REMARK    3  A    between atoms: C_3  and  N_4
REMARK    4  A    between atoms: C_3  and  C_12
REMARK    5  A    between atoms: N_4  and  C_5
REMARK    6  A    between atoms: C_5  and  C_6
REMARK    7  A    between atoms: C_15  and  C_16
REMARK    8  A    between atoms: C_16  and  N_17
REMARK    9  A    between atoms: C_18  and  C_20
REMARK                            x       y       z     vdW  Elec       q    Type
REMARK                         _______ _______ _______ _____ _____    ______ ____
ROOT
ATOM      1  C   UNL     1      48.879   7.740  16.236  0.00  0.00    +0.000 A 
ATOM      2  C   UNL     1      49.398   6.803  15.323  0.00  0.00    +0.000 A 
ATOM      3  C   UNL     1      49.196   6.942  13.945  0.00  0.00    +0.000 A 
ATOM      4  C   UNL     1      48.521   8.058  13.440  0.00  0.00    +0.000 A 
ATOM      5  C   UNL     1      48.017   9.003  14.339  0.00  0.00    +0.000 A 
ATOM      6  C   UNL     1      48.185   8.841  15.716  0.00  0.00    +0.000 A 
ENDROOT
BRANCH   1   7
ATOM      7  C   UNL     1      48.986   7.481  17.746  0.00  0.00    +0.000 C 
BRANCH   7   9
ATOM      8  C   UNL     1      51.192   8.729  18.353  0.00  0.00    +0.000 C 
ATOM      9  C   UNL     1      49.675   8.668  18.472  0.00  0.00    +0.000 C 
ENDBRANCH   7   9
BRANCH   7  10
ATOM     10  N   UNL     1      47.668   7.181  18.351  0.00  0.00    +0.000 NA
ATOM     11  H   UNL     1      46.959   7.204  17.620  0.00  0.00    +0.000 HD
BRANCH  10  12
ATOM     12  C   UNL     1      47.640   5.852  18.982  0.00  0.00    +0.000 C 
BRANCH  12  13
ATOM     13  C   UNL     1      48.085   4.713  18.094  0.00  0.00    +0.000 A 
ATOM     14  C   UNL     1      49.251   3.998  18.434  0.00  0.00    +0.000 A 
ATOM     15  C   UNL     1      49.637   2.871  17.710  0.00  0.00    +0.000 A 
ATOM     16  C   UNL     1      48.856   2.440  16.642  0.00  0.00    +0.000 A 
ATOM     17  C   UNL     1      47.703   3.139  16.291  0.00  0.00    +0.000 A 
ATOM     18  C   UNL     1      47.315   4.268  17.015  0.00  0.00    +0.000 A 
ENDBRANCH  12  13
ENDBRANCH  10  12
ENDBRANCH   7  10
ENDBRANCH   1   7
BRANCH   4  19
ATOM     19  C   UNL     1      48.292   8.230  11.962  0.00  0.00    +0.000 C 
BRANCH  19  20
ATOM     20  N   UNL     1      47.602   7.093  11.409  0.00  0.00    +0.000 N 
ATOM     21  C   UNL     1      46.232   7.038  11.383  0.00  0.00    +0.000 C 
ATOM     22  O   UNL     1      45.536   7.968  11.783  0.00  0.00    +0.000 OA
ATOM     23  H   UNL     1      48.136   6.236  11.304  0.00  0.00    +0.000 HD
BRANCH  21  24
ATOM     24  C   UNL     1      45.637   5.836  10.788  0.00  0.00    +0.000 A 
ATOM     25  C   UNL     1      45.823   5.574   9.436  0.00  0.00    +0.000 A 
ATOM     26  S   UNL     1      45.130   4.104   8.923  0.00  0.00    +0.000 S 
ATOM     27  C   UNL     1      44.505   3.792  10.475  0.00  0.00    +0.000 A 
ATOM     28  N   UNL     1      43.772   2.674  10.721  0.00  0.00    +0.000 NA
ATOM     29  C   UNL     1      43.336   2.579  11.932  0.00  0.00    +0.000 A 
ATOM     30  N   UNL     1      43.568   3.500  12.921  0.00  0.00    +0.000 N 
ATOM     31  C   UNL     1      44.323   4.632  12.726  0.00  0.00    +0.000 A 
ATOM     32  O   UNL     1      44.541   5.419  13.641  0.00  0.00    +0.000 OA
ATOM     33  C   UNL     1      44.834   4.789  11.376  0.00  0.00    +0.000 A 
ATOM     34  H   UNL     1      43.199   3.363  13.850  0.00  0.00    +0.000 HD
ENDBRANCH  21  24
ENDBRANCH  19  20
ENDBRANCH   4  19
TORSDOF 8
ENDMDL
MODEL 9
REMARK VINA RESULT:    -6.977      3.345      4.890
REMARK INTER + INTRA:         -11.528
REMARK INTER:                 -10.192
REMARK INTRA:                  -1.336
REMARK UNBOUND:                -1.289
REMARK  Name = 
REMARK  9 active torsions:
REMARK  status: ('A' for Active; 'I' for Inactive)
REMARK    1  A    between atoms: C_1  and  C_2
REMARK    2  A    between atoms: C_2  and  C_3
REMARK    3  A    between atoms: C_3  and  N_4
REMARK    4  A    between atoms: C_3  and  C_12
REMARK    5  A    between atoms: N_4  and  C_5
REMARK    6  A    between atoms: C_5  and  C_6
REMARK    7  A    between atoms: C_15  and  C_16
REMARK    8  A    between atoms: C_16  and  N_17
REMARK    9  A    between atoms: C_18  and  C_20
REMARK                            x       y       z     vdW  Elec       q    Type
REMARK                         _______ _______ _______ _____ _____    ______ ____
ROOT
ATOM      1  C   UNL     1      47.226   5.956  13.822  0.00  0.00    +0.000 A 
ATOM      2  C   UNL     1      48.081   6.298  14.887  0.00  0.00    +0.000 A 
ATOM      3  C   UNL     1      48.232   5.455  15.995  0.00  0.00    +0.000 A 
ATOM      4  C   UNL     1      47.579   4.219  16.037  0.00  0.00    +0.000 A 
ATOM      5  C   UNL     1      46.743   3.864  14.974  0.00  0.00    +0.000 A 
ATOM      6  C   UNL     1      46.561   4.724  13.888  0.00  0.00    +0.000 A 
ENDROOT
BRANCH   1   7
ATOM      7  C   UNL     1      46.964   6.966  12.694  0.00  0.00    +0.000 C 
BRANCH   7   9
ATOM      8  C   UNL     1      47.457   9.516  12.471  0.00  0.00    +0.000 C 
ATOM      9  C   UNL     1      48.007   8.117  12.718  0.00  0.00    +0.000 C 
ENDBRANCH   7   9
BRANCH   7  10
ATOM     10  N   UNL     1      46.923   6.313  11.366  0.00  0.00    +0.000 NA
ATOM     11  H   UNL     1      47.251   5.354  11.462  0.00  0.00    +0.000 HD
BRANCH  10  12
ATOM     12  C   UNL     1      45.562   6.284  10.808  0.00  0.00    +0.000 C 
BRANCH  12  13
ATOM     13  C   UNL     1      45.142   4.959  10.215  0.00  0.00    +0.000 A 
ATOM     14  C   UNL     1      45.513   4.656   8.890  0.00  0.00    +0.000 A 
ATOM     15  C   UNL     1      45.246   3.404   8.340  0.00  0.00    +0.000 A 
ATOM     16  C   UNL     1      44.609   2.436   9.111  0.00  0.00    +0.000 A 
ATOM     17  C   UNL     1      44.231   2.722  10.421  0.00  0.00    +0.000 A 
ATOM     18  C   UNL     1      44.500   3.976  10.974  0.00  0.00    +0.000 A 
ENDBRANCH  12  13
ENDBRANCH  10  12
ENDBRANCH   7  10
ENDBRANCH   1   7
BRANCH   4  19
ATOM     19  C   UNL     1      47.727   3.296  17.216  0.00  0.00    +0.000 C 
BRANCH  19  20
ATOM     20  N   UNL     1      49.112   3.139  17.581  0.00  0.00    +0.000 N 
ATOM     21  C   UNL     1      49.913   2.224  16.948  0.00  0.00    +0.000 C 
ATOM     22  O   UNL     1      49.504   1.536  16.016  0.00  0.00    +0.000 OA
ATOM     23  H   UNL     1      49.396   3.507  18.484  0.00  0.00    +0.000 HD
BRANCH  21  24
ATOM     24  C   UNL     1      51.309   2.156  17.396  0.00  0.00    +0.000 A 
ATOM     25  C   UNL     1      51.897   0.918  17.624  0.00  0.00    +0.000 A 
ATOM     26  S   UNL     1      53.540   1.013  18.067  0.00  0.00    +0.000 S 
ATOM     27  C   UNL     1      53.509   2.714  18.029  0.00  0.00    +0.000 A 
ATOM     28  N   UNL     1      54.618   3.440  18.335  0.00  0.00    +0.000 NA
ATOM     29  C   UNL     1      54.444   4.719  18.295  0.00  0.00    +0.000 A 
ATOM     30  N   UNL     1      53.264   5.339  17.973  0.00  0.00    +0.000 N 
ATOM     31  C   UNL     1      52.126   4.647  17.632  0.00  0.00    +0.000 A 
ATOM     32  O   UNL     1      51.096   5.232  17.316  0.00  0.00    +0.000 OA
ATOM     33  C   UNL     1      52.266   3.203  17.667  0.00  0.00    +0.000 A 
ATOM     34  H   UNL     1      53.198   6.345  17.958  0.00  0.00    +0.000 HD
ENDBRANCH  21  24
ENDBRANCH  19  20
ENDBRANCH   4  19
TORSDOF 8
ENDMDL
