MODEL 1
REMARK VINA RESULT:    -7.269      0.000      0.000
REMARK INTER + INTRA:         -11.309
REMARK INTER:                 -10.455
REMARK INTRA:                  -0.853
REMARK UNBOUND:                -0.853
REMARK  Name = 
REMARK  9 active torsions:
REMARK  status: ('A' for Active; 'I' for Inactive)
REMARK    1  A    between atoms: C_1  and  C_2
REMARK    2  A    between atoms: C_2  and  C_3
REMARK    3  A    between atoms: C_4  and  C_5
REMARK    4  A    between atoms: C_8  and  C_9
REMARK    5  A    between atoms: C_13  and  C_14
REMARK    6  A    between atoms: C_15  and  C_16
REMARK    7  A    between atoms: C_16  and  C_17
REMARK    8  A    between atoms: C_21  and  C_22
REMARK    9  A    between atoms: C_22  and  N_23
REMARK                            x       y       z     vdW  Elec       q    Type
REMARK                         _______ _______ _______ _____ _____    ______ ____
ROOT
ATOM      1  C   UNL     1      47.923   7.161  13.217  0.00  0.00    +0.000 A 
ATOM      2  C   UNL     1      48.488   7.093  14.489  0.00  0.00    +0.000 A 
ATOM      3  N   UNL     1      48.355   6.043  15.325  0.00  0.00    +0.000 NA
ATOM      4  C   UNL     1      47.608   5.007  14.854  0.00  0.00    +0.000 A 
ATOM      5  C   UNL     1      46.965   5.000  13.620  0.00  0.00    +0.000 A 
ATOM      6  C   UNL     1      47.097   6.109  12.777  0.00  0.00    +0.000 A 
ENDROOT
BRANCH   4   7
ATOM      7  C   UNL     1      47.547   3.795  15.729  0.00  0.00    +0.000 C 
ATOM      8  N   UNL     1      46.870   3.968  16.902  0.00  0.00    +0.000 N 
ATOM      9  O   UNL     1      48.082   2.735  15.433  0.00  0.00    +0.000 OA
ATOM     10  H   UNL     1      46.496   4.879  17.135  0.00  0.00    +0.000 HD
ATOM     11  H   UNL     1      46.867   3.223  17.592  0.00  0.00    +0.000 HD
ENDBRANCH   4   7
BRANCH   1  13
ATOM     12  C   UNL     1      48.503   9.294  11.809  0.00  0.00    +0.000 C 
ATOM     13  C   UNL     1      48.190   8.314  12.423  0.00  0.00    +0.000 C 
BRANCH  12  15
ATOM     14  C   UNL     1      50.585  10.426  11.364  0.00  0.00    +0.000 C 
ATOM     15  C   UNL     1      49.074  10.498  11.206  0.00  0.00    +0.000 C 
ENDBRANCH  12  15
ENDBRANCH   1  13
BRANCH   6  16
ATOM     16  C   UNL     1      46.442   6.116  11.445  0.00  0.00    +0.000 C 
ATOM     17  C   UNL     1      45.683   5.113  10.963  0.00  0.00    +0.000 C 
BRANCH  17  18
ATOM     18  C   UNL     1      45.026   5.099   9.602  0.00  0.00    +0.000 C 
BRANCH  18  19
ATOM     19  C   UNL     1      45.364   3.856   8.810  0.00  0.00    +0.000 A 
ATOM     20  C   UNL     1      45.036   2.596   9.327  0.00  0.00    +0.000 A 
ATOM     21  C   UNL     1      45.451   1.435   8.679  0.00  0.00    +0.000 A 
ATOM     22  C   UNL     1      46.207   1.518   7.511  0.00  0.00    +0.000 A 
ATOM     23  C   UNL     1      46.523   2.764   6.951  0.00  0.00    +0.000 A 
ATOM     24  C   UNL     1      46.082   3.930   7.603  0.00  0.00    +0.000 A 
BRANCH  23  25
ATOM     25  C   UNL     1      47.414   2.850   5.733  0.00  0.00    +0.000 C 
BRANCH  25  26
ATOM     26  N   UNL     1      48.475   1.845   5.720  0.00  0.00    +0.000 NA
ATOM     27  H   UNL     1      49.063   1.959   6.544  0.00  0.00    +0.000 HD
ATOM     28  H   UNL     1      48.052   0.922   5.812  0.00  0.00    +0.000 HD
ENDBRANCH  25  26
ENDBRANCH  23  25
ENDBRANCH  18  19
ENDBRANCH  17  18
ENDBRANCH   6  16
TORSDOF 8
ENDMDL
MODEL 2
REMARK VINA RESULT:    -6.975      3.740      7.583
REMARK INTER + INTRA:         -10.886
REMARK INTER:                  -9.405
REMARK INTRA:                  -1.481
REMARK UNBOUND:                -0.853
REMARK  Name = 
REMARK  9 active torsions:
REMARK  status: ('A' for Active; 'I' for Inactive)
REMARK    1  A    between atoms: C_1  and  C_2
REMARK    2  A    between atoms: C_2  and  C_3
REMARK    3  A    between atoms: C_4  and  C_5
REMARK    4  A    between atoms: C_8  and  C_9
REMARK    5  A    between atoms: C_13  and  C_14
REMARK    6  A    between atoms: C_15  and  C_16
REMARK    7  A    between atoms: C_16  and  C_17
REMARK    8  A    between atoms: C_21  and  C_22
REMARK    9  A    between atoms: C_22  and  N_23
REMARK                            x       y       z     vdW  Elec       q    Type
REMARK                         _______ _______ _______ _____ _____    ______ ____
ROOT
ATOM      1  C   UNL     1      47.116   5.802  12.864  0.00  0.00    +0.000 A 
ATOM      2  C   UNL     1      46.619   6.442  11.730  0.00  0.00    +0.000 A 
ATOM      3  N   UNL     1      45.602   5.973  10.977  0.00  0.00    +0.000 NA
ATOM      4  C   UNL     1      45.061   4.794  11.388  0.00  0.00    +0.000 A 
ATOM      5  C   UNL     1      45.517   4.059  12.476  0.00  0.00    +0.000 A 
ATOM      6  C   UNL     1      46.588   4.549  13.231  0.00  0.00    +0.000 A 
ENDROOT
BRANCH   4   7
ATOM      7  C   UNL     1      43.863   4.325  10.624  0.00  0.00    +0.000 C 
ATOM      8  N   UNL     1      43.892   4.599   9.288  0.00  0.00    +0.000 N 
ATOM      9  O   UNL     1      42.916   3.761  11.156  0.00  0.00    +0.000 OA
ATOM     10  H   UNL     1      44.666   5.123   8.899  0.00  0.00    +0.000 HD
ATOM     11  H   UNL     1      43.075   4.399   8.718  0.00  0.00    +0.000 HD
ENDBRANCH   4   7
BRANCH   1  13
ATOM     12  C   UNL     1      48.995   7.066  14.183  0.00  0.00    +0.000 C 
ATOM     13  C   UNL     1      48.162   6.440  13.591  0.00  0.00    +0.000 C 
BRANCH  12  15
ATOM     14  C   UNL     1      49.133   8.646  15.999  0.00  0.00    +0.000 C 
ATOM     15  C   UNL     1      49.888   8.023  14.835  0.00  0.00    +0.000 C 
ENDBRANCH  12  15
ENDBRANCH   1  13
BRANCH   6  16
ATOM     16  C   UNL     1      47.077   3.796  14.412  0.00  0.00    +0.000 C 
ATOM     17  C   UNL     1      46.898   4.180  15.690  0.00  0.00    +0.000 C 
BRANCH  17  18
ATOM     18  C   UNL     1      47.406   3.433  16.902  0.00  0.00    +0.000 C 
BRANCH  18  19
ATOM     19  C   UNL     1      48.853   3.744  17.207  0.00  0.00    +0.000 A 
ATOM     20  C   UNL     1      49.304   5.070  17.145  0.00  0.00    +0.000 A 
ATOM     21  C   UNL     1      50.657   5.366  17.297  0.00  0.00    +0.000 A 
ATOM     22  C   UNL     1      51.578   4.340  17.502  0.00  0.00    +0.000 A 
ATOM     23  C   UNL     1      51.154   3.008  17.603  0.00  0.00    +0.000 A 
ATOM     24  C   UNL     1      49.783   2.722  17.468  0.00  0.00    +0.000 A 
BRANCH  23  25
ATOM     25  C   UNL     1      52.166   1.892  17.741  0.00  0.00    +0.000 C 
BRANCH  25  26
ATOM     26  N   UNL     1      51.555   0.580  17.941  0.00  0.00    +0.000 NA
ATOM     27  H   UNL     1      51.734  -0.008  17.128  0.00  0.00    +0.000 HD
ATOM     28  H   UNL     1      52.021   0.117  18.720  0.00  0.00    +0.000 HD
ENDBRANCH  25  26
ENDBRANCH  23  25
ENDBRANCH  18  19
ENDBRANCH  17  18
ENDBRANCH   6  16
TORSDOF 8
ENDMDL
MODEL 3
REMARK VINA RESULT:    -6.974      2.729      3.391
REMARK INTER + INTRA:         -10.885
REMARK INTER:                 -10.080
REMARK INTRA:                  -0.805
REMARK UNBOUND:                -0.853
REMARK  Name = 
REMARK  9 active torsions:
REMARK  status: ('A' for Active; 'I' for Inactive)
REMARK    1  A    between atoms: C_1  and  C_2
REMARK    2  A    between atoms: C_2  and  C_3
REMARK    3  A    between atoms: C_4  and  C_5
REMARK    4  A    between atoms: C_8  and  C_9
REMARK    5  A    between atoms: C_13  and  C_14
REMARK    6  A    between atoms: C_15  and  C_16
REMARK    7  A    between atoms: C_16  and  C_17
REMARK    8  A    between atoms: C_21  and  C_22
REMARK    9  A    between atoms: C_22  and  N_23
REMARK                            x       y       z     vdW  Elec       q    Type
REMARK                         _______ _______ _______ _____ _____    ______ ____
ROOT
ATOM      1  C   UNL     1      45.276   8.520  11.891  0.00  0.00    +0.000 A 
ATOM      2  C   UNL     1      46.043   9.198  12.836  0.00  0.00    +0.000 A 
ATOM      3  N   UNL     1      46.977   8.616  13.615  0.00  0.00    +0.000 NA
ATOM      4  C   UNL     1      47.144   7.277  13.434  0.00  0.00    +0.000 A 
ATOM      5  C   UNL     1      46.395   6.506  12.552  0.00  0.00    +0.000 A 
ATOM      6  C   UNL     1      45.415   7.124  11.768  0.00  0.00    +0.000 A 
ENDROOT
BRANCH   4   7
ATOM      7  C   UNL     1      48.253   6.646  14.216  0.00  0.00    +0.000 C 
ATOM      8  N   UNL     1      47.868   6.063  15.388  0.00  0.00    +0.000 N 
ATOM      9  O   UNL     1      49.420   6.670  13.848  0.00  0.00    +0.000 OA
ATOM     10  H   UNL     1      46.902   6.120  15.684  0.00  0.00    +0.000 HD
ATOM     11  H   UNL     1      48.574   5.698  16.021  0.00  0.00    +0.000 HD
ENDBRANCH   4   7
BRANCH   1  13
ATOM     12  C   UNL     1      43.564   9.959  10.523  0.00  0.00    +0.000 C 
ATOM     13  C   UNL     1      44.360   9.275  11.101  0.00  0.00    +0.000 C 
BRANCH  12  15
ATOM     14  C   UNL     1      41.201  10.431  10.588  0.00  0.00    +0.000 C 
ATOM     15  C   UNL     1      42.543  10.884  10.035  0.00  0.00    +0.000 C 
ENDBRANCH  12  15
ENDBRANCH   1  13
BRANCH   6  16
ATOM     16  C   UNL     1      44.620   6.328  10.801  0.00  0.00    +0.000 C 
ATOM     17  C   UNL     1      44.972   5.110  10.344  0.00  0.00    +0.000 C 
BRANCH  17  18
ATOM     18  C   UNL     1      44.182   4.296   9.346  0.00  0.00    +0.000 C 
BRANCH  18  19
ATOM     19  C   UNL     1      45.017   3.220   8.689  0.00  0.00    +0.000 A 
ATOM     20  C   UNL     1      44.795   1.876   9.018  0.00  0.00    +0.000 A 
ATOM     21  C   UNL     1      45.633   0.878   8.525  0.00  0.00    +0.000 A 
ATOM     22  C   UNL     1      46.710   1.212   7.706  0.00  0.00    +0.000 A 
ATOM     23  C   UNL     1      46.939   2.544   7.332  0.00  0.00    +0.000 A 
ATOM     24  C   UNL     1      46.074   3.541   7.819  0.00  0.00    +0.000 A 
BRANCH  23  25
ATOM     25  C   UNL     1      48.157   2.910   6.514  0.00  0.00    +0.000 C 
BRANCH  25  26
ATOM     26  N   UNL     1      48.552   1.868   5.568  0.00  0.00    +0.000 NA
ATOM     27  H   UNL     1      49.349   2.189   5.020  0.00  0.00    +0.000 HD
ATOM     28  H   UNL     1      48.888   1.061   6.091  0.00  0.00    +0.000 HD
ENDBRANCH  25  26
ENDBRANCH  23  25
ENDBRANCH  18  19
ENDBRANCH  17  18
ENDBRANCH   6  16
TORSDOF 8
ENDMDL
MODEL 4
REMARK VINA RESULT:    -6.782      1.442      2.004
REMARK INTER + INTRA:         -10.609
REMARK INTER:                  -9.690
REMARK INTRA:                  -0.919
REMARK UNBOUND:                -0.853
REMARK  Name = 
REMARK  9 active torsions:
REMARK  status: ('A' for Active; 'I' for Inactive)
REMARK    1  A    between atoms: C_1  and  C_2
REMARK    2  A    between atoms: C_2  and  C_3
REMARK    3  A    between atoms: C_4  and  C_5
REMARK    4  A    between atoms: C_8  and  C_9
REMARK    5  A    between atoms: C_13  and  C_14
REMARK    6  A    between atoms: C_15  and  C_16
REMARK    7  A    between atoms: C_16  and  C_17
REMARK    8  A    between atoms: C_21  and  C_22
REMARK    9  A    between atoms: C_22  and  N_23
REMARK                            x       y       z     vdW  Elec       q    Type
REMARK                         _______ _______ _______ _____ _____    ______ ____
ROOT
ATOM      1  C   UNL     1      47.169   5.993  13.758  0.00  0.00    +0.000 A 
ATOM      2  C   UNL     1      47.907   6.137  14.931  0.00  0.00    +0.000 A 
ATOM      3  N   UNL     1      48.158   5.134  15.798  0.00  0.00    +0.000 NA
ATOM      4  C   UNL     1      47.633   3.923  15.466  0.00  0.00    +0.000 A 
ATOM      5  C   UNL     1      46.844   3.692  14.344  0.00  0.00    +0.000 A 
ATOM      6  C   UNL     1      46.576   4.749  13.468  0.00  0.00    +0.000 A 
ENDROOT
BRANCH   4   7
ATOM      7  C   UNL     1      47.999   2.784  16.364  0.00  0.00    +0.000 C 
ATOM      8  N   UNL     1      47.304   2.733  17.538  0.00  0.00    +0.000 N 
ATOM      9  O   UNL     1      48.871   1.973  16.085  0.00  0.00    +0.000 OA
ATOM     10  H   UNL     1      46.634   3.460  17.756  0.00  0.00    +0.000 HD
ATOM     11  H   UNL     1      47.560   2.048  18.242  0.00  0.00    +0.000 HD
ENDBRANCH   4   7
BRANCH   1  13
ATOM     12  C   UNL     1      46.918   8.144  12.280  0.00  0.00    +0.000 C 
ATOM     13  C   UNL     1      47.027   7.130  12.910  0.00  0.00    +0.000 C 
BRANCH  12  15
ATOM     14  C   UNL     1      47.800  10.382  12.449  0.00  0.00    +0.000 C 
ATOM     15  C   UNL     1      46.800   9.491  11.726  0.00  0.00    +0.000 C 
ENDBRANCH  12  15
ENDBRANCH   1  13
BRANCH   6  16
ATOM     16  C   UNL     1      45.758   4.522  12.251  0.00  0.00    +0.000 C 
ATOM     17  C   UNL     1      45.234   3.334  11.895  0.00  0.00    +0.000 C 
BRANCH  17  18
ATOM     18  C   UNL     1      44.415   3.084  10.650  0.00  0.00    +0.000 C 
BRANCH  18  19
ATOM     19  C   UNL     1      45.252   3.121   9.391  0.00  0.00    +0.000 A 
ATOM     20  C   UNL     1      45.326   4.305   8.646  0.00  0.00    +0.000 A 
ATOM     21  C   UNL     1      45.984   4.329   7.418  0.00  0.00    +0.000 A 
ATOM     22  C   UNL     1      46.567   3.167   6.915  0.00  0.00    +0.000 A 
ATOM     23  C   UNL     1      46.538   1.975   7.652  0.00  0.00    +0.000 A 
ATOM     24  C   UNL     1      45.888   1.967   8.900  0.00  0.00    +0.000 A 
BRANCH  23  25
ATOM     25  C   UNL     1      47.096   0.698   7.064  0.00  0.00    +0.000 C 
BRANCH  25  26
ATOM     26  N   UNL     1      46.661  -0.503   7.774  0.00  0.00    +0.000 NA
ATOM     27  H   UNL     1      45.689  -0.701   7.545  0.00  0.00    +0.000 HD
ATOM     28  H   UNL     1      47.192  -1.300   7.424  0.00  0.00    +0.000 HD
ENDBRANCH  25  26
ENDBRANCH  23  25
ENDBRANCH  18  19
ENDBRANCH  17  18
ENDBRANCH   6  16
TORSDOF 8
ENDMDL
MODEL 5
REMARK VINA RESULT:    -6.323      4.411      6.797
REMARK INTER + INTRA:          -9.948
REMARK INTER:                  -8.971
REMARK INTRA:                  -0.977
REMARK UNBOUND:                -0.853
REMARK  Name = 
REMARK  9 active torsions:
REMARK  status: ('A' for Active; 'I' for Inactive)
REMARK    1  A    between atoms: C_1  and  C_2
REMARK    2  A    between atoms: C_2  and  C_3
REMARK    3  A    between atoms: C_4  and  C_5
REMARK    4  A    between atoms: C_8  and  C_9
REMARK    5  A    between atoms: C_13  and  C_14
REMARK    6  A    between atoms: C_15  and  C_16
REMARK    7  A    between atoms: C_16  and  C_17
REMARK    8  A    between atoms: C_21  and  C_22
REMARK    9  A    between atoms: C_22  and  N_23
REMARK                            x       y       z     vdW  Elec       q    Type
REMARK                         _______ _______ _______ _____ _____    ______ ____
ROOT
ATOM      1  C   UNL     1      46.576   5.608  13.079  0.00  0.00    +0.000 A 
ATOM      2  C   UNL     1      46.402   4.265  13.405  0.00  0.00    +0.000 A 
ATOM      3  N   UNL     1      45.506   3.449  12.812  0.00  0.00    +0.000 NA
ATOM      4  C   UNL     1      44.743   4.020  11.841  0.00  0.00    +0.000 A 
ATOM      5  C   UNL     1      44.810   5.360  11.477  0.00  0.00    +0.000 A 
ATOM      6  C   UNL     1      45.730   6.196  12.120  0.00  0.00    +0.000 A 
ENDROOT
BRANCH   4   7
ATOM      7  C   UNL     1      43.825   3.096  11.104  0.00  0.00    +0.000 C 
ATOM      8  N   UNL     1      43.953   3.125   9.745  0.00  0.00    +0.000 N 
ATOM      9  O   UNL     1      43.005   2.385  11.669  0.00  0.00    +0.000 OA
ATOM     10  H   UNL     1      44.601   3.772   9.315  0.00  0.00    +0.000 HD
ATOM     11  H   UNL     1      43.301   2.599   9.170  0.00  0.00    +0.000 HD
ENDBRANCH   4   7
BRANCH   1  13
ATOM     12  C   UNL     1      48.514   6.941  14.237  0.00  0.00    +0.000 C 
ATOM     13  C   UNL     1      47.598   6.336  13.754  0.00  0.00    +0.000 C 
BRANCH  12  15
ATOM     14  C   UNL     1      50.360   6.882  15.787  0.00  0.00    +0.000 C 
ATOM     15  C   UNL     1      49.743   7.635  14.618  0.00  0.00    +0.000 C 
ENDBRANCH  12  15
ENDBRANCH   1  13
BRANCH   6  16
ATOM     16  C   UNL     1      45.839   7.625  11.733  0.00  0.00    +0.000 C 
ATOM     17  C   UNL     1      45.336   8.649  12.448  0.00  0.00    +0.000 C 
BRANCH  17  18
ATOM     18  C   UNL     1      45.423  10.106  12.057  0.00  0.00    +0.000 C 
BRANCH  18  19
ATOM     19  C   UNL     1      44.403  10.485  11.008  0.00  0.00    +0.000 A 
ATOM     20  C   UNL     1      44.808  11.216   9.883  0.00  0.00    +0.000 A 
ATOM     21  C   UNL     1      43.869  11.687   8.968  0.00  0.00    +0.000 A 
ATOM     22  C   UNL     1      42.512  11.441   9.171  0.00  0.00    +0.000 A 
ATOM     23  C   UNL     1      42.078  10.685  10.268  0.00  0.00    +0.000 A 
ATOM     24  C   UNL     1      43.037  10.198  11.176  0.00  0.00    +0.000 A 
BRANCH  23  25
ATOM     25  C   UNL     1      40.601  10.495  10.530  0.00  0.00    +0.000 C 
BRANCH  25  26
ATOM     26  N   UNL     1      40.310   9.360  11.405  0.00  0.00    +0.000 NA
ATOM     27  H   UNL     1      40.190   8.519  10.843  0.00  0.00    +0.000 HD
ATOM     28  H   UNL     1      41.124   9.183  11.992  0.00  0.00    +0.000 HD
ENDBRANCH  25  26
ENDBRANCH  23  25
ENDBRANCH  18  19
ENDBRANCH  17  18
ENDBRANCH   6  16
TORSDOF 8
ENDMDL
MODEL 6
REMARK VINA RESULT:    -6.298      3.264      6.360
REMARK INTER + INTRA:          -9.913
REMARK INTER:                  -8.682
REMARK INTRA:                  -1.231
REMARK UNBOUND:                -0.853
REMARK  Name = 
REMARK  9 active torsions:
REMARK  status: ('A' for Active; 'I' for Inactive)
REMARK    1  A    between atoms: C_1  and  C_2
REMARK    2  A    between atoms: C_2  and  C_3
REMARK    3  A    between atoms: C_4  and  C_5
REMARK    4  A    between atoms: C_8  and  C_9
REMARK    5  A    between atoms: C_13  and  C_14
REMARK    6  A    between atoms: C_15  and  C_16
REMARK    7  A    between atoms: C_16  and  C_17
REMARK    8  A    between atoms: C_21  and  C_22
REMARK    9  A    between atoms: C_22  and  N_23
REMARK                            x       y       z     vdW  Elec       q    Type
REMARK                         _______ _______ _______ _____ _____    ______ ____
ROOT
ATOM      1  C   UNL     1      46.725   5.305  13.203  0.00  0.00    +0.000 A 
ATOM      2  C   UNL     1      46.554   3.961  13.529  0.00  0.00    +0.000 A 
ATOM      3  N   UNL     1      45.689   3.132  12.908  0.00  0.00    +0.000 NA
ATOM      4  C   UNL     1      44.954   3.691  11.908  0.00  0.00    +0.000 A 
ATOM      5  C   UNL     1      45.018   5.031  11.542  0.00  0.00    +0.000 A 
ATOM      6  C   UNL     1      45.905   5.880  12.213  0.00  0.00    +0.000 A 
ENDROOT
BRANCH   4   7
ATOM      7  C   UNL     1      44.073   2.754  11.143  0.00  0.00    +0.000 C 
ATOM      8  N   UNL     1      44.600   2.303   9.968  0.00  0.00    +0.000 N 
ATOM      9  O   UNL     1      42.955   2.434  11.525  0.00  0.00    +0.000 OA
ATOM     10  H   UNL     1      45.503   2.641   9.660  0.00  0.00    +0.000 HD
ATOM     11  H   UNL     1      44.027   1.741   9.346  0.00  0.00    +0.000 HD
ENDBRANCH   4   7
BRANCH   1  13
ATOM     12  C   UNL     1      48.472   6.737  14.533  0.00  0.00    +0.000 C 
ATOM     13  C   UNL     1      47.714   6.048  13.911  0.00  0.00    +0.000 C 
BRANCH  12  15
ATOM     14  C   UNL     1      50.673   7.325  15.320  0.00  0.00    +0.000 C 
ATOM     15  C   UNL     1      49.204   7.719  15.330  0.00  0.00    +0.000 C 
ENDBRANCH  12  15
ENDBRANCH   1  13
BRANCH   6  16
ATOM     16  C   UNL     1      46.011   7.308  11.825  0.00  0.00    +0.000 C 
ATOM     17  C   UNL     1      45.678   8.342  12.621  0.00  0.00    +0.000 C 
BRANCH  17  18
ATOM     18  C   UNL     1      45.763   9.800  12.233  0.00  0.00    +0.000 C 
BRANCH  18  19
ATOM     19  C   UNL     1      47.161  10.209  11.826  0.00  0.00    +0.000 A 
ATOM     20  C   UNL     1      47.345  11.356  11.043  0.00  0.00    +0.000 A 
ATOM     21  C   UNL     1      48.606  11.682  10.549  0.00  0.00    +0.000 A 
ATOM     22  C   UNL     1      49.697  10.860  10.823  0.00  0.00    +0.000 A 
ATOM     23  C   UNL     1      49.552   9.724  11.631  0.00  0.00    +0.000 A 
ATOM     24  C   UNL     1      48.278   9.415  12.142  0.00  0.00    +0.000 A 
BRANCH  23  25
ATOM     25  C   UNL     1      50.721   8.790  11.855  0.00  0.00    +0.000 C 
BRANCH  25  26
ATOM     26  N   UNL     1      50.382   7.383  11.652  0.00  0.00    +0.000 NA
ATOM     27  H   UNL     1      49.560   7.312  11.054  0.00  0.00    +0.000 HD
ATOM     28  H   UNL     1      51.137   6.936  11.132  0.00  0.00    +0.000 HD
ENDBRANCH  25  26
ENDBRANCH  23  25
ENDBRANCH  18  19
ENDBRANCH  17  18
ENDBRANCH   6  16
TORSDOF 8
ENDMDL
MODEL 7
REMARK VINA RESULT:    -6.232      3.287      7.356
REMARK INTER + INTRA:          -9.817
REMARK INTER:                  -8.877
REMARK INTRA:                  -0.941
REMARK UNBOUND:                -0.853
REMARK  Name = 
REMARK  9 active torsions:
REMARK  status: ('A' for Active; 'I' for Inactive)
REMARK    1  A    between atoms: C_1  and  C_2
REMARK    2  A    between atoms: C_2  and  C_3
REMARK    3  A    between atoms: C_4  and  C_5
REMARK    4  A    between atoms: C_8  and  C_9
REMARK    5  A    between atoms: C_13  and  C_14
REMARK    6  A    between atoms: C_15  and  C_16
REMARK    7  A    between atoms: C_16  and  C_17
REMARK    8  A    between atoms: C_21  and  C_22
REMARK    9  A    between atoms: C_22  and  N_23
REMARK                            x       y       z     vdW  Elec       q    Type
REMARK                         _______ _______ _______ _____ _____    ______ ____
ROOT
ATOM      1  C   UNL     1      44.796   6.835  11.585  0.00  0.00    +0.000 A 
ATOM      2  C   UNL     1      43.593   6.423  11.015  0.00  0.00    +0.000 A 
ATOM      3  N   UNL     1      43.262   5.134  10.789  0.00  0.00    +0.000 NA
ATOM      4  C   UNL     1      44.196   4.214  11.154  0.00  0.00    +0.000 A 
ATOM      5  C   UNL     1      45.442   4.529  11.685  0.00  0.00    +0.000 A 
ATOM      6  C   UNL     1      45.776   5.872  11.890  0.00  0.00    +0.000 A 
ENDROOT
BRANCH   4   7
ATOM      7  C   UNL     1      43.792   2.781  11.008  0.00  0.00    +0.000 C 
ATOM      8  N   UNL     1      44.372   2.125   9.962  0.00  0.00    +0.000 N 
ATOM      9  O   UNL     1      42.984   2.241  11.752  0.00  0.00    +0.000 OA
ATOM     10  H   UNL     1      44.988   2.626   9.334  0.00  0.00    +0.000 HD
ATOM     11  H   UNL     1      44.078   1.179   9.739  0.00  0.00    +0.000 HD
ENDBRANCH   4   7
BRANCH   1  13
ATOM     12  C   UNL     1      45.185   9.408  11.905  0.00  0.00    +0.000 C 
ATOM     13  C   UNL     1      44.989   8.229  11.811  0.00  0.00    +0.000 C 
BRANCH  12  15
ATOM     14  C   UNL     1      47.023  10.968  11.873  0.00  0.00    +0.000 C 
ATOM     15  C   UNL     1      45.510  10.829  11.796  0.00  0.00    +0.000 C 
ENDBRANCH  12  15
ENDBRANCH   1  13
BRANCH   6  16
ATOM     16  C   UNL     1      47.089   6.234  12.479  0.00  0.00    +0.000 C 
ATOM     17  C   UNL     1      47.339   6.307  13.801  0.00  0.00    +0.000 C 
BRANCH  17  18
ATOM     18  C   UNL     1      48.665   6.691  14.415  0.00  0.00    +0.000 C 
BRANCH  18  19
ATOM     19  C   UNL     1      48.801   6.210  15.842  0.00  0.00    +0.000 A 
ATOM     20  C   UNL     1      49.598   6.933  16.741  0.00  0.00    +0.000 A 
ATOM     21  C   UNL     1      49.842   6.443  18.022  0.00  0.00    +0.000 A 
ATOM     22  C   UNL     1      49.302   5.220  18.417  0.00  0.00    +0.000 A 
ATOM     23  C   UNL     1      48.474   4.490  17.553  0.00  0.00    +0.000 A 
ATOM     24  C   UNL     1      48.218   5.004  16.268  0.00  0.00    +0.000 A 
BRANCH  23  25
ATOM     25  C   UNL     1      47.961   3.126  17.955  0.00  0.00    +0.000 C 
BRANCH  25  26
ATOM     26  N   UNL     1      46.551   2.920  17.631  0.00  0.00    +0.000 NA
ATOM     27  H   UNL     1      46.468   2.562  16.681  0.00  0.00    +0.000 HD
ATOM     28  H   UNL     1      46.181   2.185  18.232  0.00  0.00    +0.000 HD
ENDBRANCH  25  26
ENDBRANCH  23  25
ENDBRANCH  18  19
ENDBRANCH  17  18
ENDBRANCH   6  16
TORSDOF 8
ENDMDL
MODEL 8
REMARK VINA RESULT:    -6.209      4.319      8.233
REMARK INTER + INTRA:          -9.784
REMARK INTER:                  -8.402
REMARK INTRA:                  -1.382
REMARK UNBOUND:                -0.853
REMARK  Name = 
REMARK  9 active torsions:
REMARK  status: ('A' for Active; 'I' for Inactive)
REMARK    1  A    between atoms: C_1  and  C_2
REMARK    2  A    between atoms: C_2  and  C_3
REMARK    3  A    between atoms: C_4  and  C_5
REMARK    4  A    between atoms: C_8  and  C_9
REMARK    5  A    between atoms: C_13  and  C_14
REMARK    6  A    between atoms: C_15  and  C_16
REMARK    7  A    between atoms: C_16  and  C_17
REMARK    8  A    between atoms: C_21  and  C_22
REMARK    9  A    between atoms: C_22  and  N_23
REMARK                            x       y       z     vdW  Elec       q    Type
REMARK                         _______ _______ _______ _____ _____    ______ ____
ROOT
ATOM      1  C   UNL     1      46.917   6.117  13.006  0.00  0.00    +0.000 A 
ATOM      2  C   UNL     1      46.231   6.858  12.046  0.00  0.00    +0.000 A 
ATOM      3  N   UNL     1      45.033   6.510  11.531  0.00  0.00    +0.000 NA
ATOM      4  C   UNL     1      44.501   5.351  12.008  0.00  0.00    +0.000 A 
ATOM      5  C   UNL     1      45.130   4.521  12.929  0.00  0.00    +0.000 A 
ATOM      6  C   UNL     1      46.382   4.887  13.434  0.00  0.00    +0.000 A 
ENDROOT
BRANCH   4   7
ATOM      7  C   UNL     1      43.125   5.017  11.524  0.00  0.00    +0.000 C 
ATOM      8  N   UNL     1      42.208   6.016  11.671  0.00  0.00    +0.000 N 
ATOM      9  O   UNL     1      42.834   3.924  11.056  0.00  0.00    +0.000 OA
ATOM     10  H   UNL     1      42.476   6.883  12.120  0.00  0.00    +0.000 HD
ATOM     11  H   UNL     1      41.231   5.835  11.456  0.00  0.00    +0.000 HD
ENDBRANCH   4   7
BRANCH   1  13
ATOM     12  C   UNL     1      49.140   7.091  13.996  0.00  0.00    +0.000 C 
ATOM     13  C   UNL     1      48.151   6.633  13.497  0.00  0.00    +0.000 C 
BRANCH  12  15
ATOM     14  C   UNL     1      50.448   6.820  16.003  0.00  0.00    +0.000 C 
ATOM     15  C   UNL     1      50.203   7.704  14.790  0.00  0.00    +0.000 C 
ENDBRANCH  12  15
ENDBRANCH   1  13
BRANCH   6  16
ATOM     16  C   UNL     1      47.063   4.030  14.437  0.00  0.00    +0.000 C 
ATOM     17  C   UNL     1      47.095   4.283  15.760  0.00  0.00    +0.000 C 
BRANCH  17  18
ATOM     18  C   UNL     1      47.799   3.431  16.790  0.00  0.00    +0.000 C 
BRANCH  18  19
ATOM     19  C   UNL     1      48.285   4.238  17.973  0.00  0.00    +0.000 A 
ATOM     20  C   UNL     1      47.474   5.253  18.497  0.00  0.00    +0.000 A 
ATOM     21  C   UNL     1      47.951   6.093  19.501  0.00  0.00    +0.000 A 
ATOM     22  C   UNL     1      49.248   5.935  19.987  0.00  0.00    +0.000 A 
ATOM     23  C   UNL     1      50.071   4.906  19.507  0.00  0.00    +0.000 A 
ATOM     24  C   UNL     1      49.572   4.052  18.507  0.00  0.00    +0.000 A 
BRANCH  23  25
ATOM     25  C   UNL     1      51.504   4.793  19.976  0.00  0.00    +0.000 C 
BRANCH  25  26
ATOM     26  N   UNL     1      52.241   3.710  19.326  0.00  0.00    +0.000 NA
ATOM     27  H   UNL     1      51.759   2.827  19.484  0.00  0.00    +0.000 HD
ATOM     28  H   UNL     1      52.217   3.857  18.318  0.00  0.00    +0.000 HD
ENDBRANCH  25  26
ENDBRANCH  23  25
ENDBRANCH  18  19
ENDBRANCH  17  18
ENDBRANCH   6  16
TORSDOF 8
ENDMDL
MODEL 9
REMARK VINA RESULT:    -6.095      3.350      8.367
REMARK INTER + INTRA:          -9.620
REMARK INTER:                  -7.920
REMARK INTRA:                  -1.700
REMARK UNBOUND:                -0.853
REMARK  Name = 
REMARK  9 active torsions:
REMARK  status: ('A' for Active; 'I' for Inactive)
REMARK    1  A    between atoms: C_1  and  C_2
REMARK    2  A    between atoms: C_2  and  C_3
REMARK    3  A    between atoms: C_4  and  C_5
REMARK    4  A    between atoms: C_8  and  C_9
REMARK    5  A    between atoms: C_13  and  C_14
REMARK    6  A    between atoms: C_15  and  C_16
REMARK    7  A    between atoms: C_16  and  C_17
REMARK    8  A    between atoms: C_21  and  C_22
REMARK    9  A    between atoms: C_22  and  N_23
REMARK                            x       y       z     vdW  Elec       q    Type
REMARK                         _______ _______ _______ _____ _____    ______ ____
ROOT
ATOM      1  C   UNL     1      46.320   4.559  13.279  0.00  0.00    +0.000 A 
ATOM      2  C   UNL     1      45.520   3.600  12.661  0.00  0.00    +0.000 A 
ATOM      3  N   UNL     1      45.102   3.671  11.380  0.00  0.00    +0.000 NA
ATOM      4  C   UNL     1      45.509   4.770  10.688  0.00  0.00    +0.000 A 
ATOM      5  C   UNL     1      46.266   5.802  11.230  0.00  0.00    +0.000 A 
ATOM      6  C   UNL     1      46.671   5.722  12.567  0.00  0.00    +0.000 A 
ENDROOT
BRANCH   4   7
ATOM      7  C   UNL     1      45.141   4.801   9.238  0.00  0.00    +0.000 C 
ATOM      8  N   UNL     1      43.855   4.436   8.965  0.00  0.00    +0.000 N 
ATOM      9  O   UNL     1      45.936   5.104   8.358  0.00  0.00    +0.000 OA
ATOM     10  H   UNL     1      43.248   4.134   9.716  0.00  0.00    +0.000 HD
ATOM     11  H   UNL     1      43.556   4.339   7.999  0.00  0.00    +0.000 HD
ENDBRANCH   4   7
BRANCH   1  13
ATOM     12  C   UNL     1      47.125   4.220  15.751  0.00  0.00    +0.000 C 
ATOM     13  C   UNL     1      46.728   4.328  14.625  0.00  0.00    +0.000 C 
BRANCH  12  15
ATOM     14  C   UNL     1      48.838   3.249  17.142  0.00  0.00    +0.000 C 
ATOM     15  C   UNL     1      47.732   4.291  17.079  0.00  0.00    +0.000 C 
ENDBRANCH  12  15
ENDBRANCH   1  13
BRANCH   6  16
ATOM     16  C   UNL     1      47.501   6.798  13.162  0.00  0.00    +0.000 C 
ATOM     17  C   UNL     1      48.825   6.942  12.958  0.00  0.00    +0.000 C 
BRANCH  17  18
ATOM     18  C   UNL     1      49.686   8.022  13.571  0.00  0.00    +0.000 C 
BRANCH  18  19
ATOM     19  C   UNL     1      49.678   7.980  15.082  0.00  0.00    +0.000 A 
ATOM     20  C   UNL     1      50.341   6.941  15.748  0.00  0.00    +0.000 A 
ATOM     21  C   UNL     1      50.241   6.809  17.132  0.00  0.00    +0.000 A 
ATOM     22  C   UNL     1      49.467   7.706  17.865  0.00  0.00    +0.000 A 
ATOM     23  C   UNL     1      48.818   8.776  17.232  0.00  0.00    +0.000 A 
ATOM     24  C   UNL     1      48.943   8.912  15.836  0.00  0.00    +0.000 A 
BRANCH  23  25
ATOM     25  C   UNL     1      47.913   9.695  18.019  0.00  0.00    +0.000 C 
BRANCH  25  26
ATOM     26  N   UNL     1      47.649  10.964  17.344  0.00  0.00    +0.000 NA
ATOM     27  H   UNL     1      48.517  11.331  16.956  0.00  0.00    +0.000 HD
ATOM     28  H   UNL     1      47.045  10.790  16.542  0.00  0.00    +0.000 HD
ENDBRANCH  25  26
ENDBRANCH  23  25
ENDBRANCH  18  19
ENDBRANCH  17  18
ENDBRANCH   6  16
TORSDOF 8
ENDMDL
