MODEL 1
REMARK VINA RESULT:    -8.228      0.000      0.000
REMARK INTER + INTRA:         -11.563
REMARK INTER:                 -10.633
REMARK INTRA:                  -0.930
REMARK UNBOUND:                -0.930
REMARK  Name = 
REMARK  5 active torsions:
REMARK  status: ('A' for Active; 'I' for Inactive)
REMARK    1  A    between atoms: C_2  and  C_4
REMARK    2  A    between atoms: C_6  and  N_7
REMARK    3  A    between atoms: N_7  and  C_8
REMARK    4  A    between atoms: C_8  and  C_9
REMARK    5  A    between atoms: C_13  and  C_14
REMARK                            x       y       z     vdW  Elec       q    Type
REMARK                         _______ _______ _______ _____ _____    ______ ____
ROOT
ATOM      1  N   UNL     1      44.275   6.966  12.265  0.00  0.00    +0.000 N 
ATOM      2  H   UNL     1      43.550   6.763  12.947  0.00  0.00    +0.000 HD
ENDROOT
BRANCH   1   5
ATOM      3  C   UNL     1      47.089   5.242  13.955  0.00  0.00    +0.000 A 
ATOM      4  C   UNL     1      45.783   5.600  13.644  0.00  0.00    +0.000 A 
ATOM      5  C   UNL     1      45.556   6.599  12.698  0.00  0.00    +0.000 A 
ATOM      6  C   UNL     1      46.674   7.140  12.058  0.00  0.00    +0.000 A 
ATOM      7  C   UNL     1      47.948   6.727  12.436  0.00  0.00    +0.000 A 
ATOM      8  N   UNL     1      48.191   5.800  13.380  0.00  0.00    +0.000 NA
BRANCH   3  10
ATOM      9  N   UNL     1      47.252   4.579  16.283  0.00  0.00    +0.000 N 
ATOM     10  C   UNL     1      47.330   4.175  14.977  0.00  0.00    +0.000 C 
ATOM     11  O   UNL     1      47.577   3.014  14.677  0.00  0.00    +0.000 OA
ATOM     12  H   UNL     1      47.411   3.910  17.021  0.00  0.00    +0.000 HD
ATOM     13  H   UNL     1      47.046   5.548  16.494  0.00  0.00    +0.000 HD
ENDBRANCH   3  10
ENDBRANCH   1   5
BRANCH   1  14
ATOM     14  C   UNL     1      43.869   6.605  10.911  0.00  0.00    +0.000 C 
BRANCH  14  15
ATOM     15  C   UNL     1      43.983   5.112  10.718  0.00  0.00    +0.000 A 
ATOM     16  C   UNL     1      43.221   4.243  11.506  0.00  0.00    +0.000 A 
ATOM     17  C   UNL     1      43.295   2.868  11.304  0.00  0.00    +0.000 A 
ATOM     18  C   UNL     1      44.131   2.353  10.309  0.00  0.00    +0.000 A 
ATOM     19  C   UNL     1      44.906   3.194   9.490  0.00  0.00    +0.000 A 
ATOM     20  C   UNL     1      44.833   4.578   9.733  0.00  0.00    +0.000 A 
BRANCH  19  21
ATOM     21  C   UNL     1      45.711   2.652   8.371  0.00  0.00    +0.000 A 
ATOM     22  C   UNL     1      46.120   3.474   7.310  0.00  0.00    +0.000 A 
ATOM     23  C   UNL     1      46.915   2.950   6.302  0.00  0.00    +0.000 A 
ATOM     24  N   UNL     1      47.339   1.672   6.271  0.00  0.00    +0.000 NA
ATOM     25  C   UNL     1      46.944   0.885   7.291  0.00  0.00    +0.000 A 
ATOM     26  C   UNL     1      46.139   1.318   8.338  0.00  0.00    +0.000 A 
ENDBRANCH  19  21
ENDBRANCH  14  15
ENDBRANCH   1  14
TORSDOF 5
ENDMDL
MODEL 2
REMARK VINA RESULT:    -7.769      3.050      6.787
REMARK INTER + INTRA:         -10.970
REMARK INTER:                 -10.133
REMARK INTRA:                  -0.837
REMARK UNBOUND:                -0.930
REMARK  Name = 
REMARK  5 active torsions:
REMARK  status: ('A' for Active; 'I' for Inactive)
REMARK    1  A    between atoms: C_2  and  C_4
REMARK    2  A    between atoms: C_6  and  N_7
REMARK    3  A    between atoms: N_7  and  C_8
REMARK    4  A    between atoms: C_8  and  C_9
REMARK    5  A    between atoms: C_13  and  C_14
REMARK                            x       y       z     vdW  Elec       q    Type
REMARK                         _______ _______ _______ _____ _____    ______ ____
ROOT
ATOM      1  N   UNL     1      44.115   4.666   9.176  0.00  0.00    +0.000 N 
ATOM      2  H   UNL     1      44.556   5.559   8.971  0.00  0.00    +0.000 HD
ENDROOT
BRANCH   1   5
ATOM      3  C   UNL     1      46.457   2.573   7.206  0.00  0.00    +0.000 A 
ATOM      4  C   UNL     1      45.754   3.697   7.621  0.00  0.00    +0.000 A 
ATOM      5  C   UNL     1      44.810   3.574   8.640  0.00  0.00    +0.000 A 
ATOM      6  C   UNL     1      44.676   2.320   9.240  0.00  0.00    +0.000 A 
ATOM      7  C   UNL     1      45.417   1.245   8.756  0.00  0.00    +0.000 A 
ATOM      8  N   UNL     1      46.297   1.331   7.742  0.00  0.00    +0.000 NA
BRANCH   3  10
ATOM      9  N   UNL     1      48.759   2.431   6.453  0.00  0.00    +0.000 N 
ATOM     10  C   UNL     1      47.464   2.707   6.106  0.00  0.00    +0.000 C 
ATOM     11  O   UNL     1      47.160   3.038   4.967  0.00  0.00    +0.000 OA
ATOM     12  H   UNL     1      49.487   2.509   5.760  0.00  0.00    +0.000 HD
ATOM     13  H   UNL     1      48.973   2.161   7.405  0.00  0.00    +0.000 HD
ENDBRANCH   3  10
ENDBRANCH   1   5
BRANCH   1  14
ATOM     14  C   UNL     1      43.656   4.587  10.559  0.00  0.00    +0.000 C 
BRANCH  14  15
ATOM     15  C   UNL     1      44.793   4.906  11.499  0.00  0.00    +0.000 A 
ATOM     16  C   UNL     1      45.190   3.972  12.462  0.00  0.00    +0.000 A 
ATOM     17  C   UNL     1      46.263   4.248  13.304  0.00  0.00    +0.000 A 
ATOM     18  C   UNL     1      46.950   5.460  13.187  0.00  0.00    +0.000 A 
ATOM     19  C   UNL     1      46.587   6.420  12.225  0.00  0.00    +0.000 A 
ATOM     20  C   UNL     1      45.481   6.128  11.405  0.00  0.00    +0.000 A 
BRANCH  19  21
ATOM     21  C   UNL     1      47.379   7.658  12.035  0.00  0.00    +0.000 A 
ATOM     22  C   UNL     1      46.800   8.923  12.222  0.00  0.00    +0.000 A 
ATOM     23  C   UNL     1      47.579  10.062  12.086  0.00  0.00    +0.000 A 
ATOM     24  N   UNL     1      48.891  10.040  11.783  0.00  0.00    +0.000 NA
ATOM     25  C   UNL     1      49.444   8.824  11.604  0.00  0.00    +0.000 A 
ATOM     26  C   UNL     1      48.741   7.629  11.708  0.00  0.00    +0.000 A 
ENDBRANCH  19  21
ENDBRANCH  14  15
ENDBRANCH   1  14
TORSDOF 5
ENDMDL
MODEL 3
REMARK VINA RESULT:    -7.680      1.617      2.534
REMARK INTER + INTRA:         -10.854
REMARK INTER:                  -9.894
REMARK INTRA:                  -0.960
REMARK UNBOUND:                -0.930
REMARK  Name = 
REMARK  5 active torsions:
REMARK  status: ('A' for Active; 'I' for Inactive)
REMARK    1  A    between atoms: C_2  and  C_4
REMARK    2  A    between atoms: C_6  and  N_7
REMARK    3  A    between atoms: N_7  and  C_8
REMARK    4  A    between atoms: C_8  and  C_9
REMARK    5  A    between atoms: C_13  and  C_14
REMARK                            x       y       z     vdW  Elec       q    Type
REMARK                         _______ _______ _______ _____ _____    ______ ____
ROOT
ATOM      1  N   UNL     1      44.208   6.664  12.595  0.00  0.00    +0.000 N 
ATOM      2  H   UNL     1      43.621   6.347  13.362  0.00  0.00    +0.000 HD
ENDROOT
BRANCH   1   5
ATOM      3  C   UNL     1      47.909   6.891  12.599  0.00  0.00    +0.000 A 
ATOM      4  C   UNL     1      46.589   7.190  12.283  0.00  0.00    +0.000 A 
ATOM      5  C   UNL     1      45.568   6.390  12.795  0.00  0.00    +0.000 A 
ATOM      6  C   UNL     1      45.936   5.360  13.664  0.00  0.00    +0.000 A 
ATOM      7  C   UNL     1      47.283   5.127  13.920  0.00  0.00    +0.000 A 
ATOM      8  N   UNL     1      48.288   5.856  13.400  0.00  0.00    +0.000 NA
BRANCH   3  10
ATOM      9  N   UNL     1      50.272   7.244  12.172  0.00  0.00    +0.000 N 
ATOM     10  C   UNL     1      49.004   7.747  12.042  0.00  0.00    +0.000 C 
ATOM     11  O   UNL     1      48.793   8.825  11.501  0.00  0.00    +0.000 OA
ATOM     12  H   UNL     1      51.055   7.776  11.824  0.00  0.00    +0.000 HD
ATOM     13  H   UNL     1      50.409   6.350  12.626  0.00  0.00    +0.000 HD
ENDBRANCH   3  10
ENDBRANCH   1   5
BRANCH   1  14
ATOM     14  C   UNL     1      43.622   6.359  11.295  0.00  0.00    +0.000 C 
BRANCH  14  15
ATOM     15  C   UNL     1      43.839   4.905  10.957  0.00  0.00    +0.000 A 
ATOM     16  C   UNL     1      43.140   3.911  11.650  0.00  0.00    +0.000 A 
ATOM     17  C   UNL     1      43.310   2.572  11.315  0.00  0.00    +0.000 A 
ATOM     18  C   UNL     1      44.179   2.216  10.280  0.00  0.00    +0.000 A 
ATOM     19  C   UNL     1      44.893   3.185   9.552  0.00  0.00    +0.000 A 
ATOM     20  C   UNL     1      44.724   4.531   9.930  0.00  0.00    +0.000 A 
BRANCH  19  21
ATOM     21  C   UNL     1      45.734   2.813   8.390  0.00  0.00    +0.000 A 
ATOM     22  C   UNL     1      46.235   1.510   8.249  0.00  0.00    +0.000 A 
ATOM     23  C   UNL     1      46.977   1.178   7.125  0.00  0.00    +0.000 A 
ATOM     24  N   UNL     1      47.255   2.041   6.130  0.00  0.00    +0.000 NA
ATOM     25  C   UNL     1      46.773   3.292   6.270  0.00  0.00    +0.000 A 
ATOM     26  C   UNL     1      46.030   3.719   7.363  0.00  0.00    +0.000 A 
ENDBRANCH  19  21
ENDBRANCH  14  15
ENDBRANCH   1  14
TORSDOF 5
ENDMDL
MODEL 4
REMARK VINA RESULT:    -7.502      2.589      7.405
REMARK INTER + INTRA:         -10.625
REMARK INTER:                  -9.788
REMARK INTRA:                  -0.837
REMARK UNBOUND:                -0.930
REMARK  Name = 
REMARK  5 active torsions:
REMARK  status: ('A' for Active; 'I' for Inactive)
REMARK    1  A    between atoms: C_2  and  C_4
REMARK    2  A    between atoms: C_6  and  N_7
REMARK    3  A    between atoms: N_7  and  C_8
REMARK    4  A    between atoms: C_8  and  C_9
REMARK    5  A    between atoms: C_13  and  C_14
REMARK                            x       y       z     vdW  Elec       q    Type
REMARK                         _______ _______ _______ _____ _____    ______ ____
ROOT
ATOM      1  N   UNL     1      44.800   5.272   9.784  0.00  0.00    +0.000 N 
ATOM      2  H   UNL     1      45.359   6.069   9.495  0.00  0.00    +0.000 HD
ENDROOT
BRANCH   1   5
ATOM      3  C   UNL     1      46.347   2.830   7.462  0.00  0.00    +0.000 A 
ATOM      4  C   UNL     1      45.987   4.056   8.008  0.00  0.00    +0.000 A 
ATOM      5  C   UNL     1      45.148   4.087   9.121  0.00  0.00    +0.000 A 
ATOM      6  C   UNL     1      44.769   2.861   9.671  0.00  0.00    +0.000 A 
ATOM      7  C   UNL     1      45.170   1.679   9.056  0.00  0.00    +0.000 A 
ATOM      8  N   UNL     1      45.940   1.626   7.954  0.00  0.00    +0.000 NA
BRANCH   3  10
ATOM      9  N   UNL     1      48.550   2.476   6.508  0.00  0.00    +0.000 N 
ATOM     10  C   UNL     1      47.241   2.799   6.262  0.00  0.00    +0.000 C 
ATOM     11  O   UNL     1      46.841   3.042   5.131  0.00  0.00    +0.000 OA
ATOM     12  H   UNL     1      49.206   2.446   5.743  0.00  0.00    +0.000 HD
ATOM     13  H   UNL     1      48.845   2.283   7.457  0.00  0.00    +0.000 HD
ENDBRANCH   3  10
ENDBRANCH   1   5
BRANCH   1  14
ATOM     14  C   UNL     1      44.613   5.229  11.230  0.00  0.00    +0.000 C 
BRANCH  14  15
ATOM     15  C   UNL     1      45.871   5.687  11.927  0.00  0.00    +0.000 A 
ATOM     16  C   UNL     1      46.696   6.644  11.329  0.00  0.00    +0.000 A 
ATOM     17  C   UNL     1      47.836   7.097  11.987  0.00  0.00    +0.000 A 
ATOM     18  C   UNL     1      48.157   6.596  13.251  0.00  0.00    +0.000 A 
ATOM     19  C   UNL     1      47.348   5.639  13.891  0.00  0.00    +0.000 A 
ATOM     20  C   UNL     1      46.217   5.178  13.192  0.00  0.00    +0.000 A 
BRANCH  19  21
ATOM     21  C   UNL     1      47.635   5.187  15.272  0.00  0.00    +0.000 A 
ATOM     22  C   UNL     1      47.060   4.013  15.783  0.00  0.00    +0.000 A 
ATOM     23  C   UNL     1      47.387   3.587  17.062  0.00  0.00    +0.000 A 
ATOM     24  N   UNL     1      48.245   4.237  17.870  0.00  0.00    +0.000 NA
ATOM     25  C   UNL     1      48.795   5.365  17.377  0.00  0.00    +0.000 A 
ATOM     26  C   UNL     1      48.520   5.874  16.114  0.00  0.00    +0.000 A 
ENDBRANCH  19  21
ENDBRANCH  14  15
ENDBRANCH   1  14
TORSDOF 5
ENDMDL
MODEL 5
REMARK VINA RESULT:    -7.480      2.827      6.909
REMARK INTER + INTRA:         -10.595
REMARK INTER:                  -9.785
REMARK INTRA:                  -0.810
REMARK UNBOUND:                -0.930
REMARK  Name = 
REMARK  5 active torsions:
REMARK  status: ('A' for Active; 'I' for Inactive)
REMARK    1  A    between atoms: C_2  and  C_4
REMARK    2  A    between atoms: C_6  and  N_7
REMARK    3  A    between atoms: N_7  and  C_8
REMARK    4  A    between atoms: C_8  and  C_9
REMARK    5  A    between atoms: C_13  and  C_14
REMARK                            x       y       z     vdW  Elec       q    Type
REMARK                         _______ _______ _______ _____ _____    ______ ____
ROOT
ATOM      1  N   UNL     1      45.322   5.561   9.490  0.00  0.00    +0.000 N 
ATOM      2  H   UNL     1      46.173   6.114   9.441  0.00  0.00    +0.000 HD
ENDROOT
BRANCH   1   5
ATOM      3  C   UNL     1      46.478   2.668   7.479  0.00  0.00    +0.000 A 
ATOM      4  C   UNL     1      46.329   3.986   7.893  0.00  0.00    +0.000 A 
ATOM      5  C   UNL     1      45.472   4.275   8.955  0.00  0.00    +0.000 A 
ATOM      6  C   UNL     1      44.858   3.195   9.593  0.00  0.00    +0.000 A 
ATOM      7  C   UNL     1      45.058   1.906   9.108  0.00  0.00    +0.000 A 
ATOM      8  N   UNL     1      45.843   1.610   8.055  0.00  0.00    +0.000 NA
BRANCH   3  10
ATOM      9  N   UNL     1      47.266   3.179   5.241  0.00  0.00    +0.000 N 
ATOM     10  C   UNL     1      47.393   2.363   6.334  0.00  0.00    +0.000 C 
ATOM     11  O   UNL     1      48.207   1.449   6.362  0.00  0.00    +0.000 OA
ATOM     12  H   UNL     1      47.848   3.021   4.433  0.00  0.00    +0.000 HD
ATOM     13  H   UNL     1      46.580   3.924   5.253  0.00  0.00    +0.000 HD
ENDBRANCH   3  10
ENDBRANCH   1   5
BRANCH   1  14
ATOM     14  C   UNL     1      44.649   5.704  10.777  0.00  0.00    +0.000 C 
BRANCH  14  15
ATOM     15  C   UNL     1      45.664   5.686  11.894  0.00  0.00    +0.000 A 
ATOM     16  C   UNL     1      45.493   4.825  12.983  0.00  0.00    +0.000 A 
ATOM     17  C   UNL     1      46.446   4.778  13.995  0.00  0.00    +0.000 A 
ATOM     18  C   UNL     1      47.581   5.591  13.925  0.00  0.00    +0.000 A 
ATOM     19  C   UNL     1      47.794   6.464  12.842  0.00  0.00    +0.000 A 
ATOM     20  C   UNL     1      46.801   6.512  11.845  0.00  0.00    +0.000 A 
BRANCH  19  21
ATOM     21  C   UNL     1      49.044   7.249  12.719  0.00  0.00    +0.000 A 
ATOM     22  C   UNL     1      49.779   7.621  13.855  0.00  0.00    +0.000 A 
ATOM     23  C   UNL     1      50.972   8.312  13.706  0.00  0.00    +0.000 A 
ATOM     24  N   UNL     1      51.492   8.658  12.513  0.00  0.00    +0.000 NA
ATOM     25  C   UNL     1      50.784   8.299  11.424  0.00  0.00    +0.000 A 
ATOM     26  C   UNL     1      49.576   7.616  11.475  0.00  0.00    +0.000 A 
ENDBRANCH  19  21
ENDBRANCH  14  15
ENDBRANCH   1  14
TORSDOF 5
ENDMDL
MODEL 6
REMARK VINA RESULT:    -6.909      2.182      2.825
REMARK INTER + INTRA:          -9.858
REMARK INTER:                  -9.066
REMARK INTRA:                  -0.792
REMARK UNBOUND:                -0.930
REMARK  Name = 
REMARK  5 active torsions:
REMARK  status: ('A' for Active; 'I' for Inactive)
REMARK    1  A    between atoms: C_2  and  C_4
REMARK    2  A    between atoms: C_6  and  N_7
REMARK    3  A    between atoms: N_7  and  C_8
REMARK    4  A    between atoms: C_8  and  C_9
REMARK    5  A    between atoms: C_13  and  C_14
REMARK                            x       y       z     vdW  Elec       q    Type
REMARK                         _______ _______ _______ _____ _____    ______ ____
ROOT
ATOM      1  N   UNL     1      44.660   6.891  12.568  0.00  0.00    +0.000 N 
ATOM      2  H   UNL     1      45.004   6.062  13.044  0.00  0.00    +0.000 HD
ENDROOT
BRANCH   1   5
ATOM      3  C   UNL     1      47.880   8.651  12.044  0.00  0.00    +0.000 A 
ATOM      4  C   UNL     1      46.992   7.606  12.265  0.00  0.00    +0.000 A 
ATOM      5  C   UNL     1      45.635   7.886  12.421  0.00  0.00    +0.000 A 
ATOM      6  C   UNL     1      45.235   9.216  12.274  0.00  0.00    +0.000 A 
ATOM      7  C   UNL     1      46.193  10.201  12.059  0.00  0.00    +0.000 A 
ATOM      8  N   UNL     1      47.513   9.960  11.953  0.00  0.00    +0.000 NA
BRANCH   3  10
ATOM      9  N   UNL     1      50.108   9.379  11.416  0.00  0.00    +0.000 N 
ATOM     10  C   UNL     1      49.338   8.348  11.885  0.00  0.00    +0.000 C 
ATOM     11  O   UNL     1      49.821   7.257  12.155  0.00  0.00    +0.000 OA
ATOM     12  H   UNL     1      51.097   9.238  11.279  0.00  0.00    +0.000 HD
ATOM     13  H   UNL     1      49.674  10.269  11.201  0.00  0.00    +0.000 HD
ENDBRANCH   3  10
ENDBRANCH   1   5
BRANCH   1  14
ATOM     14  C   UNL     1      43.832   6.554  11.414  0.00  0.00    +0.000 C 
BRANCH  14  15
ATOM     15  C   UNL     1      43.955   5.082  11.102  0.00  0.00    +0.000 A 
ATOM     16  C   UNL     1      43.234   4.144  11.848  0.00  0.00    +0.000 A 
ATOM     17  C   UNL     1      43.316   2.790  11.538  0.00  0.00    +0.000 A 
ATOM     18  C   UNL     1      44.117   2.365  10.475  0.00  0.00    +0.000 A 
ATOM     19  C   UNL     1      44.849   3.277   9.694  0.00  0.00    +0.000 A 
ATOM     20  C   UNL     1      44.771   4.638  10.047  0.00  0.00    +0.000 A 
BRANCH  19  21
ATOM     21  C   UNL     1      45.616   2.834   8.506  0.00  0.00    +0.000 A 
ATOM     22  C   UNL     1      45.920   3.727   7.468  0.00  0.00    +0.000 A 
ATOM     23  C   UNL     1      46.682   3.297   6.392  0.00  0.00    +0.000 A 
ATOM     24  N   UNL     1      47.168   2.047   6.272  0.00  0.00    +0.000 NA
ATOM     25  C   UNL     1      46.873   1.191   7.270  0.00  0.00    +0.000 A 
ATOM     26  C   UNL     1      46.109   1.529   8.381  0.00  0.00    +0.000 A 
ENDBRANCH  19  21
ENDBRANCH  14  15
ENDBRANCH   1  14
TORSDOF 5
ENDMDL
MODEL 7
REMARK VINA RESULT:    -6.609      3.570      4.795
REMARK INTER + INTRA:          -9.470
REMARK INTER:                  -8.886
REMARK INTRA:                  -0.585
REMARK UNBOUND:                -0.930
REMARK  Name = 
REMARK  5 active torsions:
REMARK  status: ('A' for Active; 'I' for Inactive)
REMARK    1  A    between atoms: C_2  and  C_4
REMARK    2  A    between atoms: C_6  and  N_7
REMARK    3  A    between atoms: N_7  and  C_8
REMARK    4  A    between atoms: C_8  and  C_9
REMARK    5  A    between atoms: C_13  and  C_14
REMARK                            x       y       z     vdW  Elec       q    Type
REMARK                         _______ _______ _______ _____ _____    ______ ____
ROOT
ATOM      1  N   UNL     1      43.389   7.936  11.076  0.00  0.00    +0.000 N 
ATOM      2  H   UNL     1      42.615   7.653  11.671  0.00  0.00    +0.000 HD
ENDROOT
BRANCH   1   5
ATOM      3  C   UNL     1      44.650  11.420  10.930  0.00  0.00    +0.000 A 
ATOM      4  C   UNL     1      44.624  10.058  11.203  0.00  0.00    +0.000 A 
ATOM      5  C   UNL     1      43.475   9.325  10.910  0.00  0.00    +0.000 A 
ATOM      6  C   UNL     1      42.426  10.003  10.285  0.00  0.00    +0.000 A 
ATOM      7  C   UNL     1      42.534  11.371  10.054  0.00  0.00    +0.000 A 
ATOM      8  N   UNL     1      43.614  12.107  10.373  0.00  0.00    +0.000 NA
BRANCH   3  10
ATOM      9  N   UNL     1      46.045  12.534  12.573  0.00  0.00    +0.000 N 
ATOM     10  C   UNL     1      45.883  12.205  11.254  0.00  0.00    +0.000 C 
ATOM     11  O   UNL     1      46.700  12.536  10.404  0.00  0.00    +0.000 OA
ATOM     12  H   UNL     1      46.852  13.069  12.856  0.00  0.00    +0.000 HD
ATOM     13  H   UNL     1      45.348  12.245  13.248  0.00  0.00    +0.000 HD
ENDBRANCH   3  10
ENDBRANCH   1   5
BRANCH   1  14
ATOM     14  C   UNL     1      44.610   7.196  11.377  0.00  0.00    +0.000 C 
BRANCH  14  15
ATOM     15  C   UNL     1      44.402   5.726  11.107  0.00  0.00    +0.000 A 
ATOM     16  C   UNL     1      43.448   5.006  11.833  0.00  0.00    +0.000 A 
ATOM     17  C   UNL     1      43.227   3.660  11.560  0.00  0.00    +0.000 A 
ATOM     18  C   UNL     1      43.959   3.023  10.554  0.00  0.00    +0.000 A 
ATOM     19  C   UNL     1      44.921   3.714   9.794  0.00  0.00    +0.000 A 
ATOM     20  C   UNL     1      45.144   5.067  10.110  0.00  0.00    +0.000 A 
BRANCH  19  21
ATOM     21  C   UNL     1      45.621   3.063   8.662  0.00  0.00    +0.000 A 
ATOM     22  C   UNL     1      46.110   3.818   7.585  0.00  0.00    +0.000 A 
ATOM     23  C   UNL     1      46.806   3.188   6.564  0.00  0.00    +0.000 A 
ATOM     24  N   UNL     1      47.055   1.865   6.534  0.00  0.00    +0.000 NA
ATOM     25  C   UNL     1      46.583   1.143   7.569  0.00  0.00    +0.000 A 
ATOM     26  C   UNL     1      45.868   1.685   8.630  0.00  0.00    +0.000 A 
ENDBRANCH  19  21
ENDBRANCH  14  15
ENDBRANCH   1  14
TORSDOF 5
ENDMDL
MODEL 8
REMARK VINA RESULT:    -6.573      2.808      5.113
REMARK INTER + INTRA:          -9.424
REMARK INTER:                  -8.588
REMARK INTRA:                  -0.837
REMARK UNBOUND:                -0.930
REMARK  Name = 
REMARK  5 active torsions:
REMARK  status: ('A' for Active; 'I' for Inactive)
REMARK    1  A    between atoms: C_2  and  C_4
REMARK    2  A    between atoms: C_6  and  N_7
REMARK    3  A    between atoms: N_7  and  C_8
REMARK    4  A    between atoms: C_8  and  C_9
REMARK    5  A    between atoms: C_13  and  C_14
REMARK                            x       y       z     vdW  Elec       q    Type
REMARK                         _______ _______ _______ _____ _____    ______ ____
ROOT
ATOM      1  N   UNL     1      49.028   7.460  15.364  0.00  0.00    +0.000 N 
ATOM      2  H   UNL     1      48.224   8.008  15.658  0.00  0.00    +0.000 HD
ENDROOT
BRANCH   1   5
ATOM      3  C   UNL     1      48.809   4.435  17.496  0.00  0.00    +0.000 A 
ATOM      4  C   UNL     1      48.398   5.484  16.684  0.00  0.00    +0.000 A 
ATOM      5  C   UNL     1      49.338   6.418  16.248  0.00  0.00    +0.000 A 
ATOM      6  C   UNL     1      50.670   6.199  16.604  0.00  0.00    +0.000 A 
ATOM      7  C   UNL     1      50.993   5.124  17.426  0.00  0.00    +0.000 A 
ATOM      8  N   UNL     1      50.096   4.239  17.897  0.00  0.00    +0.000 NA
BRANCH   3  10
ATOM      9  N   UNL     1      48.084   2.823  19.158  0.00  0.00    +0.000 N 
ATOM     10  C   UNL     1      47.797   3.438  17.969  0.00  0.00    +0.000 C 
ATOM     11  O   UNL     1      46.775   3.184  17.344  0.00  0.00    +0.000 OA
ATOM     12  H   UNL     1      47.446   2.135  19.528  0.00  0.00    +0.000 HD
ATOM     13  H   UNL     1      48.939   3.057  19.647  0.00  0.00    +0.000 HD
ENDBRANCH   3  10
ENDBRANCH   1   5
BRANCH   1  14
ATOM     14  C   UNL     1      49.000   7.172  13.934  0.00  0.00    +0.000 C 
BRANCH  14  15
ATOM     15  C   UNL     1      47.586   7.272  13.415  0.00  0.00    +0.000 A 
ATOM     16  C   UNL     1      46.960   8.519  13.319  0.00  0.00    +0.000 A 
ATOM     17  C   UNL     1      45.672   8.619  12.804  0.00  0.00    +0.000 A 
ATOM     18  C   UNL     1      45.000   7.470  12.377  0.00  0.00    +0.000 A 
ATOM     19  C   UNL     1      45.598   6.199  12.448  0.00  0.00    +0.000 A 
ATOM     20  C   UNL     1      46.891   6.123  12.998  0.00  0.00    +0.000 A 
BRANCH  19  21
ATOM     21  C   UNL     1      44.924   4.998  11.901  0.00  0.00    +0.000 A 
ATOM     22  C   UNL     1      44.229   4.114  12.741  0.00  0.00    +0.000 A 
ATOM     23  C   UNL     1      43.566   3.026  12.194  0.00  0.00    +0.000 A 
ATOM     24  N   UNL     1      43.536   2.752  10.876  0.00  0.00    +0.000 NA
ATOM     25  C   UNL     1      44.205   3.602  10.073  0.00  0.00    +0.000 A 
ATOM     26  C   UNL     1      44.906   4.711  10.530  0.00  0.00    +0.000 A 
ENDBRANCH  19  21
ENDBRANCH  14  15
ENDBRANCH   1  14
TORSDOF 5
ENDMDL
MODEL 9
REMARK VINA RESULT:    -6.502      3.722      7.603
REMARK INTER + INTRA:          -9.333
REMARK INTER:                  -8.473
REMARK INTRA:                  -0.860
REMARK UNBOUND:                -0.930
REMARK  Name = 
REMARK  5 active torsions:
REMARK  status: ('A' for Active; 'I' for Inactive)
REMARK    1  A    between atoms: C_2  and  C_4
REMARK    2  A    between atoms: C_6  and  N_7
REMARK    3  A    between atoms: N_7  and  C_8
REMARK    4  A    between atoms: C_8  and  C_9
REMARK    5  A    between atoms: C_13  and  C_14
REMARK                            x       y       z     vdW  Elec       q    Type
REMARK                         _______ _______ _______ _____ _____    ______ ____
ROOT
ATOM      1  N   UNL     1      44.844   6.612  13.125  0.00  0.00    +0.000 N 
ATOM      2  H   UNL     1      44.155   7.349  13.255  0.00  0.00    +0.000 HD
ENDROOT
BRANCH   1   5
ATOM      3  C   UNL     1      44.474   4.395  10.177  0.00  0.00    +0.000 A 
ATOM      4  C   UNL     1      44.893   5.472  10.948  0.00  0.00    +0.000 A 
ATOM      5  C   UNL     1      44.414   5.605  12.251  0.00  0.00    +0.000 A 
ATOM      6  C   UNL     1      43.581   4.594  12.733  0.00  0.00    +0.000 A 
ATOM      7  C   UNL     1      43.206   3.553  11.889  0.00  0.00    +0.000 A 
ATOM      8  N   UNL     1      43.618   3.430  10.614  0.00  0.00    +0.000 NA
BRANCH   3  10
ATOM      9  N   UNL     1      44.365   3.306   8.011  0.00  0.00    +0.000 N 
ATOM     10  C   UNL     1      44.984   4.259   8.776  0.00  0.00    +0.000 C 
ATOM     11  O   UNL     1      45.892   4.950   8.331  0.00  0.00    +0.000 OA
ATOM     12  H   UNL     1      44.667   3.159   7.060  0.00  0.00    +0.000 HD
ATOM     13  H   UNL     1      43.619   2.752   8.413  0.00  0.00    +0.000 HD
ENDBRANCH   3  10
ENDBRANCH   1   5
BRANCH   1  14
ATOM     14  C   UNL     1      46.192   7.146  12.961  0.00  0.00    +0.000 C 
BRANCH  14  15
ATOM     15  C   UNL     1      46.126   8.575  12.480  0.00  0.00    +0.000 A 
ATOM     16  C   UNL     1      47.290   9.349  12.417  0.00  0.00    +0.000 A 
ATOM     17  C   UNL     1      47.238  10.654  11.937  0.00  0.00    +0.000 A 
ATOM     18  C   UNL     1      46.021  11.194  11.513  0.00  0.00    +0.000 A 
ATOM     19  C   UNL     1      44.830  10.446  11.551  0.00  0.00    +0.000 A 
ATOM     20  C   UNL     1      44.905   9.138  12.067  0.00  0.00    +0.000 A 
BRANCH  19  21
ATOM     21  C   UNL     1      43.563  10.986  11.007  0.00  0.00    +0.000 A 
ATOM     22  C   UNL     1      42.499  10.134  10.672  0.00  0.00    +0.000 A 
ATOM     23  C   UNL     1      41.306  10.672  10.212  0.00  0.00    +0.000 A 
ATOM     24  N   UNL     1      41.090  11.993  10.063  0.00  0.00    +0.000 NA
ATOM     25  C   UNL     1      42.114  12.807  10.383  0.00  0.00    +0.000 A 
ATOM     26  C   UNL     1      43.347  12.360  10.842  0.00  0.00    +0.000 A 
ENDBRANCH  19  21
ENDBRANCH  14  15
ENDBRANCH   1  14
TORSDOF 5
ENDMDL
