MODEL 1
REMARK VINA RESULT:    -8.367      0.000      0.000
REMARK INTER + INTRA:         -14.408
REMARK INTER:                 -13.015
REMARK INTRA:                  -1.393
REMARK UNBOUND:                -1.393
REMARK  Name = 
REMARK  10 active torsions:
REMARK  status: ('A' for Active; 'I' for Inactive)
REMARK    1  A    between atoms: C_2  and  C_20
REMARK    2  A    between atoms: N_3  and  C_4
REMARK    3  A    between atoms: C_4  and  C_5
REMARK    4  A    between atoms: C_8  and  C_9
REMARK    5  A    between atoms: C_9  and  N_10
REMARK    6  A    between atoms: N_10  and  C_11
REMARK    7  A    between atoms: C_11  and  C_12
REMARK    8  A    between atoms: N_28  and  C_29
REMARK    9  A    between atoms: C_29  and  C_30
REMARK   10  A    between atoms: C_30  and  O_31
REMARK                            x       y       z     vdW  Elec       q    Type
REMARK                         _______ _______ _______ _____ _____    ______ ____
ROOT
ATOM      1  O   UNL     1      49.944   6.533  15.328  0.00  0.00    +0.000 OA
ATOM      2  C   UNL     1      48.870   7.069  15.600  0.00  0.00    +0.000 C 
ATOM      3  N   UNL     1      47.883   7.291  14.666  0.00  0.00    +0.000 N 
ATOM      4  H   UNL     1      47.119   7.910  14.896  0.00  0.00    +0.000 HD
ENDROOT
BRANCH   2   5
ATOM      5  C   UNL     1      48.576   7.543  16.943  0.00  0.00    +0.000 A 
ATOM      6  C   UNL     1      48.186   8.828  17.308  0.00  0.00    +0.000 A 
ATOM      7  N   UNL     1      47.952   8.839  18.658  0.00  0.00    +0.000 N 
ATOM      8  C   UNL     1      48.204   7.603  19.181  0.00  0.00    +0.000 A 
ATOM      9  N   UNL     1      48.091   7.299  20.483  0.00  0.00    +0.000 NA
ATOM     10  C   UNL     1      48.399   6.013  20.708  0.00  0.00    +0.000 A 
ATOM     11  N   UNL     1      48.766   5.079  19.811  0.00  0.00    +0.000 NA
ATOM     12  C   UNL     1      48.881   5.424  18.504  0.00  0.00    +0.000 A 
ATOM     13  N   UNL     1      49.333   4.487  17.584  0.00  0.00    +0.000 N 
ATOM     14  C   UNL     1      48.585   6.759  18.152  0.00  0.00    +0.000 A 
ATOM     15  H   UNL     1      47.635   9.625  19.209  0.00  0.00    +0.000 HD
ATOM     16  H   UNL     1      49.227   4.788  16.614  0.00  0.00    +0.000 HD
BRANCH  13  17
ATOM     17  C   UNL     1      49.008   3.083  17.819  0.00  0.00    +0.000 C 
BRANCH  17  18
ATOM     18  C   UNL     1      50.044   2.149  17.182  0.00  0.00    +0.000 C 
BRANCH  18  19
ATOM     19  O   UNL     1      49.598   1.660  15.917  0.00  0.00    +0.000 OA
ATOM     20  H   UNL     1      49.258   0.755  16.059  0.00  0.00    +0.000 HD
ENDBRANCH  18  19
ENDBRANCH  17  18
ENDBRANCH  13  17
ENDBRANCH   2   5
BRANCH   3  21
ATOM     21  C   UNL     1      48.107   6.948  13.281  0.00  0.00    +0.000 C 
BRANCH  21  22
ATOM     22  C   UNL     1      46.994   6.118  12.701  0.00  0.00    +0.000 A 
ATOM     23  C   UNL     1      46.441   5.056  13.429  0.00  0.00    +0.000 A 
ATOM     24  C   UNL     1      45.371   4.317  12.911  0.00  0.00    +0.000 A 
ATOM     25  C   UNL     1      44.830   4.618  11.652  0.00  0.00    +0.000 A 
ATOM     26  C   UNL     1      45.402   5.662  10.914  0.00  0.00    +0.000 A 
ATOM     27  C   UNL     1      46.475   6.401  11.430  0.00  0.00    +0.000 A 
BRANCH  25  28
ATOM     28  C   UNL     1      43.657   3.828  11.107  0.00  0.00    +0.000 C 
BRANCH  28  29
ATOM     29  N   UNL     1      43.854   3.512   9.694  0.00  0.00    +0.000 NA
ATOM     30  H   UNL     1      44.456   4.226   9.279  0.00  0.00    +0.000 HD
BRANCH  29  31
ATOM     31  C   UNL     1      44.510   2.209   9.511  0.00  0.00    +0.000 C 
BRANCH  31  32
ATOM     32  C   UNL     1      45.555   2.255   8.410  0.00  0.00    +0.000 A 
ATOM     33  C   UNL     1      45.726   3.415   7.653  0.00  0.00    +0.000 A 
ATOM     34  C   UNL     1      46.712   3.446   6.673  0.00  0.00    +0.000 A 
ATOM     35  C   UNL     1      47.499   2.320   6.465  0.00  0.00    +0.000 A 
ATOM     36  C   UNL     1      47.261   1.204   7.251  0.00  0.00    +0.000 A 
ATOM     37  N   UNL     1      46.316   1.145   8.217  0.00  0.00    +0.000 NA
ENDBRANCH  31  32
ENDBRANCH  29  31
ENDBRANCH  28  29
ENDBRANCH  25  28
ENDBRANCH  21  22
ENDBRANCH   3  21
TORSDOF 10
ENDMDL
MODEL 2
REMARK VINA RESULT:    -7.938      1.482      2.925
REMARK INTER + INTRA:         -13.740
REMARK INTER:                 -12.301
REMARK INTRA:                  -1.439
REMARK UNBOUND:                -1.393
REMARK  Name = 
REMARK  10 active torsions:
REMARK  status: ('A' for Active; 'I' for Inactive)
REMARK    1  A    between atoms: C_2  and  C_20
REMARK    2  A    between atoms: N_3  and  C_4
REMARK    3  A    between atoms: C_4  and  C_5
REMARK    4  A    between atoms: C_8  and  C_9
REMARK    5  A    between atoms: C_9  and  N_10
REMARK    6  A    between atoms: N_10  and  C_11
REMARK    7  A    between atoms: C_11  and  C_12
REMARK    8  A    between atoms: N_28  and  C_29
REMARK    9  A    between atoms: C_29  and  C_30
REMARK   10  A    between atoms: C_30  and  O_31
REMARK                            x       y       z     vdW  Elec       q    Type
REMARK                         _______ _______ _______ _____ _____    ______ ____
ROOT
ATOM      1  O   UNL     1      49.836   6.120  16.147  0.00  0.00    +0.000 OA
ATOM      2  C   UNL     1      48.802   5.490  16.369  0.00  0.00    +0.000 C 
ATOM      3  N   UNL     1      47.752   5.433  15.480  0.00  0.00    +0.000 N 
ATOM      4  H   UNL     1      46.860   5.079  15.795  0.00  0.00    +0.000 HD
ENDROOT
BRANCH   2   5
ATOM      5  C   UNL     1      48.600   4.778  17.621  0.00  0.00    +0.000 A 
ATOM      6  C   UNL     1      48.301   3.428  17.774  0.00  0.00    +0.000 A 
ATOM      7  N   UNL     1      48.253   3.148  19.115  0.00  0.00    +0.000 N 
ATOM      8  C   UNL     1      48.490   4.285  19.834  0.00  0.00    +0.000 A 
ATOM      9  N   UNL     1      48.485   4.344  21.173  0.00  0.00    +0.000 NA
ATOM     10  C   UNL     1      48.749   5.586  21.605  0.00  0.00    +0.000 A 
ATOM     11  N   UNL     1      49.010   6.681  20.867  0.00  0.00    +0.000 NA
ATOM     12  C   UNL     1      48.995   6.589  19.514  0.00  0.00    +0.000 A 
ATOM     13  N   UNL     1      49.187   7.730  18.746  0.00  0.00    +0.000 N 
ATOM     14  C   UNL     1      48.721   5.325  18.948  0.00  0.00    +0.000 A 
ATOM     15  H   UNL     1      48.078   2.247  19.537  0.00  0.00    +0.000 HD
ATOM     16  H   UNL     1      49.323   7.532  17.753  0.00  0.00    +0.000 HD
BRANCH  13  17
ATOM     17  C   UNL     1      50.056   8.776  19.277  0.00  0.00    +0.000 C 
BRANCH  17  18
ATOM     18  C   UNL     1      50.954   9.372  18.187  0.00  0.00    +0.000 C 
BRANCH  18  19
ATOM     19  O   UNL     1      50.506   9.005  16.881  0.00  0.00    +0.000 OA
ATOM     20  H   UNL     1      50.425   9.827  16.360  0.00  0.00    +0.000 HD
ENDBRANCH  18  19
ENDBRANCH  17  18
ENDBRANCH  13  17
ENDBRANCH   2   5
BRANCH   3  21
ATOM     21  C   UNL     1      47.805   6.184  14.248  0.00  0.00    +0.000 C 
BRANCH  21  22
ATOM     22  C   UNL     1      46.729   5.781  13.276  0.00  0.00    +0.000 A 
ATOM     23  C   UNL     1      45.807   4.779  13.605  0.00  0.00    +0.000 A 
ATOM     24  C   UNL     1      44.774   4.441  12.722  0.00  0.00    +0.000 A 
ATOM     25  C   UNL     1      44.640   5.094  11.487  0.00  0.00    +0.000 A 
ATOM     26  C   UNL     1      45.579   6.076  11.148  0.00  0.00    +0.000 A 
ATOM     27  C   UNL     1      46.615   6.414  12.030  0.00  0.00    +0.000 A 
BRANCH  25  28
ATOM     28  C   UNL     1      43.508   4.739  10.546  0.00  0.00    +0.000 C 
BRANCH  28  29
ATOM     29  N   UNL     1      44.025   4.241   9.273  0.00  0.00    +0.000 NA
ATOM     30  H   UNL     1      44.873   4.760   9.039  0.00  0.00    +0.000 HD
BRANCH  29  31
ATOM     31  C   UNL     1      44.376   2.815   9.345  0.00  0.00    +0.000 C 
BRANCH  31  32
ATOM     32  C   UNL     1      45.513   2.467   8.401  0.00  0.00    +0.000 A 
ATOM     33  C   UNL     1      46.070   3.451   7.582  0.00  0.00    +0.000 A 
ATOM     34  C   UNL     1      47.134   3.117   6.749  0.00  0.00    +0.000 A 
ATOM     35  C   UNL     1      47.611   1.813   6.747  0.00  0.00    +0.000 A 
ATOM     36  C   UNL     1      46.999   0.892   7.581  0.00  0.00    +0.000 A 
ATOM     37  N   UNL     1      45.968   1.186   8.407  0.00  0.00    +0.000 NA
ENDBRANCH  31  32
ENDBRANCH  29  31
ENDBRANCH  28  29
ENDBRANCH  25  28
ENDBRANCH  21  22
ENDBRANCH   3  21
TORSDOF 10
ENDMDL
MODEL 3
REMARK VINA RESULT:    -7.507      2.053      2.803
REMARK INTER + INTRA:         -13.070
REMARK INTER:                 -11.480
REMARK INTRA:                  -1.589
REMARK UNBOUND:                -1.393
REMARK  Name = 
REMARK  10 active torsions:
REMARK  status: ('A' for Active; 'I' for Inactive)
REMARK    1  A    between atoms: C_2  and  C_20
REMARK    2  A    between atoms: N_3  and  C_4
REMARK    3  A    between atoms: C_4  and  C_5
REMARK    4  A    between atoms: C_8  and  C_9
REMARK    5  A    between atoms: C_9  and  N_10
REMARK    6  A    between atoms: N_10  and  C_11
REMARK    7  A    between atoms: C_11  and  C_12
REMARK    8  A    between atoms: N_28  and  C_29
REMARK    9  A    between atoms: C_29  and  C_30
REMARK   10  A    between atoms: C_30  and  O_31
REMARK                            x       y       z     vdW  Elec       q    Type
REMARK                         _______ _______ _______ _____ _____    ______ ____
ROOT
ATOM      1  O   UNL     1      48.145   8.461  15.691  0.00  0.00    +0.000 OA
ATOM      2  C   UNL     1      48.913   7.801  14.991  0.00  0.00    +0.000 C 
ATOM      3  N   UNL     1      48.639   7.467  13.684  0.00  0.00    +0.000 N 
ATOM      4  H   UNL     1      49.199   6.761  13.228  0.00  0.00    +0.000 HD
ENDROOT
BRANCH   2   5
ATOM      5  C   UNL     1      50.170   7.289  15.516  0.00  0.00    +0.000 A 
ATOM      6  C   UNL     1      51.447   7.756  15.224  0.00  0.00    +0.000 A 
ATOM      7  N   UNL     1      52.347   7.042  15.972  0.00  0.00    +0.000 N 
ATOM      8  C   UNL     1      51.688   6.108  16.721  0.00  0.00    +0.000 A 
ATOM      9  N   UNL     1      52.294   5.235  17.539  0.00  0.00    +0.000 NA
ATOM     10  C   UNL     1      51.400   4.441  18.146  0.00  0.00    +0.000 A 
ATOM     11  N   UNL     1      50.060   4.456  18.024  0.00  0.00    +0.000 NA
ATOM     12  C   UNL     1      49.481   5.345  17.178  0.00  0.00    +0.000 A 
ATOM     13  N   UNL     1      48.105   5.315  16.987  0.00  0.00    +0.000 N 
ATOM     14  C   UNL     1      50.330   6.230  16.479  0.00  0.00    +0.000 A 
ATOM     15  H   UNL     1      53.349   7.167  15.992  0.00  0.00    +0.000 HD
ATOM     16  H   UNL     1      47.751   6.120  16.468  0.00  0.00    +0.000 HD
BRANCH  13  17
ATOM     17  C   UNL     1      47.266   4.904  18.109  0.00  0.00    +0.000 C 
BRANCH  17  18
ATOM     18  C   UNL     1      47.019   6.061  19.084  0.00  0.00    +0.000 C 
BRANCH  18  19
ATOM     19  O   UNL     1      47.102   7.325  18.426  0.00  0.00    +0.000 OA
ATOM     20  H   UNL     1      46.191   7.670  18.342  0.00  0.00    +0.000 HD
ENDBRANCH  18  19
ENDBRANCH  17  18
ENDBRANCH  13  17
ENDBRANCH   2   5
BRANCH   3  21
ATOM     21  C   UNL     1      47.375   7.840  13.093  0.00  0.00    +0.000 C 
BRANCH  21  22
ATOM     22  C   UNL     1      46.558   6.648  12.671  0.00  0.00    +0.000 A 
ATOM     23  C   UNL     1      46.007   6.578  11.384  0.00  0.00    +0.000 A 
ATOM     24  C   UNL     1      45.291   5.447  10.975  0.00  0.00    +0.000 A 
ATOM     25  C   UNL     1      45.106   4.359  11.842  0.00  0.00    +0.000 A 
ATOM     26  C   UNL     1      45.633   4.442  13.136  0.00  0.00    +0.000 A 
ATOM     27  C   UNL     1      46.348   5.576  13.549  0.00  0.00    +0.000 A 
BRANCH  25  28
ATOM     28  C   UNL     1      44.349   3.129  11.385  0.00  0.00    +0.000 C 
BRANCH  28  29
ATOM     29  N   UNL     1      44.037   3.208   9.960  0.00  0.00    +0.000 NA
ATOM     30  H   UNL     1      44.594   3.956   9.544  0.00  0.00    +0.000 HD
BRANCH  29  31
ATOM     31  C   UNL     1      44.365   1.959   9.258  0.00  0.00    +0.000 C 
BRANCH  31  32
ATOM     32  C   UNL     1      45.543   2.136   8.315  0.00  0.00    +0.000 A 
ATOM     33  C   UNL     1      45.770   3.369   7.701  0.00  0.00    +0.000 A 
ATOM     34  C   UNL     1      46.874   3.518   6.868  0.00  0.00    +0.000 A 
ATOM     35  C   UNL     1      47.719   2.435   6.661  0.00  0.00    +0.000 A 
ATOM     36  C   UNL     1      47.421   1.243   7.298  0.00  0.00    +0.000 A 
ATOM     37  N   UNL     1      46.360   1.068   8.120  0.00  0.00    +0.000 NA
ENDBRANCH  31  32
ENDBRANCH  29  31
ENDBRANCH  28  29
ENDBRANCH  25  28
ENDBRANCH  21  22
ENDBRANCH   3  21
TORSDOF 10
ENDMDL
MODEL 4
REMARK VINA RESULT:    -7.104      1.873      2.631
REMARK INTER + INTRA:         -12.443
REMARK INTER:                 -11.406
REMARK INTRA:                  -1.037
REMARK UNBOUND:                -1.393
REMARK  Name = 
REMARK  10 active torsions:
REMARK  status: ('A' for Active; 'I' for Inactive)
REMARK    1  A    between atoms: C_2  and  C_20
REMARK    2  A    between atoms: N_3  and  C_4
REMARK    3  A    between atoms: C_4  and  C_5
REMARK    4  A    between atoms: C_8  and  C_9
REMARK    5  A    between atoms: C_9  and  N_10
REMARK    6  A    between atoms: N_10  and  C_11
REMARK    7  A    between atoms: C_11  and  C_12
REMARK    8  A    between atoms: N_28  and  C_29
REMARK    9  A    between atoms: C_29  and  C_30
REMARK   10  A    between atoms: C_30  and  O_31
REMARK                            x       y       z     vdW  Elec       q    Type
REMARK                         _______ _______ _______ _____ _____    ______ ____
ROOT
ATOM      1  O   UNL     1      48.792   4.197  16.200  0.00  0.00    +0.000 OA
ATOM      2  C   UNL     1      48.242   5.264  16.471  0.00  0.00    +0.000 C 
ATOM      3  N   UNL     1      47.849   6.171  15.513  0.00  0.00    +0.000 N 
ATOM      4  H   UNL     1      47.594   7.107  15.796  0.00  0.00    +0.000 HD
ENDROOT
BRANCH   2   5
ATOM      5  C   UNL     1      47.995   5.664  17.848  0.00  0.00    +0.000 A 
ATOM      6  C   UNL     1      46.931   5.272  18.653  0.00  0.00    +0.000 A 
ATOM      7  N   UNL     1      47.106   5.823  19.895  0.00  0.00    +0.000 N 
ATOM      8  C   UNL     1      48.242   6.581  19.909  0.00  0.00    +0.000 A 
ATOM      9  N   UNL     1      48.673   7.272  20.975  0.00  0.00    +0.000 NA
ATOM     10  C   UNL     1      49.814   7.922  20.701  0.00  0.00    +0.000 A 
ATOM     11  N   UNL     1      50.509   7.927  19.548  0.00  0.00    +0.000 NA
ATOM     12  C   UNL     1      50.037   7.226  18.487  0.00  0.00    +0.000 A 
ATOM     13  N   UNL     1      50.708   7.287  17.272  0.00  0.00    +0.000 N 
ATOM     14  C   UNL     1      48.836   6.505  18.660  0.00  0.00    +0.000 A 
ATOM     15  H   UNL     1      46.506   5.701  20.699  0.00  0.00    +0.000 HD
ATOM     16  H   UNL     1      50.374   6.603  16.590  0.00  0.00    +0.000 HD
BRANCH  13  17
ATOM     17  C   UNL     1      52.157   7.458  17.296  0.00  0.00    +0.000 C 
BRANCH  17  18
ATOM     18  C   UNL     1      52.854   6.518  16.305  0.00  0.00    +0.000 C 
BRANCH  18  19
ATOM     19  O   UNL     1      53.395   5.372  16.963  0.00  0.00    +0.000 OA
ATOM     20  H   UNL     1      52.941   4.587  16.600  0.00  0.00    +0.000 HD
ENDBRANCH  18  19
ENDBRANCH  17  18
ENDBRANCH  13  17
ENDBRANCH   2   5
BRANCH   3  21
ATOM     21  C   UNL     1      48.133   5.920  14.120  0.00  0.00    +0.000 C 
BRANCH  21  22
ATOM     22  C   UNL     1      46.886   5.757  13.293  0.00  0.00    +0.000 A 
ATOM     23  C   UNL     1      46.697   6.512  12.128  0.00  0.00    +0.000 A 
ATOM     24  C   UNL     1      45.561   6.322  11.332  0.00  0.00    +0.000 A 
ATOM     25  C   UNL     1      44.586   5.376  11.681  0.00  0.00    +0.000 A 
ATOM     26  C   UNL     1      44.763   4.641  12.860  0.00  0.00    +0.000 A 
ATOM     27  C   UNL     1      45.899   4.832  13.660  0.00  0.00    +0.000 A 
BRANCH  25  28
ATOM     28  C   UNL     1      43.370   5.160  10.803  0.00  0.00    +0.000 C 
BRANCH  28  29
ATOM     29  N   UNL     1      43.758   4.642   9.493  0.00  0.00    +0.000 NA
ATOM     30  H   UNL     1      44.534   5.203   9.136  0.00  0.00    +0.000 HD
BRANCH  29  31
ATOM     31  C   UNL     1      44.210   3.246   9.568  0.00  0.00    +0.000 C 
BRANCH  31  32
ATOM     32  C   UNL     1      45.321   2.959   8.572  0.00  0.00    +0.000 A 
ATOM     33  C   UNL     1      45.878   1.682   8.493  0.00  0.00    +0.000 A 
ATOM     34  C   UNL     1      46.871   1.433   7.550  0.00  0.00    +0.000 A 
ATOM     35  C   UNL     1      47.289   2.462   6.717  0.00  0.00    +0.000 A 
ATOM     36  C   UNL     1      46.693   3.704   6.864  0.00  0.00    +0.000 A 
ATOM     37  N   UNL     1      45.721   3.976   7.765  0.00  0.00    +0.000 NA
ENDBRANCH  31  32
ENDBRANCH  29  31
ENDBRANCH  28  29
ENDBRANCH  25  28
ENDBRANCH  21  22
ENDBRANCH   3  21
TORSDOF 10
ENDMDL
MODEL 5
REMARK VINA RESULT:    -6.972      1.541      3.381
REMARK INTER + INTRA:         -12.238
REMARK INTER:                 -11.209
REMARK INTRA:                  -1.029
REMARK UNBOUND:                -1.393
REMARK  Name = 
REMARK  10 active torsions:
REMARK  status: ('A' for Active; 'I' for Inactive)
REMARK    1  A    between atoms: C_2  and  C_20
REMARK    2  A    between atoms: N_3  and  C_4
REMARK    3  A    between atoms: C_4  and  C_5
REMARK    4  A    between atoms: C_8  and  C_9
REMARK    5  A    between atoms: C_9  and  N_10
REMARK    6  A    between atoms: N_10  and  C_11
REMARK    7  A    between atoms: C_11  and  C_12
REMARK    8  A    between atoms: N_28  and  C_29
REMARK    9  A    between atoms: C_29  and  C_30
REMARK   10  A    between atoms: C_30  and  O_31
REMARK                            x       y       z     vdW  Elec       q    Type
REMARK                         _______ _______ _______ _____ _____    ______ ____
ROOT
ATOM      1  O   UNL     1      49.433   4.024  17.031  0.00  0.00    +0.000 OA
ATOM      2  C   UNL     1      48.433   4.723  17.193  0.00  0.00    +0.000 C 
ATOM      3  N   UNL     1      47.332   4.660  16.369  0.00  0.00    +0.000 N 
ATOM      4  H   UNL     1      46.635   5.389  16.423  0.00  0.00    +0.000 HD
ENDROOT
BRANCH   2   5
ATOM      5  C   UNL     1      48.357   5.705  18.263  0.00  0.00    +0.000 A 
ATOM      6  C   UNL     1      48.290   5.448  19.629  0.00  0.00    +0.000 A 
ATOM      7  N   UNL     1      48.294   6.647  20.292  0.00  0.00    +0.000 N 
ATOM      8  C   UNL     1      48.337   7.674  19.392  0.00  0.00    +0.000 A 
ATOM      9  N   UNL     1      48.325   8.972  19.730  0.00  0.00    +0.000 NA
ATOM     10  C   UNL     1      48.377   9.755  18.643  0.00  0.00    +0.000 A 
ATOM     11  N   UNL     1      48.447   9.378  17.352  0.00  0.00    +0.000 NA
ATOM     12  C   UNL     1      48.445   8.057  17.046  0.00  0.00    +0.000 A 
ATOM     13  N   UNL     1      48.440   7.660  15.715  0.00  0.00    +0.000 N 
ATOM     14  C   UNL     1      48.388   7.138  18.116  0.00  0.00    +0.000 A 
ATOM     15  H   UNL     1      48.275   6.782  21.293  0.00  0.00    +0.000 HD
ATOM     16  H   UNL     1      48.605   6.660  15.589  0.00  0.00    +0.000 HD
BRANCH  13  17
ATOM     17  C   UNL     1      49.120   8.511  14.743  0.00  0.00    +0.000 C 
BRANCH  17  18
ATOM     18  C   UNL     1      48.136   9.424  14.004  0.00  0.00    +0.000 C 
BRANCH  18  19
ATOM     19  O   UNL     1      46.797   8.937  14.102  0.00  0.00    +0.000 OA
ATOM     20  H   UNL     1      46.226   9.557  13.608  0.00  0.00    +0.000 HD
ENDBRANCH  18  19
ENDBRANCH  17  18
ENDBRANCH  13  17
ENDBRANCH   2   5
BRANCH   3  21
ATOM     21  C   UNL     1      47.339   3.789  15.217  0.00  0.00    +0.000 C 
BRANCH  21  22
ATOM     22  C   UNL     1      46.701   4.421  14.009  0.00  0.00    +0.000 A 
ATOM     23  C   UNL     1      47.348   5.452  13.315  0.00  0.00    +0.000 A 
ATOM     24  C   UNL     1      46.778   6.003  12.161  0.00  0.00    +0.000 A 
ATOM     25  C   UNL     1      45.547   5.539  11.674  0.00  0.00    +0.000 A 
ATOM     26  C   UNL     1      44.888   4.528  12.384  0.00  0.00    +0.000 A 
ATOM     27  C   UNL     1      45.456   3.977  13.542  0.00  0.00    +0.000 A 
BRANCH  25  28
ATOM     28  C   UNL     1      44.946   6.125  10.413  0.00  0.00    +0.000 C 
BRANCH  28  29
ATOM     29  N   UNL     1      45.530   5.510   9.223  0.00  0.00    +0.000 NA
ATOM     30  H   UNL     1      46.489   5.230   9.436  0.00  0.00    +0.000 HD
BRANCH  29  31
ATOM     31  C   UNL     1      44.791   4.308   8.810  0.00  0.00    +0.000 C 
BRANCH  31  32
ATOM     32  C   UNL     1      45.706   3.276   8.173  0.00  0.00    +0.000 A 
ATOM     33  C   UNL     1      46.651   3.669   7.224  0.00  0.00    +0.000 A 
ATOM     34  C   UNL     1      47.502   2.712   6.679  0.00  0.00    +0.000 A 
ATOM     35  C   UNL     1      47.386   1.389   7.085  0.00  0.00    +0.000 A 
ATOM     36  C   UNL     1      46.416   1.078   8.024  0.00  0.00    +0.000 A 
ATOM     37  N   UNL     1      45.580   1.985   8.578  0.00  0.00    +0.000 NA
ENDBRANCH  31  32
ENDBRANCH  29  31
ENDBRANCH  28  29
ENDBRANCH  25  28
ENDBRANCH  21  22
ENDBRANCH   3  21
TORSDOF 10
ENDMDL
MODEL 6
REMARK VINA RESULT:    -6.951      3.569      5.763
REMARK INTER + INTRA:         -12.205
REMARK INTER:                 -11.003
REMARK INTRA:                  -1.202
REMARK UNBOUND:                -1.393
REMARK  Name = 
REMARK  10 active torsions:
REMARK  status: ('A' for Active; 'I' for Inactive)
REMARK    1  A    between atoms: C_2  and  C_20
REMARK    2  A    between atoms: N_3  and  C_4
REMARK    3  A    between atoms: C_4  and  C_5
REMARK    4  A    between atoms: C_8  and  C_9
REMARK    5  A    between atoms: C_9  and  N_10
REMARK    6  A    between atoms: N_10  and  C_11
REMARK    7  A    between atoms: C_11  and  C_12
REMARK    8  A    between atoms: N_28  and  C_29
REMARK    9  A    between atoms: C_29  and  C_30
REMARK   10  A    between atoms: C_30  and  O_31
REMARK                            x       y       z     vdW  Elec       q    Type
REMARK                         _______ _______ _______ _____ _____    ______ ____
ROOT
ATOM      1  O   UNL     1      49.350   6.693  12.126  0.00  0.00    +0.000 OA
ATOM      2  C   UNL     1      48.690   7.606  12.621  0.00  0.00    +0.000 C 
ATOM      3  N   UNL     1      47.870   7.433  13.714  0.00  0.00    +0.000 N 
ATOM      4  H   UNL     1      47.203   8.156  13.947  0.00  0.00    +0.000 HD
ENDROOT
BRANCH   2   5
ATOM      5  C   UNL     1      48.704   8.946  12.056  0.00  0.00    +0.000 A 
ATOM      6  C   UNL     1      47.665   9.872  12.077  0.00  0.00    +0.000 A 
ATOM      7  N   UNL     1      48.109  11.029  11.491  0.00  0.00    +0.000 N 
ATOM      8  C   UNL     1      49.398  10.869  11.069  0.00  0.00    +0.000 A 
ATOM      9  N   UNL     1      50.105  11.815  10.434  0.00  0.00    +0.000 NA
ATOM     10  C   UNL     1      51.340  11.382  10.141  0.00  0.00    +0.000 A 
ATOM     11  N   UNL     1      51.886  10.184  10.420  0.00  0.00    +0.000 NA
ATOM     12  C   UNL     1      51.138   9.246  11.054  0.00  0.00    +0.000 A 
ATOM     13  N   UNL     1      51.668   7.982  11.278  0.00  0.00    +0.000 N 
ATOM     14  C   UNL     1      49.816   9.593  11.407  0.00  0.00    +0.000 A 
ATOM     15  H   UNL     1      47.587  11.887  11.380  0.00  0.00    +0.000 HD
ATOM     16  H   UNL     1      51.098   7.408  11.902  0.00  0.00    +0.000 HD
BRANCH  13  17
ATOM     17  C   UNL     1      53.106   7.871  11.504  0.00  0.00    +0.000 C 
BRANCH  17  18
ATOM     18  C   UNL     1      53.780   7.001  10.436  0.00  0.00    +0.000 C 
BRANCH  18  19
ATOM     19  O   UNL     1      53.360   5.639  10.530  0.00  0.00    +0.000 OA
ATOM     20  H   UNL     1      53.472   5.239   9.646  0.00  0.00    +0.000 HD
ENDBRANCH  18  19
ENDBRANCH  17  18
ENDBRANCH  13  17
ENDBRANCH   2   5
BRANCH   3  21
ATOM     21  C   UNL     1      47.705   6.122  14.294  0.00  0.00    +0.000 C 
BRANCH  21  22
ATOM     22  C   UNL     1      46.636   5.313  13.607  0.00  0.00    +0.000 A 
ATOM     23  C   UNL     1      46.795   3.934  13.418  0.00  0.00    +0.000 A 
ATOM     24  C   UNL     1      45.778   3.174  12.826  0.00  0.00    +0.000 A 
ATOM     25  C   UNL     1      44.581   3.774  12.407  0.00  0.00    +0.000 A 
ATOM     26  C   UNL     1      44.436   5.157  12.572  0.00  0.00    +0.000 A 
ATOM     27  C   UNL     1      45.454   5.920  13.161  0.00  0.00    +0.000 A 
BRANCH  25  28
ATOM     28  C   UNL     1      43.477   2.942  11.788  0.00  0.00    +0.000 C 
BRANCH  28  29
ATOM     29  N   UNL     1      43.894   2.401  10.496  0.00  0.00    +0.000 NA
ATOM     30  H   UNL     1      43.130   1.840  10.114  0.00  0.00    +0.000 HD
BRANCH  29  31
ATOM     31  C   UNL     1      44.197   3.466   9.529  0.00  0.00    +0.000 C 
BRANCH  31  32
ATOM     32  C   UNL     1      45.294   3.053   8.563  0.00  0.00    +0.000 A 
ATOM     33  C   UNL     1      45.788   1.747   8.580  0.00  0.00    +0.000 A 
ATOM     34  C   UNL     1      46.769   1.382   7.664  0.00  0.00    +0.000 A 
ATOM     35  C   UNL     1      47.239   2.325   6.759  0.00  0.00    +0.000 A 
ATOM     36  C   UNL     1      46.705   3.602   6.812  0.00  0.00    +0.000 A 
ATOM     37  N   UNL     1      45.746   3.986   7.685  0.00  0.00    +0.000 NA
ENDBRANCH  31  32
ENDBRANCH  29  31
ENDBRANCH  28  29
ENDBRANCH  25  28
ENDBRANCH  21  22
ENDBRANCH   3  21
TORSDOF 10
ENDMDL
MODEL 7
REMARK VINA RESULT:    -6.933      2.567      4.067
REMARK INTER + INTRA:         -12.177
REMARK INTER:                 -11.191
REMARK INTRA:                  -0.986
REMARK UNBOUND:                -1.393
REMARK  Name = 
REMARK  10 active torsions:
REMARK  status: ('A' for Active; 'I' for Inactive)
REMARK    1  A    between atoms: C_2  and  C_20
REMARK    2  A    between atoms: N_3  and  C_4
REMARK    3  A    between atoms: C_4  and  C_5
REMARK    4  A    between atoms: C_8  and  C_9
REMARK    5  A    between atoms: C_9  and  N_10
REMARK    6  A    between atoms: N_10  and  C_11
REMARK    7  A    between atoms: C_11  and  C_12
REMARK    8  A    between atoms: N_28  and  C_29
REMARK    9  A    between atoms: C_29  and  C_30
REMARK   10  A    between atoms: C_30  and  O_31
REMARK                            x       y       z     vdW  Elec       q    Type
REMARK                         _______ _______ _______ _____ _____    ______ ____
ROOT
ATOM      1  O   UNL     1      49.047   7.125  12.623  0.00  0.00    +0.000 OA
ATOM      2  C   UNL     1      48.608   7.241  13.767  0.00  0.00    +0.000 C 
ATOM      3  N   UNL     1      47.286   7.514  14.040  0.00  0.00    +0.000 N 
ATOM      4  H   UNL     1      47.026   7.799  14.974  0.00  0.00    +0.000 HD
ENDROOT
BRANCH   2   5
ATOM      5  C   UNL     1      49.476   7.130  14.929  0.00  0.00    +0.000 A 
ATOM      6  C   UNL     1      49.186   6.488  16.129  0.00  0.00    +0.000 A 
ATOM      7  N   UNL     1      50.293   6.563  16.934  0.00  0.00    +0.000 N 
ATOM      8  C   UNL     1      51.282   7.257  16.298  0.00  0.00    +0.000 A 
ATOM      9  N   UNL     1      52.481   7.522  16.837  0.00  0.00    +0.000 NA
ATOM     10  C   UNL     1      53.251   8.218  15.986  0.00  0.00    +0.000 A 
ATOM     11  N   UNL     1      52.949   8.623  14.738  0.00  0.00    +0.000 NA
ATOM     12  C   UNL     1      51.723   8.348  14.230  0.00  0.00    +0.000 A 
ATOM     13  N   UNL     1      51.376   8.829  12.973  0.00  0.00    +0.000 N 
ATOM     14  C   UNL     1      50.825   7.622  15.043  0.00  0.00    +0.000 A 
ATOM     15  H   UNL     1      50.393   6.169  17.859  0.00  0.00    +0.000 HD
ATOM     16  H   UNL     1      50.506   8.433  12.613  0.00  0.00    +0.000 HD
BRANCH  13  17
ATOM     17  C   UNL     1      52.434   8.967  11.977  0.00  0.00    +0.000 C 
BRANCH  17  18
ATOM     18  C   UNL     1      52.139   8.140  10.720  0.00  0.00    +0.000 C 
BRANCH  18  19
ATOM     19  O   UNL     1      51.350   6.989  11.026  0.00  0.00    +0.000 OA
ATOM     20  H   UNL     1      51.649   6.268  10.438  0.00  0.00    +0.000 HD
ENDBRANCH  18  19
ENDBRANCH  17  18
ENDBRANCH  13  17
ENDBRANCH   2   5
BRANCH   3  21
ATOM     21  C   UNL     1      46.357   7.741  12.959  0.00  0.00    +0.000 C 
BRANCH  21  22
ATOM     22  C   UNL     1      45.629   6.489  12.547  0.00  0.00    +0.000 A 
ATOM     23  C   UNL     1      46.092   5.229  12.949  0.00  0.00    +0.000 A 
ATOM     24  C   UNL     1      45.386   4.069  12.609  0.00  0.00    +0.000 A 
ATOM     25  C   UNL     1      44.204   4.139  11.857  0.00  0.00    +0.000 A 
ATOM     26  C   UNL     1      43.759   5.397  11.432  0.00  0.00    +0.000 A 
ATOM     27  C   UNL     1      44.465   6.559  11.769  0.00  0.00    +0.000 A 
BRANCH  25  28
ATOM     28  C   UNL     1      43.433   2.881  11.511  0.00  0.00    +0.000 C 
BRANCH  28  29
ATOM     29  N   UNL     1      44.015   2.217  10.347  0.00  0.00    +0.000 NA
ATOM     30  H   UNL     1      43.332   1.557   9.971  0.00  0.00    +0.000 HD
BRANCH  29  31
ATOM     31  C   UNL     1      44.351   3.173   9.282  0.00  0.00    +0.000 C 
BRANCH  31  32
ATOM     32  C   UNL     1      45.450   2.645   8.377  0.00  0.00    +0.000 A 
ATOM     33  C   UNL     1      45.983   3.456   7.374  0.00  0.00    +0.000 A 
ATOM     34  C   UNL     1      47.013   2.963   6.579  0.00  0.00    +0.000 A 
ATOM     35  C   UNL     1      47.481   1.674   6.797  0.00  0.00    +0.000 A 
ATOM     36  C   UNL     1      46.894   0.928   7.805  0.00  0.00    +0.000 A 
ATOM     37  N   UNL     1      45.897   1.381   8.600  0.00  0.00    +0.000 NA
ENDBRANCH  31  32
ENDBRANCH  29  31
ENDBRANCH  28  29
ENDBRANCH  25  28
ENDBRANCH  21  22
ENDBRANCH   3  21
TORSDOF 10
ENDMDL
MODEL 8
REMARK VINA RESULT:    -6.601      3.860      6.422
REMARK INTER + INTRA:         -11.661
REMARK INTER:                 -10.069
REMARK INTRA:                  -1.592
REMARK UNBOUND:                -1.393
REMARK  Name = 
REMARK  10 active torsions:
REMARK  status: ('A' for Active; 'I' for Inactive)
REMARK    1  A    between atoms: C_2  and  C_20
REMARK    2  A    between atoms: N_3  and  C_4
REMARK    3  A    between atoms: C_4  and  C_5
REMARK    4  A    between atoms: C_8  and  C_9
REMARK    5  A    between atoms: C_9  and  N_10
REMARK    6  A    between atoms: N_10  and  C_11
REMARK    7  A    between atoms: C_11  and  C_12
REMARK    8  A    between atoms: N_28  and  C_29
REMARK    9  A    between atoms: C_29  and  C_30
REMARK   10  A    between atoms: C_30  and  O_31
REMARK                            x       y       z     vdW  Elec       q    Type
REMARK                         _______ _______ _______ _____ _____    ______ ____
ROOT
ATOM      1  O   UNL     1      47.753   8.714  11.956  0.00  0.00    +0.000 OA
ATOM      2  C   UNL     1      48.694   7.969  12.225  0.00  0.00    +0.000 C 
ATOM      3  N   UNL     1      48.622   6.987  13.188  0.00  0.00    +0.000 N 
ATOM      4  H   UNL     1      49.474   6.548  13.508  0.00  0.00    +0.000 HD
ENDROOT
BRANCH   2   5
ATOM      5  C   UNL     1      49.980   8.097  11.559  0.00  0.00    +0.000 A 
ATOM      6  C   UNL     1      50.745   7.069  11.016  0.00  0.00    +0.000 A 
ATOM      7  N   UNL     1      51.854   7.623  10.430  0.00  0.00    +0.000 N 
ATOM      8  C   UNL     1      51.840   8.978  10.601  0.00  0.00    +0.000 A 
ATOM      9  N   UNL     1      52.803   9.802  10.162  0.00  0.00    +0.000 NA
ATOM     10  C   UNL     1      52.525  11.078  10.468  0.00  0.00    +0.000 A 
ATOM     11  N   UNL     1      51.445  11.559  11.112  0.00  0.00    +0.000 NA
ATOM     12  C   UNL     1      50.496  10.696  11.552  0.00  0.00    +0.000 A 
ATOM     13  N   UNL     1      49.417  11.176  12.284  0.00  0.00    +0.000 N 
ATOM     14  C   UNL     1      50.688   9.322  11.289  0.00  0.00    +0.000 A 
ATOM     15  H   UNL     1      52.584   7.129   9.935  0.00  0.00    +0.000 HD
ATOM     16  H   UNL     1      48.681  10.482  12.424  0.00  0.00    +0.000 HD
BRANCH  13  17
ATOM     17  C   UNL     1      48.930  12.519  11.986  0.00  0.00    +0.000 C 
BRANCH  17  18
ATOM     18  C   UNL     1      47.410  12.539  11.789  0.00  0.00    +0.000 C 
BRANCH  18  19
ATOM     19  O   UNL     1      46.784  11.434  12.442  0.00  0.00    +0.000 OA
ATOM     20  H   UNL     1      45.911  11.305  12.024  0.00  0.00    +0.000 HD
ENDBRANCH  18  19
ENDBRANCH  17  18
ENDBRANCH  13  17
ENDBRANCH   2   5
BRANCH   3  21
ATOM     21  C   UNL     1      47.423   6.836  13.979  0.00  0.00    +0.000 C 
BRANCH  21  22
ATOM     22  C   UNL     1      46.455   5.850  13.383  0.00  0.00    +0.000 A 
ATOM     23  C   UNL     1      45.260   6.287  12.797  0.00  0.00    +0.000 A 
ATOM     24  C   UNL     1      44.384   5.374  12.197  0.00  0.00    +0.000 A 
ATOM     25  C   UNL     1      44.679   4.003  12.171  0.00  0.00    +0.000 A 
ATOM     26  C   UNL     1      45.860   3.565  12.782  0.00  0.00    +0.000 A 
ATOM     27  C   UNL     1      46.737   4.477  13.386  0.00  0.00    +0.000 A 
BRANCH  25  28
ATOM     28  C   UNL     1      43.738   3.023  11.501  0.00  0.00    +0.000 C 
BRANCH  28  29
ATOM     29  N   UNL     1      44.426   2.271  10.454  0.00  0.00    +0.000 NA
ATOM     30  H   UNL     1      43.904   1.412  10.271  0.00  0.00    +0.000 HD
BRANCH  29  31
ATOM     31  C   UNL     1      44.501   3.028   9.196  0.00  0.00    +0.000 C 
BRANCH  31  32
ATOM     32  C   UNL     1      45.650   2.554   8.322  0.00  0.00    +0.000 A 
ATOM     33  C   UNL     1      46.361   3.468   7.543  0.00  0.00    +0.000 A 
ATOM     34  C   UNL     1      47.431   3.017   6.777  0.00  0.00    +0.000 A 
ATOM     35  C   UNL     1      47.760   1.668   6.798  0.00  0.00    +0.000 A 
ATOM     36  C   UNL     1      47.000   0.823   7.588  0.00  0.00    +0.000 A 
ATOM     37  N   UNL     1      45.959   1.231   8.351  0.00  0.00    +0.000 NA
ENDBRANCH  31  32
ENDBRANCH  29  31
ENDBRANCH  28  29
ENDBRANCH  25  28
ENDBRANCH  21  22
ENDBRANCH   3  21
TORSDOF 10
ENDMDL
MODEL 9
REMARK VINA RESULT:    -6.465      2.534      3.513
REMARK INTER + INTRA:         -11.448
REMARK INTER:                  -9.821
REMARK INTRA:                  -1.627
REMARK UNBOUND:                -1.393
REMARK  Name = 
REMARK  10 active torsions:
REMARK  status: ('A' for Active; 'I' for Inactive)
REMARK    1  A    between atoms: C_2  and  C_20
REMARK    2  A    between atoms: N_3  and  C_4
REMARK    3  A    between atoms: C_4  and  C_5
REMARK    4  A    between atoms: C_8  and  C_9
REMARK    5  A    between atoms: C_9  and  N_10
REMARK    6  A    between atoms: N_10  and  C_11
REMARK    7  A    between atoms: C_11  and  C_12
REMARK    8  A    between atoms: N_28  and  C_29
REMARK    9  A    between atoms: C_29  and  C_30
REMARK   10  A    between atoms: C_30  and  O_31
REMARK                            x       y       z     vdW  Elec       q    Type
REMARK                         _______ _______ _______ _____ _____    ______ ____
ROOT
ATOM      1  O   UNL     1      48.465   9.484  14.830  0.00  0.00    +0.000 OA
ATOM      2  C   UNL     1      49.162   8.587  14.357  0.00  0.00    +0.000 C 
ATOM      3  N   UNL     1      48.825   7.899  13.212  0.00  0.00    +0.000 N 
ATOM      4  H   UNL     1      49.319   7.047  12.987  0.00  0.00    +0.000 HD
ENDROOT
BRANCH   2   5
ATOM      5  C   UNL     1      50.393   8.159  15.003  0.00  0.00    +0.000 A 
ATOM      6  C   UNL     1      51.653   8.068  14.421  0.00  0.00    +0.000 A 
ATOM      7  N   UNL     1      52.546   7.685  15.387  0.00  0.00    +0.000 N 
ATOM      8  C   UNL     1      51.894   7.502  16.574  0.00  0.00    +0.000 A 
ATOM      9  N   UNL     1      52.490   7.101  17.706  0.00  0.00    +0.000 NA
ATOM     10  C   UNL     1      51.607   7.009  18.712  0.00  0.00    +0.000 A 
ATOM     11  N   UNL     1      50.288   7.277  18.683  0.00  0.00    +0.000 NA
ATOM     12  C   UNL     1      49.716   7.669  17.518  0.00  0.00    +0.000 A 
ATOM     13  N   UNL     1      48.343   7.873  17.461  0.00  0.00    +0.000 N 
ATOM     14  C   UNL     1      50.553   7.795  16.388  0.00  0.00    +0.000 A 
ATOM     15  H   UNL     1      53.541   7.556  15.271  0.00  0.00    +0.000 HD
ATOM     16  H   UNL     1      48.035   8.322  16.597  0.00  0.00    +0.000 HD
BRANCH  13  17
ATOM     17  C   UNL     1      47.671   8.355  18.664  0.00  0.00    +0.000 C 
BRANCH  17  18
ATOM     18  C   UNL     1      47.593   9.886  18.692  0.00  0.00    +0.000 C 
BRANCH  18  19
ATOM     19  O   UNL     1      47.615  10.435  17.374  0.00  0.00    +0.000 OA
ATOM     20  H   UNL     1      46.877  11.072  17.313  0.00  0.00    +0.000 HD
ENDBRANCH  18  19
ENDBRANCH  17  18
ENDBRANCH  13  17
ENDBRANCH   2   5
BRANCH   3  21
ATOM     21  C   UNL     1      47.575   8.175  12.545  0.00  0.00    +0.000 C 
BRANCH  21  22
ATOM     22  C   UNL     1      46.644   6.991  12.544  0.00  0.00    +0.000 A 
ATOM     23  C   UNL     1      45.287   7.150  12.234  0.00  0.00    +0.000 A 
ATOM     24  C   UNL     1      44.433   6.042  12.182  0.00  0.00    +0.000 A 
ATOM     25  C   UNL     1      44.913   4.750  12.442  0.00  0.00    +0.000 A 
ATOM     26  C   UNL     1      46.263   4.596  12.779  0.00  0.00    +0.000 A 
ATOM     27  C   UNL     1      47.119   5.705  12.834  0.00  0.00    +0.000 A 
BRANCH  25  28
ATOM     28  C   UNL     1      43.987   3.553  12.363  0.00  0.00    +0.000 C 
BRANCH  28  29
ATOM     29  N   UNL     1      44.354   2.683  11.248  0.00  0.00    +0.000 NA
ATOM     30  H   UNL     1      43.796   1.829  11.302  0.00  0.00    +0.000 HD
BRANCH  29  31
ATOM     31  C   UNL     1      44.085   3.315   9.949  0.00  0.00    +0.000 C 
BRANCH  31  32
ATOM     32  C   UNL     1      45.149   2.968   8.922  0.00  0.00    +0.000 A 
ATOM     33  C   UNL     1      45.718   3.971   8.135  0.00  0.00    +0.000 A 
ATOM     34  C   UNL     1      46.715   3.634   7.226  0.00  0.00    +0.000 A 
ATOM     35  C   UNL     1      47.116   2.309   7.116  0.00  0.00    +0.000 A 
ATOM     36  C   UNL     1      46.496   1.371   7.924  0.00  0.00    +0.000 A 
ATOM     37  N   UNL     1      45.530   1.667   8.824  0.00  0.00    +0.000 NA
ENDBRANCH  31  32
ENDBRANCH  29  31
ENDBRANCH  28  29
ENDBRANCH  25  28
ENDBRANCH  21  22
ENDBRANCH   3  21
TORSDOF 10
ENDMDL
