MODEL 1
REMARK VINA RESULT:    -8.147      0.000      0.000
REMARK INTER + INTRA:         -12.212
REMARK INTER:                 -10.767
REMARK INTRA:                  -1.445
REMARK UNBOUND:                -1.445
REMARK  Name = 
REMARK  7 active torsions:
REMARK  status: ('A' for Active; 'I' for Inactive)
REMARK    1  A    between atoms: C_1  and  N_2
REMARK    2  A    between atoms: N_2  and  C_3
REMARK    3  A    between atoms: C_3  and  C_4
REMARK    4  A    between atoms: C_7  and  C_8
REMARK    5  A    between atoms: C_8  and  O_9
REMARK    6  A    between atoms: C_8  and  C_10
REMARK    7  A    between atoms: C_18  and  C_20
REMARK                            x       y       z     vdW  Elec       q    Type
REMARK                         _______ _______ _______ _____ _____    ______ ____
ROOT
ATOM      1  C   UNL     1      47.128   6.256  12.299  0.00  0.00    +0.000 C 
ENDROOT
BRANCH   1   2
ATOM      2  C   UNL     1      47.454   5.848  13.712  0.00  0.00    +0.000 A 
ATOM      3  C   UNL     1      48.339   6.608  14.488  0.00  0.00    +0.000 A 
ATOM      4  C   UNL     1      48.672   6.204  15.785  0.00  0.00    +0.000 A 
ATOM      5  C   UNL     1      48.128   5.028  16.324  0.00  0.00    +0.000 A 
ATOM      6  C   UNL     1      47.235   4.277  15.542  0.00  0.00    +0.000 A 
ATOM      7  C   UNL     1      46.900   4.683  14.251  0.00  0.00    +0.000 A 
BRANCH   5   8
ATOM      8  C   UNL     1      48.519   4.575  17.719  0.00  0.00    +0.000 C 
BRANCH   8   9
ATOM      9  C   UNL     1      49.803   3.757  17.752  0.00  0.00    +0.000 A 
ATOM     10  C   UNL     1      51.005   4.354  18.173  0.00  0.00    +0.000 A 
ATOM     11  C   UNL     1      52.199   3.630  18.181  0.00  0.00    +0.000 A 
ATOM     12  C   UNL     1      52.208   2.296  17.780  0.00  0.00    +0.000 A 
ATOM     13  C   UNL     1      51.028   1.686  17.375  0.00  0.00    +0.000 A 
ATOM     14  C   UNL     1      49.833   2.410  17.360  0.00  0.00    +0.000 A 
ENDBRANCH   8   9
BRANCH   8  15
ATOM     15  O   UNL     1      47.441   3.841  18.310  0.00  0.00    +0.000 OA
ATOM     16  H   UNL     1      47.389   2.984  17.859  0.00  0.00    +0.000 HD
ENDBRANCH   8  15
ENDBRANCH   5   8
ENDBRANCH   1   2
BRANCH   1  18
ATOM     17  C   UNL     1      46.137   8.592  12.187  0.00  0.00    +0.000 C 
ATOM     18  N   UNL     1      45.976   7.143  12.103  0.00  0.00    +0.000 N 
ATOM     19  C   UNL     1      44.715   6.702  11.659  0.00  0.00    +0.000 C 
ATOM     20  O   UNL     1      43.822   7.504  11.394  0.00  0.00    +0.000 OA
BRANCH  19  21
ATOM     21  C   UNL     1      44.446   5.263  11.543  0.00  0.00    +0.000 A 
ATOM     22  C   UNL     1      43.704   4.526  12.452  0.00  0.00    +0.000 A 
ATOM     23  S   UNL     1      43.502   2.891  12.008  0.00  0.00    +0.000 S 
ATOM     24  C   UNL     1      44.274   3.149  10.514  0.00  0.00    +0.000 A 
ATOM     25  N   UNL     1      44.348   2.159   9.585  0.00  0.00    +0.000 NA
ATOM     26  C   UNL     1      44.895   2.520   8.473  0.00  0.00    +0.000 A 
ATOM     27  N   UNL     1      45.407   3.767   8.220  0.00  0.00    +0.000 N 
ATOM     28  C   UNL     1      45.481   4.757   9.178  0.00  0.00    +0.000 A 
ATOM     29  O   UNL     1      46.158   5.760   8.997  0.00  0.00    +0.000 OA
ATOM     30  C   UNL     1      44.765   4.437  10.402  0.00  0.00    +0.000 A 
ATOM     31  H   UNL     1      45.884   3.962   7.352  0.00  0.00    +0.000 HD
ENDBRANCH  19  21
ENDBRANCH   1  18
TORSDOF 6
ENDMDL
MODEL 2
REMARK VINA RESULT:    -7.791      3.718      8.218
REMARK INTER + INTRA:         -11.741
REMARK INTER:                 -10.381
REMARK INTRA:                  -1.361
REMARK UNBOUND:                -1.445
REMARK  Name = 
REMARK  7 active torsions:
REMARK  status: ('A' for Active; 'I' for Inactive)
REMARK    1  A    between atoms: C_1  and  N_2
REMARK    2  A    between atoms: N_2  and  C_3
REMARK    3  A    between atoms: C_3  and  C_4
REMARK    4  A    between atoms: C_7  and  C_8
REMARK    5  A    between atoms: C_8  and  O_9
REMARK    6  A    between atoms: C_8  and  C_10
REMARK    7  A    between atoms: C_18  and  C_20
REMARK                            x       y       z     vdW  Elec       q    Type
REMARK                         _______ _______ _______ _____ _____    ______ ____
ROOT
ATOM      1  C   UNL     1      47.604   7.856  13.963  0.00  0.00    +0.000 C 
ENDROOT
BRANCH   1   2
ATOM      2  C   UNL     1      46.695   7.000  13.120  0.00  0.00    +0.000 A 
ATOM      3  C   UNL     1      46.648   5.611  13.305  0.00  0.00    +0.000 A 
ATOM      4  C   UNL     1      45.835   4.815  12.494  0.00  0.00    +0.000 A 
ATOM      5  C   UNL     1      45.058   5.396  11.480  0.00  0.00    +0.000 A 
ATOM      6  C   UNL     1      45.104   6.789  11.307  0.00  0.00    +0.000 A 
ATOM      7  C   UNL     1      45.912   7.583  12.119  0.00  0.00    +0.000 A 
BRANCH   5   8
ATOM      8  C   UNL     1      44.203   4.523  10.578  0.00  0.00    +0.000 C 
BRANCH   8   9
ATOM      9  C   UNL     1      45.004   3.775   9.522  0.00  0.00    +0.000 A 
ATOM     10  C   UNL     1      45.681   4.489   8.516  0.00  0.00    +0.000 A 
ATOM     11  C   UNL     1      46.395   3.821   7.520  0.00  0.00    +0.000 A 
ATOM     12  C   UNL     1      46.454   2.429   7.520  0.00  0.00    +0.000 A 
ATOM     13  C   UNL     1      45.805   1.708   8.513  0.00  0.00    +0.000 A 
ATOM     14  C   UNL     1      45.084   2.374   9.507  0.00  0.00    +0.000 A 
ENDBRANCH   8   9
BRANCH   8  15
ATOM     15  O   UNL     1      43.180   5.316   9.965  0.00  0.00    +0.000 OA
ATOM     16  H   UNL     1      43.322   6.236  10.237  0.00  0.00    +0.000 HD
ENDBRANCH   8  15
ENDBRANCH   5   8
ENDBRANCH   1   2
BRANCH   1  18
ATOM     17  C   UNL     1      49.675   7.353  12.580  0.00  0.00    +0.000 C 
ATOM     18  N   UNL     1      49.046   7.597  13.875  0.00  0.00    +0.000 N 
ATOM     19  C   UNL     1      49.933   7.736  14.959  0.00  0.00    +0.000 C 
ATOM     20  O   UNL     1      51.148   7.627  14.801  0.00  0.00    +0.000 OA
BRANCH  19  21
ATOM     21  C   UNL     1      49.405   7.979  16.307  0.00  0.00    +0.000 A 
ATOM     22  C   UNL     1      49.399   9.212  16.939  0.00  0.00    +0.000 A 
ATOM     23  S   UNL     1      48.649   9.194  18.473  0.00  0.00    +0.000 S 
ATOM     24  C   UNL     1      48.178   7.571  18.279  0.00  0.00    +0.000 A 
ATOM     25  N   UNL     1      47.395   6.955  19.204  0.00  0.00    +0.000 NA
ATOM     26  C   UNL     1      47.056   5.750  18.888  0.00  0.00    +0.000 A 
ATOM     27  N   UNL     1      47.458   5.094  17.752  0.00  0.00    +0.000 N 
ATOM     28  C   UNL     1      48.362   5.628  16.858  0.00  0.00    +0.000 A 
ATOM     29  O   UNL     1      48.884   4.931  15.998  0.00  0.00    +0.000 OA
ATOM     30  C   UNL     1      48.671   7.026  17.107  0.00  0.00    +0.000 A 
ATOM     31  H   UNL     1      47.211   4.128  17.601  0.00  0.00    +0.000 HD
ENDBRANCH  19  21
ENDBRANCH   1  18
TORSDOF 6
ENDMDL
MODEL 3
REMARK VINA RESULT:    -7.721      1.321      2.189
REMARK INTER + INTRA:         -11.648
REMARK INTER:                 -10.176
REMARK INTRA:                  -1.472
REMARK UNBOUND:                -1.445
REMARK  Name = 
REMARK  7 active torsions:
REMARK  status: ('A' for Active; 'I' for Inactive)
REMARK    1  A    between atoms: C_1  and  N_2
REMARK    2  A    between atoms: N_2  and  C_3
REMARK    3  A    between atoms: C_3  and  C_4
REMARK    4  A    between atoms: C_7  and  C_8
REMARK    5  A    between atoms: C_8  and  O_9
REMARK    6  A    between atoms: C_8  and  C_10
REMARK    7  A    between atoms: C_18  and  C_20
REMARK                            x       y       z     vdW  Elec       q    Type
REMARK                         _______ _______ _______ _____ _____    ______ ____
ROOT
ATOM      1  C   UNL     1      47.326   6.531  12.432  0.00  0.00    +0.000 C 
ENDROOT
BRANCH   1   2
ATOM      2  C   UNL     1      47.557   5.938  13.798  0.00  0.00    +0.000 A 
ATOM      3  C   UNL     1      48.397   6.576  14.721  0.00  0.00    +0.000 A 
ATOM      4  C   UNL     1      48.642   6.002  15.971  0.00  0.00    +0.000 A 
ATOM      5  C   UNL     1      48.053   4.776  16.317  0.00  0.00    +0.000 A 
ATOM      6  C   UNL     1      47.206   4.148  15.390  0.00  0.00    +0.000 A 
ATOM      7  C   UNL     1      46.958   4.723  14.145  0.00  0.00    +0.000 A 
BRANCH   5   8
ATOM      8  C   UNL     1      48.350   4.139  17.663  0.00  0.00    +0.000 C 
BRANCH   8   9
ATOM      9  C   UNL     1      49.730   3.501  17.740  0.00  0.00    +0.000 A 
ATOM     10  C   UNL     1      49.936   2.207  17.229  0.00  0.00    +0.000 A 
ATOM     11  C   UNL     1      51.186   1.592  17.318  0.00  0.00    +0.000 A 
ATOM     12  C   UNL     1      52.254   2.266  17.909  0.00  0.00    +0.000 A 
ATOM     13  C   UNL     1      52.073   3.549  18.406  0.00  0.00    +0.000 A 
ATOM     14  C   UNL     1      50.821   4.164  18.324  0.00  0.00    +0.000 A 
ENDBRANCH   8   9
BRANCH   8  15
ATOM     15  O   UNL     1      47.335   3.180  17.980  0.00  0.00    +0.000 OA
ATOM     16  H   UNL     1      46.485   3.646  17.985  0.00  0.00    +0.000 HD
ENDBRANCH   8  15
ENDBRANCH   5   8
ENDBRANCH   1   2
BRANCH   1  18
ATOM     17  C   UNL     1      46.270   8.790  12.917  0.00  0.00    +0.000 C 
ATOM     18  N   UNL     1      46.211   7.475  12.288  0.00  0.00    +0.000 N 
ATOM     19  C   UNL     1      45.121   7.271  11.420  0.00  0.00    +0.000 C 
ATOM     20  O   UNL     1      44.278   8.148  11.246  0.00  0.00    +0.000 OA
BRANCH  19  21
ATOM     21  C   UNL     1      44.964   5.979  10.738  0.00  0.00    +0.000 A 
ATOM     22  C   UNL     1      45.533   5.660   9.516  0.00  0.00    +0.000 A 
ATOM     23  S   UNL     1      45.231   4.056   9.016  0.00  0.00    +0.000 S 
ATOM     24  C   UNL     1      44.454   3.692  10.484  0.00  0.00    +0.000 A 
ATOM     25  N   UNL     1      44.035   2.428  10.758  0.00  0.00    +0.000 NA
ATOM     26  C   UNL     1      43.531   2.284  11.938  0.00  0.00    +0.000 A 
ATOM     27  N   UNL     1      43.374   3.294  12.852  0.00  0.00    +0.000 N 
ATOM     28  C   UNL     1      43.654   4.614  12.567  0.00  0.00    +0.000 A 
ATOM     29  O   UNL     1      43.276   5.513  13.307  0.00  0.00    +0.000 OA
ATOM     30  C   UNL     1      44.340   4.803  11.299  0.00  0.00    +0.000 A 
ATOM     31  H   UNL     1      42.909   3.126  13.731  0.00  0.00    +0.000 HD
ENDBRANCH  19  21
ENDBRANCH   1  18
TORSDOF 6
ENDMDL
MODEL 4
REMARK VINA RESULT:    -7.558      3.523      8.411
REMARK INTER + INTRA:         -11.434
REMARK INTER:                  -9.979
REMARK INTRA:                  -1.455
REMARK UNBOUND:                -1.445
REMARK  Name = 
REMARK  7 active torsions:
REMARK  status: ('A' for Active; 'I' for Inactive)
REMARK    1  A    between atoms: C_1  and  N_2
REMARK    2  A    between atoms: N_2  and  C_3
REMARK    3  A    between atoms: C_3  and  C_4
REMARK    4  A    between atoms: C_7  and  C_8
REMARK    5  A    between atoms: C_8  and  O_9
REMARK    6  A    between atoms: C_8  and  C_10
REMARK    7  A    between atoms: C_18  and  C_20
REMARK                            x       y       z     vdW  Elec       q    Type
REMARK                         _______ _______ _______ _____ _____    ______ ____
ROOT
ATOM      1  C   UNL     1      47.566   7.761  14.055  0.00  0.00    +0.000 C 
ENDROOT
BRANCH   1   2
ATOM      2  C   UNL     1      46.740   6.914  13.121  0.00  0.00    +0.000 A 
ATOM      3  C   UNL     1      46.056   7.496  12.045  0.00  0.00    +0.000 A 
ATOM      4  C   UNL     1      45.258   6.714  11.206  0.00  0.00    +0.000 A 
ATOM      5  C   UNL     1      45.126   5.335  11.433  0.00  0.00    +0.000 A 
ATOM      6  C   UNL     1      45.822   4.758  12.508  0.00  0.00    +0.000 A 
ATOM      7  C   UNL     1      46.622   5.538  13.342  0.00  0.00    +0.000 A 
BRANCH   5   8
ATOM      8  C   UNL     1      44.231   4.496  10.540  0.00  0.00    +0.000 C 
BRANCH   8   9
ATOM      9  C   UNL     1      44.994   3.717   9.477  0.00  0.00    +0.000 A 
ATOM     10  C   UNL     1      45.647   4.402   8.437  0.00  0.00    +0.000 A 
ATOM     11  C   UNL     1      46.326   3.705   7.436  0.00  0.00    +0.000 A 
ATOM     12  C   UNL     1      46.371   2.313   7.465  0.00  0.00    +0.000 A 
ATOM     13  C   UNL     1      45.745   1.620   8.491  0.00  0.00    +0.000 A 
ATOM     14  C   UNL     1      45.059   2.315   9.491  0.00  0.00    +0.000 A 
ENDBRANCH   8   9
BRANCH   8  15
ATOM     15  O   UNL     1      43.234   5.327   9.935  0.00  0.00    +0.000 OA
ATOM     16  H   UNL     1      43.633   6.197   9.783  0.00  0.00    +0.000 HD
ENDBRANCH   8  15
ENDBRANCH   5   8
ENDBRANCH   1   2
BRANCH   1  18
ATOM     17  C   UNL     1      49.883   7.897  13.024  0.00  0.00    +0.000 C 
ATOM     18  N   UNL     1      49.006   7.486  14.116  0.00  0.00    +0.000 N 
ATOM     19  C   UNL     1      49.660   6.993  15.260  0.00  0.00    +0.000 C 
ATOM     20  O   UNL     1      50.885   6.898  15.298  0.00  0.00    +0.000 OA
BRANCH  19  21
ATOM     21  C   UNL     1      48.871   6.548  16.416  0.00  0.00    +0.000 A 
ATOM     22  C   UNL     1      48.504   5.234  16.659  0.00  0.00    +0.000 A 
ATOM     23  S   UNL     1      47.652   5.019  18.123  0.00  0.00    +0.000 S 
ATOM     24  C   UNL     1      47.874   6.650  18.550  0.00  0.00    +0.000 A 
ATOM     25  N   UNL     1      47.469   7.117  19.761  0.00  0.00    +0.000 NA
ATOM     26  C   UNL     1      47.770   8.354  19.976  0.00  0.00    +0.000 A 
ATOM     27  N   UNL     1      48.403   9.175  19.078  0.00  0.00    +0.000 N 
ATOM     28  C   UNL     1      48.705   8.785  17.790  0.00  0.00    +0.000 A 
ATOM     29  O   UNL     1      49.041   9.606  16.946  0.00  0.00    +0.000 OA
ATOM     30  C   UNL     1      48.500   7.367  17.547  0.00  0.00    +0.000 A 
ATOM     31  H   UNL     1      48.546  10.152  19.285  0.00  0.00    +0.000 HD
ENDBRANCH  19  21
ENDBRANCH   1  18
TORSDOF 6
ENDMDL
MODEL 5
REMARK VINA RESULT:    -7.332      3.179      8.029
REMARK INTER + INTRA:         -11.135
REMARK INTER:                  -9.817
REMARK INTRA:                  -1.318
REMARK UNBOUND:                -1.445
REMARK  Name = 
REMARK  7 active torsions:
REMARK  status: ('A' for Active; 'I' for Inactive)
REMARK    1  A    between atoms: C_1  and  N_2
REMARK    2  A    between atoms: N_2  and  C_3
REMARK    3  A    between atoms: C_3  and  C_4
REMARK    4  A    between atoms: C_7  and  C_8
REMARK    5  A    between atoms: C_8  and  O_9
REMARK    6  A    between atoms: C_8  and  C_10
REMARK    7  A    between atoms: C_18  and  C_20
REMARK                            x       y       z     vdW  Elec       q    Type
REMARK                         _______ _______ _______ _____ _____    ______ ____
ROOT
ATOM      1  C   UNL     1      48.972   6.664  14.821  0.00  0.00    +0.000 C 
ENDROOT
BRANCH   1   2
ATOM      2  C   UNL     1      47.762   6.341  13.983  0.00  0.00    +0.000 A 
ATOM      3  C   UNL     1      47.217   5.050  13.984  0.00  0.00    +0.000 A 
ATOM      4  C   UNL     1      46.120   4.743  13.173  0.00  0.00    +0.000 A 
ATOM      5  C   UNL     1      45.554   5.723  12.343  0.00  0.00    +0.000 A 
ATOM      6  C   UNL     1      46.101   7.017  12.355  0.00  0.00    +0.000 A 
ATOM      7  C   UNL     1      47.192   7.323  13.167  0.00  0.00    +0.000 A 
BRANCH   5   8
ATOM      8  C   UNL     1      44.385   5.376  11.439  0.00  0.00    +0.000 C 
BRANCH   8   9
ATOM      9  C   UNL     1      44.760   4.446  10.294  0.00  0.00    +0.000 A 
ATOM     10  C   UNL     1      45.508   4.935   9.207  0.00  0.00    +0.000 A 
ATOM     11  C   UNL     1      45.836   4.106   8.133  0.00  0.00    +0.000 A 
ATOM     12  C   UNL     1      45.431   2.772   8.133  0.00  0.00    +0.000 A 
ATOM     13  C   UNL     1      44.706   2.268   9.204  0.00  0.00    +0.000 A 
ATOM     14  C   UNL     1      44.371   3.098  10.277  0.00  0.00    +0.000 A 
ENDBRANCH   8   9
BRANCH   8  15
ATOM     15  O   UNL     1      43.788   6.576  10.935  0.00  0.00    +0.000 OA
ATOM     16  H   UNL     1      44.337   7.320  11.229  0.00  0.00    +0.000 HD
ENDBRANCH   8  15
ENDBRANCH   5   8
ENDBRANCH   1   2
BRANCH   1  18
ATOM     17  C   UNL     1      48.699   8.883  16.027  0.00  0.00    +0.000 C 
ATOM     18  N   UNL     1      48.751   7.425  16.056  0.00  0.00    +0.000 N 
ATOM     19  C   UNL     1      48.402   6.835  17.286  0.00  0.00    +0.000 C 
ATOM     20  O   UNL     1      48.108   7.526  18.259  0.00  0.00    +0.000 OA
BRANCH  19  21
ATOM     21  C   UNL     1      48.425   5.372  17.425  0.00  0.00    +0.000 A 
ATOM     22  C   UNL     1      47.311   4.555  17.323  0.00  0.00    +0.000 A 
ATOM     23  S   UNL     1      47.667   2.891  17.457  0.00  0.00    +0.000 S 
ATOM     24  C   UNL     1      49.339   3.201  17.510  0.00  0.00    +0.000 A 
ATOM     25  N   UNL     1      50.239   2.182  17.520  0.00  0.00    +0.000 NA
ATOM     26  C   UNL     1      51.470   2.567  17.486  0.00  0.00    +0.000 A 
ATOM     27  N   UNL     1      51.883   3.875  17.480  0.00  0.00    +0.000 N 
ATOM     28  C   UNL     1      51.013   4.937  17.611  0.00  0.00    +0.000 A 
ATOM     29  O   UNL     1      51.426   6.064  17.849  0.00  0.00    +0.000 OA
ATOM     30  C   UNL     1      49.613   4.556  17.526  0.00  0.00    +0.000 A 
ATOM     31  H   UNL     1      52.865   4.106  17.522  0.00  0.00    +0.000 HD
ENDBRANCH  19  21
ENDBRANCH   1  18
TORSDOF 6
ENDMDL
MODEL 6
REMARK VINA RESULT:    -7.185      1.667      2.601
REMARK INTER + INTRA:         -10.941
REMARK INTER:                  -9.487
REMARK INTRA:                  -1.454
REMARK UNBOUND:                -1.445
REMARK  Name = 
REMARK  7 active torsions:
REMARK  status: ('A' for Active; 'I' for Inactive)
REMARK    1  A    between atoms: C_1  and  N_2
REMARK    2  A    between atoms: N_2  and  C_3
REMARK    3  A    between atoms: C_3  and  C_4
REMARK    4  A    between atoms: C_7  and  C_8
REMARK    5  A    between atoms: C_8  and  O_9
REMARK    6  A    between atoms: C_8  and  C_10
REMARK    7  A    between atoms: C_18  and  C_20
REMARK                            x       y       z     vdW  Elec       q    Type
REMARK                         _______ _______ _______ _____ _____    ______ ____
ROOT
ATOM      1  C   UNL     1      47.377   6.151  12.491  0.00  0.00    +0.000 C 
ENDROOT
BRANCH   1   2
ATOM      2  C   UNL     1      47.620   5.811  13.939  0.00  0.00    +0.000 A 
ATOM      3  C   UNL     1      48.493   6.583  14.717  0.00  0.00    +0.000 A 
ATOM      4  C   UNL     1      48.748   6.240  16.048  0.00  0.00    +0.000 A 
ATOM      5  C   UNL     1      48.137   5.114  16.621  0.00  0.00    +0.000 A 
ATOM      6  C   UNL     1      47.256   4.351  15.836  0.00  0.00    +0.000 A 
ATOM      7  C   UNL     1      46.999   4.697  14.511  0.00  0.00    +0.000 A 
BRANCH   5   8
ATOM      8  C   UNL     1      48.444   4.725  18.056  0.00  0.00    +0.000 C 
BRANCH   8   9
ATOM      9  C   UNL     1      48.545   5.917  18.998  0.00  0.00    +0.000 A 
ATOM     10  C   UNL     1      47.416   6.721  19.239  0.00  0.00    +0.000 A 
ATOM     11  C   UNL     1      47.496   7.836  20.074  0.00  0.00    +0.000 A 
ATOM     12  C   UNL     1      48.703   8.159  20.692  0.00  0.00    +0.000 A 
ATOM     13  C   UNL     1      49.824   7.369  20.478  0.00  0.00    +0.000 A 
ATOM     14  C   UNL     1      49.748   6.256  19.636  0.00  0.00    +0.000 A 
ENDBRANCH   8   9
BRANCH   8  15
ATOM     15  O   UNL     1      49.644   3.946  18.101  0.00  0.00    +0.000 OA
ATOM     16  H   UNL     1      49.748   3.521  17.235  0.00  0.00    +0.000 HD
ENDBRANCH   8  15
ENDBRANCH   5   8
ENDBRANCH   1   2
BRANCH   1  18
ATOM     17  C   UNL     1      46.612   8.558  12.221  0.00  0.00    +0.000 C 
ATOM     18  N   UNL     1      46.322   7.128  12.197  0.00  0.00    +0.000 N 
ATOM     19  C   UNL     1      45.048   6.780  11.711  0.00  0.00    +0.000 C 
ATOM     20  O   UNL     1      44.245   7.644  11.364  0.00  0.00    +0.000 OA
BRANCH  19  21
ATOM     21  C   UNL     1      44.652   5.366  11.649  0.00  0.00    +0.000 A 
ATOM     22  C   UNL     1      43.926   4.709  12.630  0.00  0.00    +0.000 A 
ATOM     23  S   UNL     1      43.555   3.089  12.239  0.00  0.00    +0.000 S 
ATOM     24  C   UNL     1      44.225   3.258  10.685  0.00  0.00    +0.000 A 
ATOM     25  N   UNL     1      44.143   2.251   9.776  0.00  0.00    +0.000 NA
ATOM     26  C   UNL     1      44.628   2.547   8.617  0.00  0.00    +0.000 A 
ATOM     27  N   UNL     1      45.220   3.742   8.297  0.00  0.00    +0.000 N 
ATOM     28  C   UNL     1      45.451   4.737   9.223  0.00  0.00    +0.000 A 
ATOM     29  O   UNL     1      46.192   5.677   8.968  0.00  0.00    +0.000 OA
ATOM     30  C   UNL     1      44.810   4.498  10.506  0.00  0.00    +0.000 A 
ATOM     31  H   UNL     1      45.640   3.882   7.390  0.00  0.00    +0.000 HD
ENDBRANCH  19  21
ENDBRANCH   1  18
TORSDOF 6
ENDMDL
MODEL 7
REMARK VINA RESULT:    -6.950      2.013      3.096
REMARK INTER + INTRA:         -10.629
REMARK INTER:                  -9.250
REMARK INTRA:                  -1.379
REMARK UNBOUND:                -1.445
REMARK  Name = 
REMARK  7 active torsions:
REMARK  status: ('A' for Active; 'I' for Inactive)
REMARK    1  A    between atoms: C_1  and  N_2
REMARK    2  A    between atoms: N_2  and  C_3
REMARK    3  A    between atoms: C_3  and  C_4
REMARK    4  A    between atoms: C_7  and  C_8
REMARK    5  A    between atoms: C_8  and  O_9
REMARK    6  A    between atoms: C_8  and  C_10
REMARK    7  A    between atoms: C_18  and  C_20
REMARK                            x       y       z     vdW  Elec       q    Type
REMARK                         _______ _______ _______ _____ _____    ______ ____
ROOT
ATOM      1  C   UNL     1      47.457   6.410  12.697  0.00  0.00    +0.000 C 
ENDROOT
BRANCH   1   2
ATOM      2  C   UNL     1      47.618   5.819  14.074  0.00  0.00    +0.000 A 
ATOM      3  C   UNL     1      48.509   6.387  14.995  0.00  0.00    +0.000 A 
ATOM      4  C   UNL     1      48.687   5.811  16.257  0.00  0.00    +0.000 A 
ATOM      5  C   UNL     1      47.979   4.654  16.616  0.00  0.00    +0.000 A 
ATOM      6  C   UNL     1      47.082   4.096  15.690  0.00  0.00    +0.000 A 
ATOM      7  C   UNL     1      46.901   4.673  14.434  0.00  0.00    +0.000 A 
BRANCH   5   8
ATOM      8  C   UNL     1      48.202   4.013  17.974  0.00  0.00    +0.000 C 
BRANCH   8   9
ATOM      9  C   UNL     1      48.350   5.023  19.103  0.00  0.00    +0.000 A 
ATOM     10  C   UNL     1      47.334   5.966  19.341  0.00  0.00    +0.000 A 
ATOM     11  C   UNL     1      47.465   6.920  20.351  0.00  0.00    +0.000 A 
ATOM     12  C   UNL     1      48.609   6.939  21.148  0.00  0.00    +0.000 A 
ATOM     13  C   UNL     1      49.615   6.007  20.938  0.00  0.00    +0.000 A 
ATOM     14  C   UNL     1      49.489   5.054  19.923  0.00  0.00    +0.000 A 
ENDBRANCH   8   9
BRANCH   8  15
ATOM     15  O   UNL     1      49.341   3.147  17.920  0.00  0.00    +0.000 OA
ATOM     16  H   UNL     1      49.449   2.863  16.999  0.00  0.00    +0.000 HD
ENDBRANCH   8  15
ENDBRANCH   5   8
ENDBRANCH   1   2
BRANCH   1  18
ATOM     17  C   UNL     1      46.549   8.731  13.188  0.00  0.00    +0.000 C 
ATOM     18  N   UNL     1      46.424   7.437  12.523  0.00  0.00    +0.000 N 
ATOM     19  C   UNL     1      45.368   7.335  11.598  0.00  0.00    +0.000 C 
ATOM     20  O   UNL     1      44.602   8.277  11.405  0.00  0.00    +0.000 OA
BRANCH  19  21
ATOM     21  C   UNL     1      45.150   6.074  10.877  0.00  0.00    +0.000 A 
ATOM     22  C   UNL     1      45.720   5.759   9.654  0.00  0.00    +0.000 A 
ATOM     23  S   UNL     1      45.337   4.189   9.103  0.00  0.00    +0.000 S 
ATOM     24  C   UNL     1      44.517   3.827  10.549  0.00  0.00    +0.000 A 
ATOM     25  N   UNL     1      44.023   2.582  10.779  0.00  0.00    +0.000 NA
ATOM     26  C   UNL     1      43.493   2.433  11.946  0.00  0.00    +0.000 A 
ATOM     27  N   UNL     1      43.378   3.425  12.887  0.00  0.00    +0.000 N 
ATOM     28  C   UNL     1      43.736   4.734  12.645  0.00  0.00    +0.000 A 
ATOM     29  O   UNL     1      43.397   5.631  13.405  0.00  0.00    +0.000 OA
ATOM     30  C   UNL     1      44.452   4.920  11.394  0.00  0.00    +0.000 A 
ATOM     31  H   UNL     1      42.889   3.258  13.754  0.00  0.00    +0.000 HD
ENDBRANCH  19  21
ENDBRANCH   1  18
TORSDOF 6
ENDMDL
MODEL 8
REMARK VINA RESULT:    -6.915      3.500      8.195
REMARK INTER + INTRA:         -10.584
REMARK INTER:                  -9.393
REMARK INTRA:                  -1.191
REMARK UNBOUND:                -1.445
REMARK  Name = 
REMARK  7 active torsions:
REMARK  status: ('A' for Active; 'I' for Inactive)
REMARK    1  A    between atoms: C_1  and  N_2
REMARK    2  A    between atoms: N_2  and  C_3
REMARK    3  A    between atoms: C_3  and  C_4
REMARK    4  A    between atoms: C_7  and  C_8
REMARK    5  A    between atoms: C_8  and  O_9
REMARK    6  A    between atoms: C_8  and  C_10
REMARK    7  A    between atoms: C_18  and  C_20
REMARK                            x       y       z     vdW  Elec       q    Type
REMARK                         _______ _______ _______ _____ _____    ______ ____
ROOT
ATOM      1  C   UNL     1      49.206   7.133  14.290  0.00  0.00    +0.000 C 
ENDROOT
BRANCH   1   2
ATOM      2  C   UNL     1      48.067   6.611  13.454  0.00  0.00    +0.000 A 
ATOM      3  C   UNL     1      47.667   7.284  12.291  0.00  0.00    +0.000 A 
ATOM      4  C   UNL     1      46.583   6.820  11.541  0.00  0.00    +0.000 A 
ATOM      5  C   UNL     1      45.877   5.676  11.945  0.00  0.00    +0.000 A 
ATOM      6  C   UNL     1      46.290   5.003  13.107  0.00  0.00    +0.000 A 
ATOM      7  C   UNL     1      47.374   5.463  13.852  0.00  0.00    +0.000 A 
BRANCH   5   8
ATOM      8  C   UNL     1      44.678   5.196  11.146  0.00  0.00    +0.000 C 
BRANCH   8   9
ATOM      9  C   UNL     1      45.044   4.236  10.022  0.00  0.00    +0.000 A 
ATOM     10  C   UNL     1      45.628   4.728   8.840  0.00  0.00    +0.000 A 
ATOM     11  C   UNL     1      45.942   3.869   7.786  0.00  0.00    +0.000 A 
ATOM     12  C   UNL     1      45.689   2.503   7.901  0.00  0.00    +0.000 A 
ATOM     13  C   UNL     1      45.127   1.998   9.066  0.00  0.00    +0.000 A 
ATOM     14  C   UNL     1      44.806   2.857  10.120  0.00  0.00    +0.000 A 
ENDBRANCH   8   9
BRANCH   8  15
ATOM     15  O   UNL     1      43.957   6.321  10.631  0.00  0.00    +0.000 OA
ATOM     16  H   UNL     1      44.309   6.514   9.749  0.00  0.00    +0.000 HD
ENDBRANCH   8  15
ENDBRANCH   5   8
ENDBRANCH   1   2
BRANCH   1  18
ATOM     17  C   UNL     1      47.843   8.920  15.473  0.00  0.00    +0.000 C 
ATOM     18  N   UNL     1      48.862   7.876  15.508  0.00  0.00    +0.000 N 
ATOM     19  C   UNL     1      49.332   7.536  16.791  0.00  0.00    +0.000 C 
ATOM     20  O   UNL     1      48.915   8.115  17.792  0.00  0.00    +0.000 OA
BRANCH  19  21
ATOM     21  C   UNL     1      50.362   6.499  16.939  0.00  0.00    +0.000 A 
ATOM     22  C   UNL     1      51.721   6.750  17.036  0.00  0.00    +0.000 A 
ATOM     23  S   UNL     1      52.663   5.346  17.275  0.00  0.00    +0.000 S 
ATOM     24  C   UNL     1      51.272   4.375  17.402  0.00  0.00    +0.000 A 
ATOM     25  N   UNL     1      51.368   3.055  17.716  0.00  0.00    +0.000 NA
ATOM     26  C   UNL     1      50.229   2.462  17.852  0.00  0.00    +0.000 A 
ATOM     27  N   UNL     1      49.008   3.058  17.665  0.00  0.00    +0.000 N 
ATOM     28  C   UNL     1      48.866   4.353  17.211  0.00  0.00    +0.000 A 
ATOM     29  O   UNL     1      47.783   4.769  16.823  0.00  0.00    +0.000 OA
ATOM     30  C   UNL     1      50.115   5.094  17.167  0.00  0.00    +0.000 A 
ATOM     31  H   UNL     1      48.158   2.518  17.720  0.00  0.00    +0.000 HD
ENDBRANCH  19  21
ENDBRANCH   1  18
TORSDOF 6
ENDMDL
MODEL 9
REMARK VINA RESULT:    -6.564      3.871      8.379
REMARK INTER + INTRA:         -10.119
REMARK INTER:                 -10.029
REMARK INTRA:                  -0.090
REMARK UNBOUND:                -1.445
REMARK  Name = 
REMARK  7 active torsions:
REMARK  status: ('A' for Active; 'I' for Inactive)
REMARK    1  A    between atoms: C_1  and  N_2
REMARK    2  A    between atoms: N_2  and  C_3
REMARK    3  A    between atoms: C_3  and  C_4
REMARK    4  A    between atoms: C_7  and  C_8
REMARK    5  A    between atoms: C_8  and  O_9
REMARK    6  A    between atoms: C_8  and  C_10
REMARK    7  A    between atoms: C_18  and  C_20
REMARK                            x       y       z     vdW  Elec       q    Type
REMARK                         _______ _______ _______ _____ _____    ______ ____
ROOT
ATOM      1  C   UNL     1      47.805   6.399  14.215  0.00  0.00    +0.000 C 
ENDROOT
BRANCH   1   2
ATOM      2  C   UNL     1      46.905   5.807  13.162  0.00  0.00    +0.000 A 
ATOM      3  C   UNL     1      46.211   4.613  13.404  0.00  0.00    +0.000 A 
ATOM      4  C   UNL     1      45.410   4.045  12.409  0.00  0.00    +0.000 A 
ATOM      5  C   UNL     1      45.293   4.661  11.154  0.00  0.00    +0.000 A 
ATOM      6  C   UNL     1      45.983   5.862  10.923  0.00  0.00    +0.000 A 
ATOM      7  C   UNL     1      46.779   6.430  11.917  0.00  0.00    +0.000 A 
BRANCH   5   8
ATOM      8  C   UNL     1      44.449   4.021  10.065  0.00  0.00    +0.000 C 
BRANCH   8   9
ATOM      9  C   UNL     1      45.272   3.320   8.994  0.00  0.00    +0.000 A 
ATOM     10  C   UNL     1      45.826   4.062   7.935  0.00  0.00    +0.000 A 
ATOM     11  C   UNL     1      46.557   3.433   6.926  0.00  0.00    +0.000 A 
ATOM     12  C   UNL     1      46.757   2.054   6.966  0.00  0.00    +0.000 A 
ATOM     13  C   UNL     1      46.230   1.308   8.011  0.00  0.00    +0.000 A 
ATOM     14  C   UNL     1      45.492   1.934   9.019  0.00  0.00    +0.000 A 
ENDBRANCH   8   9
BRANCH   8  15
ATOM     15  O   UNL     1      43.592   5.005   9.476  0.00  0.00    +0.000 OA
ATOM     16  H   UNL     1      44.084   5.841   9.447  0.00  0.00    +0.000 HD
ENDBRANCH   8  15
ENDBRANCH   5   8
ENDBRANCH   1   2
BRANCH   1  18
ATOM     17  C   UNL     1      46.986   8.689  13.483  0.00  0.00    +0.000 C 
ATOM     18  N   UNL     1      47.866   7.863  14.303  0.00  0.00    +0.000 N 
ATOM     19  C   UNL     1      48.612   8.558  15.274  0.00  0.00    +0.000 C 
ATOM     20  O   UNL     1      48.530   9.780  15.380  0.00  0.00    +0.000 OA
BRANCH  19  21
ATOM     21  C   UNL     1      49.533   7.821  16.150  0.00  0.00    +0.000 A 
ATOM     22  C   UNL     1      49.150   7.124  17.285  0.00  0.00    +0.000 A 
ATOM     23  S   UNL     1      50.436   6.308  18.055  0.00  0.00    +0.000 S 
ATOM     24  C   UNL     1      51.518   6.739  16.816  0.00  0.00    +0.000 A 
ATOM     25  N   UNL     1      52.793   6.266  16.805  0.00  0.00    +0.000 NA
ATOM     26  C   UNL     1      53.476   6.615  15.766  0.00  0.00    +0.000 A 
ATOM     27  N   UNL     1      53.013   7.424  14.760  0.00  0.00    +0.000 N 
ATOM     28  C   UNL     1      51.779   8.039  14.798  0.00  0.00    +0.000 A 
ATOM     29  O   UNL     1      51.498   8.937  14.016  0.00  0.00    +0.000 OA
ATOM     30  C   UNL     1      50.931   7.574  15.883  0.00  0.00    +0.000 A 
ATOM     31  H   UNL     1      53.623   7.714  14.010  0.00  0.00    +0.000 HD
ENDBRANCH  19  21
ENDBRANCH   1  18
TORSDOF 6
ENDMDL
