MODEL 1
REMARK VINA RESULT:    -8.704      0.000      0.000
REMARK INTER + INTRA:         -12.952
REMARK INTER:                 -12.012
REMARK INTRA:                  -0.940
REMARK UNBOUND:                -0.940
REMARK  Name = 
REMARK  8 active torsions:
REMARK  status: ('A' for Active; 'I' for Inactive)
REMARK    1  A    between atoms: C_1  and  O_2
REMARK    2  A    between atoms: O_2  and  C_3
REMARK    3  A    between atoms: C_5  and  C_6
REMARK    4  A    between atoms: C_6  and  N_7
REMARK    5  A    between atoms: N_7  and  C_8
REMARK    6  A    between atoms: C_12  and  C_13
REMARK    7  A    between atoms: C_21  and  C_22
REMARK    8  A    between atoms: C_22  and  O_24
REMARK                            x       y       z     vdW  Elec       q    Type
REMARK                         _______ _______ _______ _____ _____    ______ ____
ROOT
ATOM      1  N   UNL     1      43.391   6.123  10.669  0.00  0.00    +0.000 N 
ATOM      2  H   UNL     1      43.832   6.726   9.978  0.00  0.00    +0.000 HD
ENDROOT
BRANCH   1   3
ATOM      3  C   UNL     1      43.704   4.767  10.436  0.00  0.00    +0.000 A 
ATOM      4  C   UNL     1      43.160   3.708  11.166  0.00  0.00    +0.000 A 
ATOM      5  N   UNL     1      43.432   2.401  10.964  0.00  0.00    +0.000 NA
ATOM      6  C   UNL     1      44.279   2.121   9.948  0.00  0.00    +0.000 A 
ATOM      7  C   UNL     1      44.865   3.065   9.102  0.00  0.00    +0.000 A 
ATOM      8  C   UNL     1      44.521   4.409   9.354  0.00  0.00    +0.000 A 
BRANCH   7   9
ATOM      9  C   UNL     1      45.821   2.669   8.044  0.00  0.00    +0.000 A 
ATOM     10  C   UNL     1      46.444   1.409   8.038  0.00  0.00    +0.000 A 
ATOM     11  C   UNL     1      47.316   1.033   7.009  0.00  0.00    +0.000 A 
ATOM     12  C   UNL     1      47.595   1.915   5.970  0.00  0.00    +0.000 A 
ATOM     13  C   UNL     1      47.005   3.175   5.959  0.00  0.00    +0.000 A 
ATOM     14  C   UNL     1      46.128   3.543   6.981  0.00  0.00    +0.000 A 
ENDBRANCH   7   9
ENDBRANCH   1   3
BRANCH   1  15
ATOM     15  C   UNL     1      43.659   6.593  12.031  0.00  0.00    +0.000 C 
BRANCH  15  18
ATOM     16  C   UNL     1      47.460   6.948  12.041  0.00  0.00    +0.000 A 
ATOM     17  C   UNL     1      46.113   7.142  11.733  0.00  0.00    +0.000 A 
ATOM     18  C   UNL     1      45.114   6.396  12.384  0.00  0.00    +0.000 A 
ATOM     19  C   UNL     1      45.485   5.488  13.386  0.00  0.00    +0.000 A 
ATOM     20  C   UNL     1      46.836   5.312  13.718  0.00  0.00    +0.000 A 
ATOM     21  C   UNL     1      47.817   6.024  13.025  0.00  0.00    +0.000 A 
BRANCH  16  23
ATOM     22  C   UNL     1      49.627   7.897  12.291  0.00  0.00    +0.000 C 
ATOM     23  O   UNL     1      48.525   7.570  11.456  0.00  0.00    +0.000 OA
ENDBRANCH  16  23
BRANCH  20  24
ATOM     24  C   UNL     1      47.189   4.320  14.759  0.00  0.00    +0.000 C 
ATOM     25  O   UNL     1      47.419   3.149  14.494  0.00  0.00    +0.000 OA
BRANCH  24  26
ATOM     26  O   UNL     1      47.196   4.801  16.018  0.00  0.00    +0.000 OA
ATOM     27  H   UNL     1      47.229   4.128  16.725  0.00  0.00    +0.000 HD
ENDBRANCH  24  26
ENDBRANCH  20  24
ENDBRANCH  15  18
ENDBRANCH   1  15
TORSDOF 7
ENDMDL
MODEL 2
REMARK VINA RESULT:    -8.253      0.523      1.094
REMARK INTER + INTRA:         -12.329
REMARK INTER:                 -11.439
REMARK INTRA:                  -0.889
REMARK UNBOUND:                -0.940
REMARK  Name = 
REMARK  8 active torsions:
REMARK  status: ('A' for Active; 'I' for Inactive)
REMARK    1  A    between atoms: C_1  and  O_2
REMARK    2  A    between atoms: O_2  and  C_3
REMARK    3  A    between atoms: C_5  and  C_6
REMARK    4  A    between atoms: C_6  and  N_7
REMARK    5  A    between atoms: N_7  and  C_8
REMARK    6  A    between atoms: C_12  and  C_13
REMARK    7  A    between atoms: C_21  and  C_22
REMARK    8  A    between atoms: C_22  and  O_24
REMARK                            x       y       z     vdW  Elec       q    Type
REMARK                         _______ _______ _______ _____ _____    ______ ____
ROOT
ATOM      1  N   UNL     1      43.780   6.404  10.910  0.00  0.00    +0.000 N 
ATOM      2  H   UNL     1      44.386   6.953  10.306  0.00  0.00    +0.000 HD
ENDROOT
BRANCH   1   3
ATOM      3  C   UNL     1      43.908   5.024  10.641  0.00  0.00    +0.000 A 
ATOM      4  C   UNL     1      43.237   4.028  11.355  0.00  0.00    +0.000 A 
ATOM      5  N   UNL     1      43.331   2.703  11.117  0.00  0.00    +0.000 NA
ATOM      6  C   UNL     1      44.121   2.339  10.082  0.00  0.00    +0.000 A 
ATOM      7  C   UNL     1      44.816   3.218   9.250  0.00  0.00    +0.000 A 
ATOM      8  C   UNL     1      44.657   4.589   9.539  0.00  0.00    +0.000 A 
BRANCH   7   9
ATOM      9  C   UNL     1      45.699   2.726   8.168  0.00  0.00    +0.000 A 
ATOM     10  C   UNL     1      46.037   3.526   7.062  0.00  0.00    +0.000 A 
ATOM     11  C   UNL     1      46.905   3.062   6.067  0.00  0.00    +0.000 A 
ATOM     12  C   UNL     1      47.443   1.781   6.147  0.00  0.00    +0.000 A 
ATOM     13  C   UNL     1      47.112   0.962   7.222  0.00  0.00    +0.000 A 
ATOM     14  C   UNL     1      46.254   1.432   8.219  0.00  0.00    +0.000 A 
ENDBRANCH   7   9
ENDBRANCH   1   3
BRANCH   1  15
ATOM     15  C   UNL     1      43.954   6.777  12.317  0.00  0.00    +0.000 C 
BRANCH  15  18
ATOM     16  C   UNL     1      47.693   7.419  12.741  0.00  0.00    +0.000 A 
ATOM     17  C   UNL     1      46.356   7.576  12.375  0.00  0.00    +0.000 A 
ATOM     18  C   UNL     1      45.397   6.613  12.735  0.00  0.00    +0.000 A 
ATOM     19  C   UNL     1      45.791   5.514  13.512  0.00  0.00    +0.000 A 
ATOM     20  C   UNL     1      47.128   5.369  13.905  0.00  0.00    +0.000 A 
ATOM     21  C   UNL     1      48.077   6.309  13.495  0.00  0.00    +0.000 A 
BRANCH  16  23
ATOM     22  C   UNL     1      49.704   7.758  11.516  0.00  0.00    +0.000 C 
ATOM     23  O   UNL     1      48.727   8.252  12.421  0.00  0.00    +0.000 OA
ENDBRANCH  16  23
BRANCH  20  24
ATOM     24  C   UNL     1      47.511   4.178  14.697  0.00  0.00    +0.000 C 
ATOM     25  O   UNL     1      47.315   3.039  14.300  0.00  0.00    +0.000 OA
BRANCH  24  26
ATOM     26  O   UNL     1      48.052   4.450  15.901  0.00  0.00    +0.000 OA
ATOM     27  H   UNL     1      49.001   4.237  15.993  0.00  0.00    +0.000 HD
ENDBRANCH  24  26
ENDBRANCH  20  24
ENDBRANCH  15  18
ENDBRANCH   1  15
TORSDOF 7
ENDMDL
MODEL 3
REMARK VINA RESULT:    -7.596      1.189      3.051
REMARK INTER + INTRA:         -11.422
REMARK INTER:                 -10.762
REMARK INTRA:                  -0.660
REMARK UNBOUND:                -0.940
REMARK  Name = 
REMARK  8 active torsions:
REMARK  status: ('A' for Active; 'I' for Inactive)
REMARK    1  A    between atoms: C_1  and  O_2
REMARK    2  A    between atoms: O_2  and  C_3
REMARK    3  A    between atoms: C_5  and  C_6
REMARK    4  A    between atoms: C_6  and  N_7
REMARK    5  A    between atoms: N_7  and  C_8
REMARK    6  A    between atoms: C_12  and  C_13
REMARK    7  A    between atoms: C_21  and  C_22
REMARK    8  A    between atoms: C_22  and  O_24
REMARK                            x       y       z     vdW  Elec       q    Type
REMARK                         _______ _______ _______ _____ _____    ______ ____
ROOT
ATOM      1  N   UNL     1      44.186   6.180  11.903  0.00  0.00    +0.000 N 
ATOM      2  H   UNL     1      43.274   6.631  11.874  0.00  0.00    +0.000 HD
ENDROOT
BRANCH   1   3
ATOM      3  C   UNL     1      44.124   4.873  11.374  0.00  0.00    +0.000 A 
ATOM      4  C   UNL     1      43.311   3.862  11.895  0.00  0.00    +0.000 A 
ATOM      5  N   UNL     1      43.223   2.607  11.408  0.00  0.00    +0.000 NA
ATOM      6  C   UNL     1      43.968   2.341  10.311  0.00  0.00    +0.000 A 
ATOM      7  C   UNL     1      44.789   3.257   9.652  0.00  0.00    +0.000 A 
ATOM      8  C   UNL     1      44.819   4.556  10.199  0.00  0.00    +0.000 A 
BRANCH   7   9
ATOM      9  C   UNL     1      45.608   2.862   8.483  0.00  0.00    +0.000 A 
ATOM     10  C   UNL     1      45.918   3.766   7.453  0.00  0.00    +0.000 A 
ATOM     11  C   UNL     1      46.727   3.390   6.373  0.00  0.00    +0.000 A 
ATOM     12  C   UNL     1      47.232   2.096   6.294  0.00  0.00    +0.000 A 
ATOM     13  C   UNL     1      46.927   1.176   7.291  0.00  0.00    +0.000 A 
ATOM     14  C   UNL     1      46.128   1.557   8.371  0.00  0.00    +0.000 A 
ENDBRANCH   7   9
ENDBRANCH   1   3
BRANCH   1  15
ATOM     15  C   UNL     1      45.220   7.036  11.315  0.00  0.00    +0.000 C 
BRANCH  15  18
ATOM     16  C   UNL     1      47.763   6.017  13.974  0.00  0.00    +0.000 A 
ATOM     17  C   UNL     1      46.582   6.106  13.238  0.00  0.00    +0.000 A 
ATOM     18  C   UNL     1      46.509   6.925  12.097  0.00  0.00    +0.000 A 
ATOM     19  C   UNL     1      47.655   7.614  11.676  0.00  0.00    +0.000 A 
ATOM     20  C   UNL     1      48.851   7.504  12.399  0.00  0.00    +0.000 A 
ATOM     21  C   UNL     1      48.891   6.727  13.559  0.00  0.00    +0.000 A 
BRANCH  16  23
ATOM     22  C   UNL     1      48.602   5.957  16.200  0.00  0.00    +0.000 C 
ATOM     23  O   UNL     1      47.955   5.299  15.120  0.00  0.00    +0.000 OA
ENDBRANCH  16  23
BRANCH  20  24
ATOM     24  C   UNL     1      50.032   8.273  11.942  0.00  0.00    +0.000 C 
ATOM     25  O   UNL     1      49.927   9.316  11.312  0.00  0.00    +0.000 OA
BRANCH  24  26
ATOM     26  O   UNL     1      51.220   7.713  12.238  0.00  0.00    +0.000 OA
ATOM     27  H   UNL     1      51.978   8.029  11.709  0.00  0.00    +0.000 HD
ENDBRANCH  24  26
ENDBRANCH  20  24
ENDBRANCH  15  18
ENDBRANCH   1  15
TORSDOF 7
ENDMDL
MODEL 4
REMARK VINA RESULT:    -7.595      1.894      3.037
REMARK INTER + INTRA:         -11.421
REMARK INTER:                 -10.686
REMARK INTRA:                  -0.735
REMARK UNBOUND:                -0.940
REMARK  Name = 
REMARK  8 active torsions:
REMARK  status: ('A' for Active; 'I' for Inactive)
REMARK    1  A    between atoms: C_1  and  O_2
REMARK    2  A    between atoms: O_2  and  C_3
REMARK    3  A    between atoms: C_5  and  C_6
REMARK    4  A    between atoms: C_6  and  N_7
REMARK    5  A    between atoms: N_7  and  C_8
REMARK    6  A    between atoms: C_12  and  C_13
REMARK    7  A    between atoms: C_21  and  C_22
REMARK    8  A    between atoms: C_22  and  O_24
REMARK                            x       y       z     vdW  Elec       q    Type
REMARK                         _______ _______ _______ _____ _____    ______ ____
ROOT
ATOM      1  N   UNL     1      44.174   6.372  11.520  0.00  0.00    +0.000 N 
ATOM      2  H   UNL     1      44.414   7.000  10.757  0.00  0.00    +0.000 HD
ENDROOT
BRANCH   1   3
ATOM      3  C   UNL     1      44.127   5.031  11.079  0.00  0.00    +0.000 A 
ATOM      4  C   UNL     1      43.298   4.058  11.643  0.00  0.00    +0.000 A 
ATOM      5  N   UNL     1      43.223   2.772  11.240  0.00  0.00    +0.000 NA
ATOM      6  C   UNL     1      44.000   2.432  10.187  0.00  0.00    +0.000 A 
ATOM      7  C   UNL     1      44.842   3.302   9.492  0.00  0.00    +0.000 A 
ATOM      8  C   UNL     1      44.857   4.636   9.950  0.00  0.00    +0.000 A 
BRANCH   7   9
ATOM      9  C   UNL     1      45.695   2.830   8.378  0.00  0.00    +0.000 A 
ATOM     10  C   UNL     1      46.199   1.519   8.332  0.00  0.00    +0.000 A 
ATOM     11  C   UNL     1      46.971   1.073   7.252  0.00  0.00    +0.000 A 
ATOM     12  C   UNL     1      47.270   1.935   6.202  0.00  0.00    +0.000 A 
ATOM     13  C   UNL     1      46.798   3.243   6.230  0.00  0.00    +0.000 A 
ATOM     14  C   UNL     1      46.020   3.681   7.303  0.00  0.00    +0.000 A 
ENDBRANCH   7   9
ENDBRANCH   1   3
BRANCH   1  15
ATOM     15  C   UNL     1      45.026   6.607  12.689  0.00  0.00    +0.000 C 
BRANCH  15  18
ATOM     16  C   UNL     1      46.459  10.086  12.039  0.00  0.00    +0.000 A 
ATOM     17  C   UNL     1      45.561   9.054  12.313  0.00  0.00    +0.000 A 
ATOM     18  C   UNL     1      46.006   7.724  12.415  0.00  0.00    +0.000 A 
ATOM     19  C   UNL     1      47.376   7.452  12.288  0.00  0.00    +0.000 A 
ATOM     20  C   UNL     1      48.284   8.491  12.041  0.00  0.00    +0.000 A 
ATOM     21  C   UNL     1      47.817   9.798  11.892  0.00  0.00    +0.000 A 
BRANCH  16  23
ATOM     22  C   UNL     1      45.031  11.716  11.058  0.00  0.00    +0.000 C 
ATOM     23  O   UNL     1      46.154  11.406  11.871  0.00  0.00    +0.000 OA
ENDBRANCH  16  23
BRANCH  20  24
ATOM     24  C   UNL     1      49.718   8.158  11.882  0.00  0.00    +0.000 C 
ATOM     25  O   UNL     1      50.530   8.960  11.444  0.00  0.00    +0.000 OA
BRANCH  24  26
ATOM     26  O   UNL     1      50.045   6.894  12.218  0.00  0.00    +0.000 OA
ATOM     27  H   UNL     1      49.378   6.215  11.997  0.00  0.00    +0.000 HD
ENDBRANCH  24  26
ENDBRANCH  20  24
ENDBRANCH  15  18
ENDBRANCH   1  15
TORSDOF 7
ENDMDL
MODEL 5
REMARK VINA RESULT:    -7.557      1.798      2.179
REMARK INTER + INTRA:         -11.368
REMARK INTER:                 -10.645
REMARK INTRA:                  -0.723
REMARK UNBOUND:                -0.940
REMARK  Name = 
REMARK  8 active torsions:
REMARK  status: ('A' for Active; 'I' for Inactive)
REMARK    1  A    between atoms: C_1  and  O_2
REMARK    2  A    between atoms: O_2  and  C_3
REMARK    3  A    between atoms: C_5  and  C_6
REMARK    4  A    between atoms: C_6  and  N_7
REMARK    5  A    between atoms: N_7  and  C_8
REMARK    6  A    between atoms: C_12  and  C_13
REMARK    7  A    between atoms: C_21  and  C_22
REMARK    8  A    between atoms: C_22  and  O_24
REMARK                            x       y       z     vdW  Elec       q    Type
REMARK                         _______ _______ _______ _____ _____    ______ ____
ROOT
ATOM      1  N   UNL     1      44.871   5.761  12.532  0.00  0.00    +0.000 N 
ATOM      2  H   UNL     1      44.189   6.501  12.382  0.00  0.00    +0.000 HD
ENDROOT
BRANCH   1   3
ATOM      3  C   UNL     1      44.551   4.612  11.778  0.00  0.00    +0.000 A 
ATOM      4  C   UNL     1      43.516   3.732  12.106  0.00  0.00    +0.000 A 
ATOM      5  N   UNL     1      43.179   2.631  11.403  0.00  0.00    +0.000 NA
ATOM      6  C   UNL     1      43.895   2.400  10.280  0.00  0.00    +0.000 A 
ATOM      7  C   UNL     1      44.924   3.212   9.798  0.00  0.00    +0.000 A 
ATOM      8  C   UNL     1      45.211   4.357  10.568  0.00  0.00    +0.000 A 
BRANCH   7   9
ATOM      9  C   UNL     1      45.688   2.853   8.582  0.00  0.00    +0.000 A 
ATOM     10  C   UNL     1      46.156   1.548   8.355  0.00  0.00    +0.000 A 
ATOM     11  C   UNL     1      46.842   1.214   7.181  0.00  0.00    +0.000 A 
ATOM     12  C   UNL     1      47.088   2.183   6.214  0.00  0.00    +0.000 A 
ATOM     13  C   UNL     1      46.651   3.488   6.419  0.00  0.00    +0.000 A 
ATOM     14  C   UNL     1      45.958   3.815   7.587  0.00  0.00    +0.000 A 
ENDBRANCH   7   9
ENDBRANCH   1   3
BRANCH   1  15
ATOM     15  C   UNL     1      46.238   6.257  12.350  0.00  0.00    +0.000 C 
BRANCH  15  18
ATOM     16  C   UNL     1      48.600   6.947  15.269  0.00  0.00    +0.000 A 
ATOM     17  C   UNL     1      47.839   7.120  14.113  0.00  0.00    +0.000 A 
ATOM     18  C   UNL     1      47.043   6.073  13.615  0.00  0.00    +0.000 A 
ATOM     19  C   UNL     1      46.983   4.865  14.325  0.00  0.00    +0.000 A 
ATOM     20  C   UNL     1      47.725   4.699  15.503  0.00  0.00    +0.000 A 
ATOM     21  C   UNL     1      48.550   5.732  15.954  0.00  0.00    +0.000 A 
BRANCH  16  23
ATOM     22  C   UNL     1      49.866   7.624  17.166  0.00  0.00    +0.000 C 
ATOM     23  O   UNL     1      49.444   7.861  15.831  0.00  0.00    +0.000 OA
ENDBRANCH  16  23
BRANCH  20  24
ATOM     24  C   UNL     1      47.660   3.397  16.206  0.00  0.00    +0.000 C 
ATOM     25  O   UNL     1      48.415   2.473  15.941  0.00  0.00    +0.000 OA
BRANCH  24  26
ATOM     26  O   UNL     1      46.680   3.301  17.126  0.00  0.00    +0.000 OA
ATOM     27  H   UNL     1      46.974   3.340  18.058  0.00  0.00    +0.000 HD
ENDBRANCH  24  26
ENDBRANCH  20  24
ENDBRANCH  15  18
ENDBRANCH   1  15
TORSDOF 7
ENDMDL
MODEL 6
REMARK VINA RESULT:    -7.241      1.973      3.419
REMARK INTER + INTRA:         -10.932
REMARK INTER:                 -10.262
REMARK INTRA:                  -0.670
REMARK UNBOUND:                -0.940
REMARK  Name = 
REMARK  8 active torsions:
REMARK  status: ('A' for Active; 'I' for Inactive)
REMARK    1  A    between atoms: C_1  and  O_2
REMARK    2  A    between atoms: O_2  and  C_3
REMARK    3  A    between atoms: C_5  and  C_6
REMARK    4  A    between atoms: C_6  and  N_7
REMARK    5  A    between atoms: N_7  and  C_8
REMARK    6  A    between atoms: C_12  and  C_13
REMARK    7  A    between atoms: C_21  and  C_22
REMARK    8  A    between atoms: C_22  and  O_24
REMARK                            x       y       z     vdW  Elec       q    Type
REMARK                         _______ _______ _______ _____ _____    ______ ____
ROOT
ATOM      1  N   UNL     1      45.144   5.702  12.500  0.00  0.00    +0.000 N 
ATOM      2  H   UNL     1      44.632   6.544  12.244  0.00  0.00    +0.000 HD
ENDROOT
BRANCH   1   3
ATOM      3  C   UNL     1      44.717   4.596  11.734  0.00  0.00    +0.000 A 
ATOM      4  C   UNL     1      43.621   3.797  12.068  0.00  0.00    +0.000 A 
ATOM      5  N   UNL     1      43.183   2.739  11.354  0.00  0.00    +0.000 NA
ATOM      6  C   UNL     1      43.858   2.471  10.213  0.00  0.00    +0.000 A 
ATOM      7  C   UNL     1      44.940   3.205   9.724  0.00  0.00    +0.000 A 
ATOM      8  C   UNL     1      45.333   4.310  10.507  0.00  0.00    +0.000 A 
BRANCH   7   9
ATOM      9  C   UNL     1      45.650   2.808   8.488  0.00  0.00    +0.000 A 
ATOM     10  C   UNL     1      45.888   3.717   7.442  0.00  0.00    +0.000 A 
ATOM     11  C   UNL     1      46.596   3.338   6.295  0.00  0.00    +0.000 A 
ATOM     12  C   UNL     1      47.071   2.037   6.163  0.00  0.00    +0.000 A 
ATOM     13  C   UNL     1      46.836   1.112   7.175  0.00  0.00    +0.000 A 
ATOM     14  C   UNL     1      46.138   1.496   8.322  0.00  0.00    +0.000 A 
ENDBRANCH   7   9
ENDBRANCH   1   3
BRANCH   1  15
ATOM     15  C   UNL     1      46.590   5.938  12.492  0.00  0.00    +0.000 C 
BRANCH  15  18
ATOM     16  C   UNL     1      47.277   4.356  15.899  0.00  0.00    +0.000 A 
ATOM     17  C   UNL     1      46.754   4.582  14.625  0.00  0.00    +0.000 A 
ATOM     18  C   UNL     1      47.176   5.684  13.862  0.00  0.00    +0.000 A 
ATOM     19  C   UNL     1      48.171   6.529  14.375  0.00  0.00    +0.000 A 
ATOM     20  C   UNL     1      48.719   6.288  15.643  0.00  0.00    +0.000 A 
ATOM     21  C   UNL     1      48.250   5.218  16.408  0.00  0.00    +0.000 A 
BRANCH  16  23
ATOM     22  C   UNL     1      47.964   2.739  17.502  0.00  0.00    +0.000 C 
ATOM     23  O   UNL     1      46.923   3.355  16.757  0.00  0.00    +0.000 OA
ENDBRANCH  16  23
BRANCH  20  24
ATOM     24  C   UNL     1      49.743   7.222  16.164  0.00  0.00    +0.000 C 
ATOM     25  O   UNL     1      50.668   6.849  16.870  0.00  0.00    +0.000 OA
BRANCH  24  26
ATOM     26  O   UNL     1      49.551   8.514  15.832  0.00  0.00    +0.000 OA
ATOM     27  H   UNL     1      48.699   8.713  15.396  0.00  0.00    +0.000 HD
ENDBRANCH  24  26
ENDBRANCH  20  24
ENDBRANCH  15  18
ENDBRANCH   1  15
TORSDOF 7
ENDMDL
MODEL 7
REMARK VINA RESULT:    -7.135      2.320      3.671
REMARK INTER + INTRA:         -10.787
REMARK INTER:                 -10.057
REMARK INTRA:                  -0.730
REMARK UNBOUND:                -0.940
REMARK  Name = 
REMARK  8 active torsions:
REMARK  status: ('A' for Active; 'I' for Inactive)
REMARK    1  A    between atoms: C_1  and  O_2
REMARK    2  A    between atoms: O_2  and  C_3
REMARK    3  A    between atoms: C_5  and  C_6
REMARK    4  A    between atoms: C_6  and  N_7
REMARK    5  A    between atoms: N_7  and  C_8
REMARK    6  A    between atoms: C_12  and  C_13
REMARK    7  A    between atoms: C_21  and  C_22
REMARK    8  A    between atoms: C_22  and  O_24
REMARK                            x       y       z     vdW  Elec       q    Type
REMARK                         _______ _______ _______ _____ _____    ______ ____
ROOT
ATOM      1  N   UNL     1      44.563   5.967  12.330  0.00  0.00    +0.000 N 
ATOM      2  H   UNL     1      44.275   6.752  11.750  0.00  0.00    +0.000 HD
ENDROOT
BRANCH   1   3
ATOM      3  C   UNL     1      44.353   4.740  11.666  0.00  0.00    +0.000 A 
ATOM      4  C   UNL     1      43.419   3.785  12.075  0.00  0.00    +0.000 A 
ATOM      5  N   UNL     1      43.188   2.607  11.458  0.00  0.00    +0.000 NA
ATOM      6  C   UNL     1      43.912   2.370  10.342  0.00  0.00    +0.000 A 
ATOM      7  C   UNL     1      44.847   3.244   9.784  0.00  0.00    +0.000 A 
ATOM      8  C   UNL     1      45.023   4.466  10.465  0.00  0.00    +0.000 A 
BRANCH   7   9
ATOM      9  C   UNL     1      45.630   2.878   8.583  0.00  0.00    +0.000 A 
ATOM     10  C   UNL     1      45.961   3.821   7.594  0.00  0.00    +0.000 A 
ATOM     11  C   UNL     1      46.737   3.470   6.483  0.00  0.00    +0.000 A 
ATOM     12  C   UNL     1      47.188   2.163   6.329  0.00  0.00    +0.000 A 
ATOM     13  C   UNL     1      46.861   1.205   7.283  0.00  0.00    +0.000 A 
ATOM     14  C   UNL     1      46.096   1.561   8.395  0.00  0.00    +0.000 A 
ENDBRANCH   7   9
ENDBRANCH   1   3
BRANCH   1  15
ATOM     15  C   UNL     1      45.918   6.164  12.852  0.00  0.00    +0.000 C 
BRANCH  15  18
ATOM     16  C   UNL     1      48.229   9.165  12.374  0.00  0.00    +0.000 A 
ATOM     17  C   UNL     1      47.776   7.871  12.633  0.00  0.00    +0.000 A 
ATOM     18  C   UNL     1      46.407   7.561  12.549  0.00  0.00    +0.000 A 
ATOM     19  C   UNL     1      45.504   8.558  12.154  0.00  0.00    +0.000 A 
ATOM     20  C   UNL     1      45.960   9.852  11.866  0.00  0.00    +0.000 A 
ATOM     21  C   UNL     1      47.317  10.155  12.004  0.00  0.00    +0.000 A 
BRANCH  16  23
ATOM     22  C   UNL     1      50.460   9.048  11.559  0.00  0.00    +0.000 C 
ATOM     23  O   UNL     1      49.518   9.608  12.462  0.00  0.00    +0.000 OA
ENDBRANCH  16  23
BRANCH  20  24
ATOM     24  C   UNL     1      44.972  10.886  11.482  0.00  0.00    +0.000 C 
ATOM     25  O   UNL     1      43.921  11.041  12.087  0.00  0.00    +0.000 OA
BRANCH  24  26
ATOM     26  O   UNL     1      45.304  11.609  10.395  0.00  0.00    +0.000 OA
ATOM     27  H   UNL     1      46.258  11.794  10.289  0.00  0.00    +0.000 HD
ENDBRANCH  24  26
ENDBRANCH  20  24
ENDBRANCH  15  18
ENDBRANCH   1  15
TORSDOF 7
ENDMDL
MODEL 8
REMARK VINA RESULT:    -6.903      3.163      7.305
REMARK INTER + INTRA:         -10.466
REMARK INTER:                  -9.616
REMARK INTRA:                  -0.850
REMARK UNBOUND:                -0.940
REMARK  Name = 
REMARK  8 active torsions:
REMARK  status: ('A' for Active; 'I' for Inactive)
REMARK    1  A    between atoms: C_1  and  O_2
REMARK    2  A    between atoms: O_2  and  C_3
REMARK    3  A    between atoms: C_5  and  C_6
REMARK    4  A    between atoms: C_6  and  N_7
REMARK    5  A    between atoms: N_7  and  C_8
REMARK    6  A    between atoms: C_12  and  C_13
REMARK    7  A    between atoms: C_21  and  C_22
REMARK    8  A    between atoms: C_22  and  O_24
REMARK                            x       y       z     vdW  Elec       q    Type
REMARK                         _______ _______ _______ _____ _____    ______ ____
ROOT
ATOM      1  N   UNL     1      47.674   6.920  11.617  0.00  0.00    +0.000 N 
ATOM      2  H   UNL     1      48.164   7.504  10.943  0.00  0.00    +0.000 HD
ENDROOT
BRANCH   1   3
ATOM      3  C   UNL     1      48.176   7.118  12.922  0.00  0.00    +0.000 A 
ATOM      4  C   UNL     1      48.823   8.286  13.335  0.00  0.00    +0.000 A 
ATOM      5  N   UNL     1      49.306   8.510  14.576  0.00  0.00    +0.000 NA
ATOM      6  C   UNL     1      49.110   7.522  15.477  0.00  0.00    +0.000 A 
ATOM      7  C   UNL     1      48.442   6.322  15.228  0.00  0.00    +0.000 A 
ATOM      8  C   UNL     1      47.943   6.161  13.919  0.00  0.00    +0.000 A 
BRANCH   7   9
ATOM      9  C   UNL     1      48.316   5.274  16.266  0.00  0.00    +0.000 A 
ATOM     10  C   UNL     1      47.336   4.270  16.194  0.00  0.00    +0.000 A 
ATOM     11  C   UNL     1      47.254   3.262  17.163  0.00  0.00    +0.000 A 
ATOM     12  C   UNL     1      48.143   3.245  18.233  0.00  0.00    +0.000 A 
ATOM     13  C   UNL     1      49.113   4.236  18.338  0.00  0.00    +0.000 A 
ATOM     14  C   UNL     1      49.198   5.234  17.365  0.00  0.00    +0.000 A 
ENDBRANCH   7   9
ENDBRANCH   1   3
BRANCH   1  15
ATOM     15  C   UNL     1      46.222   7.063  11.486  0.00  0.00    +0.000 C 
BRANCH  15  18
ATOM     16  C   UNL     1      45.223   4.344   8.998  0.00  0.00    +0.000 A 
ATOM     17  C   UNL     1      45.799   5.492   9.545  0.00  0.00    +0.000 A 
ATOM     18  C   UNL     1      45.615   5.807  10.903  0.00  0.00    +0.000 A 
ATOM     19  C   UNL     1      44.886   4.928  11.716  0.00  0.00    +0.000 A 
ATOM     20  C   UNL     1      44.331   3.760  11.174  0.00  0.00    +0.000 A 
ATOM     21  C   UNL     1      44.481   3.489   9.813  0.00  0.00    +0.000 A 
BRANCH  16  23
ATOM     22  C   UNL     1      46.560   3.572   7.188  0.00  0.00    +0.000 C 
ATOM     23  O   UNL     1      45.287   3.947   7.693  0.00  0.00    +0.000 OA
ENDBRANCH  16  23
BRANCH  20  24
ATOM     24  C   UNL     1      43.540   2.872  12.058  0.00  0.00    +0.000 C 
ATOM     25  O   UNL     1      43.555   2.982  13.276  0.00  0.00    +0.000 OA
BRANCH  24  26
ATOM     26  O   UNL     1      42.841   1.915  11.418  0.00  0.00    +0.000 OA
ATOM     27  H   UNL     1      42.266   1.365  11.985  0.00  0.00    +0.000 HD
ENDBRANCH  24  26
ENDBRANCH  20  24
ENDBRANCH  15  18
ENDBRANCH   1  15
TORSDOF 7
ENDMDL
MODEL 9
REMARK VINA RESULT:    -6.672      4.508      8.045
REMARK INTER + INTRA:         -10.147
REMARK INTER:                  -9.590
REMARK INTRA:                  -0.557
REMARK UNBOUND:                -0.940
REMARK  Name = 
REMARK  8 active torsions:
REMARK  status: ('A' for Active; 'I' for Inactive)
REMARK    1  A    between atoms: C_1  and  O_2
REMARK    2  A    between atoms: O_2  and  C_3
REMARK    3  A    between atoms: C_5  and  C_6
REMARK    4  A    between atoms: C_6  and  N_7
REMARK    5  A    between atoms: N_7  and  C_8
REMARK    6  A    between atoms: C_12  and  C_13
REMARK    7  A    between atoms: C_21  and  C_22
REMARK    8  A    between atoms: C_22  and  O_24
REMARK                            x       y       z     vdW  Elec       q    Type
REMARK                         _______ _______ _______ _____ _____    ______ ____
ROOT
ATOM      1  N   UNL     1      46.560   4.237  15.561  0.00  0.00    +0.000 N 
ATOM      2  H   UNL     1      46.090   3.336  15.505  0.00  0.00    +0.000 HD
ENDROOT
BRANCH   1   3
ATOM      3  C   UNL     1      47.421   4.293  16.679  0.00  0.00    +0.000 A 
ATOM      4  C   UNL     1      47.100   4.943  17.874  0.00  0.00    +0.000 A 
ATOM      5  N   UNL     1      47.896   5.007  18.962  0.00  0.00    +0.000 NA
ATOM      6  C   UNL     1      49.079   4.360  18.872  0.00  0.00    +0.000 A 
ATOM      7  C   UNL     1      49.518   3.630  17.765  0.00  0.00    +0.000 A 
ATOM      8  C   UNL     1      48.630   3.584  16.671  0.00  0.00    +0.000 A 
BRANCH   7   9
ATOM      9  C   UNL     1      50.854   2.992  17.738  0.00  0.00    +0.000 A 
ATOM     10  C   UNL     1      52.020   3.693  18.091  0.00  0.00    +0.000 A 
ATOM     11  C   UNL     1      53.272   3.065  18.100  0.00  0.00    +0.000 A 
ATOM     12  C   UNL     1      53.386   1.726  17.742  0.00  0.00    +0.000 A 
ATOM     13  C   UNL     1      52.251   1.013  17.372  0.00  0.00    +0.000 A 
ATOM     14  C   UNL     1      51.003   1.639  17.374  0.00  0.00    +0.000 A 
ENDBRANCH   7   9
ENDBRANCH   1   3
BRANCH   1  15
ATOM     15  C   UNL     1      47.183   4.591  14.283  0.00  0.00    +0.000 C 
BRANCH  15  18
ATOM     16  C   UNL     1      44.802   6.447  11.946  0.00  0.00    +0.000 A 
ATOM     17  C   UNL     1      45.790   6.189  12.897  0.00  0.00    +0.000 A 
ATOM     18  C   UNL     1      46.129   4.867  13.236  0.00  0.00    +0.000 A 
ATOM     19  C   UNL     1      45.497   3.807  12.570  0.00  0.00    +0.000 A 
ATOM     20  C   UNL     1      44.524   4.065  11.593  0.00  0.00    +0.000 A 
ATOM     21  C   UNL     1      44.164   5.383  11.306  0.00  0.00    +0.000 A 
BRANCH  16  23
ATOM     22  C   UNL     1      45.176   8.794  11.844  0.00  0.00    +0.000 C 
ATOM     23  O   UNL     1      44.349   7.676  11.558  0.00  0.00    +0.000 OA
ENDBRANCH  16  23
BRANCH  20  24
ATOM     24  C   UNL     1      43.856   2.919  10.935  0.00  0.00    +0.000 C 
ATOM     25  O   UNL     1      43.941   2.716   9.733  0.00  0.00    +0.000 OA
BRANCH  24  26
ATOM     26  O   UNL     1      43.120   2.146  11.758  0.00  0.00    +0.000 OA
ATOM     27  H   UNL     1      42.443   2.617  12.283  0.00  0.00    +0.000 HD
ENDBRANCH  24  26
ENDBRANCH  20  24
ENDBRANCH  15  18
ENDBRANCH   1  15
TORSDOF 7
ENDMDL
