MODEL 1
REMARK VINA RESULT:    -8.381      0.000      0.000
REMARK INTER + INTRA:         -10.839
REMARK INTER:                 -10.341
REMARK INTRA:                  -0.498
REMARK UNBOUND:                -0.498
REMARK  Name = 
REMARK  4 active torsions:
REMARK  status: ('A' for Active; 'I' for Inactive)
REMARK    1  A    between atoms: C_2  and  C_4
REMARK    2  A    between atoms: C_7  and  S_8
REMARK    3  A    between atoms: S_8  and  C_9
REMARK    4  A    between atoms: C_9  and  C_10
REMARK                            x       y       z     vdW  Elec       q    Type
REMARK                         _______ _______ _______ _____ _____    ______ ____
ROOT
ATOM      1  C   UNL     1      44.488   4.396  12.319  0.00  0.00    +0.000 C 
ENDROOT
BRANCH   1   2
ATOM      2  C   UNL     1      45.774   4.916  12.911  0.00  0.00    +0.000 A 
ATOM      3  C   UNL     1      46.594   5.797  12.214  0.00  0.00    +0.000 A 
ATOM      4  C   UNL     1      47.730   6.270  12.849  0.00  0.00    +0.000 A 
ATOM      5  N   UNL     1      48.097   5.935  14.108  0.00  0.00    +0.000 NA
ATOM      6  C   UNL     1      47.333   5.049  14.780  0.00  0.00    +0.000 A 
ATOM      7  N   UNL     1      47.665   4.704  16.073  0.00  0.00    +0.000 N 
ATOM      8  C   UNL     1      48.472   5.604  16.904  0.00  0.00    +0.000 C 
ATOM      9  C   UNL     1      49.820   4.973  17.283  0.00  0.00    +0.000 C 
ATOM     10  O   UNL     1      49.656   3.656  17.838  0.00  0.00    +0.000 OA
ATOM     11  C   UNL     1      49.021   2.801  16.877  0.00  0.00    +0.000 C 
ATOM     12  C   UNL     1      47.618   3.305  16.509  0.00  0.00    +0.000 C 
ATOM     13  C   UNL     1      46.174   4.527  14.195  0.00  0.00    +0.000 A 
ENDBRANCH   1   2
BRANCH   1  14
ATOM     14  S   UNL     1      44.168   5.109  10.675  0.00  0.00    +0.000 S 
BRANCH  14  18
ATOM     15  C   UNL     1      46.486   2.481   7.674  0.00  0.00    +0.000 A 
ATOM     16  C   UNL     1      45.706   1.851   8.652  0.00  0.00    +0.000 A 
ATOM     17  C   UNL     1      44.982   2.615   9.582  0.00  0.00    +0.000 A 
ATOM     18  C   UNL     1      45.027   4.013   9.549  0.00  0.00    +0.000 A 
ATOM     19  C   UNL     1      45.813   4.631   8.563  0.00  0.00    +0.000 A 
ATOM     20  C   UNL     1      46.540   3.874   7.637  0.00  0.00    +0.000 A 
BRANCH  15  22
ATOM     21  N   UNL     1      48.284   2.395   6.029  0.00  0.00    +0.000 N 
ATOM     22  C   UNL     1      47.297   1.716   6.691  0.00  0.00    +0.000 C 
ATOM     23  O   UNL     1      47.125   0.520   6.500  0.00  0.00    +0.000 OA
ATOM     24  H   UNL     1      48.893   1.834   5.447  0.00  0.00    +0.000 HD
ATOM     25  H   UNL     1      48.634   3.287   6.349  0.00  0.00    +0.000 HD
ENDBRANCH  15  22
ENDBRANCH  14  18
ENDBRANCH   1  14
TORSDOF 4
ENDMDL
MODEL 2
REMARK VINA RESULT:    -8.177      2.493      3.620
REMARK INTER + INTRA:         -10.587
REMARK INTER:                  -9.930
REMARK INTRA:                  -0.656
REMARK UNBOUND:                -0.498
REMARK  Name = 
REMARK  4 active torsions:
REMARK  status: ('A' for Active; 'I' for Inactive)
REMARK    1  A    between atoms: C_2  and  C_4
REMARK    2  A    between atoms: C_7  and  S_8
REMARK    3  A    between atoms: S_8  and  C_9
REMARK    4  A    between atoms: C_9  and  C_10
REMARK                            x       y       z     vdW  Elec       q    Type
REMARK                         _______ _______ _______ _____ _____    ______ ____
ROOT
ATOM      1  C   UNL     1      43.877   5.334  11.548  0.00  0.00    +0.000 C 
ENDROOT
BRANCH   1   2
ATOM      2  C   UNL     1      45.213   5.409  12.243  0.00  0.00    +0.000 A 
ATOM      3  C   UNL     1      45.622   4.434  13.147  0.00  0.00    +0.000 A 
ATOM      4  C   UNL     1      46.887   4.548  13.700  0.00  0.00    +0.000 A 
ATOM      5  N   UNL     1      47.757   5.546  13.418  0.00  0.00    +0.000 NA
ATOM      6  C   UNL     1      47.358   6.521  12.575  0.00  0.00    +0.000 A 
ATOM      7  N   UNL     1      48.228   7.539  12.247  0.00  0.00    +0.000 N 
ATOM      8  C   UNL     1      49.678   7.347  12.353  0.00  0.00    +0.000 C 
ATOM      9  C   UNL     1      50.302   8.284  13.397  0.00  0.00    +0.000 C 
ATOM     10  O   UNL     1      49.907   9.652  13.190  0.00  0.00    +0.000 OA
ATOM     11  C   UNL     1      48.480   9.765  13.289  0.00  0.00    +0.000 C 
ATOM     12  C   UNL     1      47.770   8.931  12.213  0.00  0.00    +0.000 C 
ATOM     13  C   UNL     1      46.090   6.470  11.984  0.00  0.00    +0.000 A 
ENDBRANCH   1   2
BRANCH   1  14
ATOM     14  S   UNL     1      43.508   3.642  10.984  0.00  0.00    +0.000 S 
BRANCH  14  18
ATOM     15  C   UNL     1      46.428   2.714   7.536  0.00  0.00    +0.000 A 
ATOM     16  C   UNL     1      46.068   4.047   7.767  0.00  0.00    +0.000 A 
ATOM     17  C   UNL     1      45.185   4.372   8.809  0.00  0.00    +0.000 A 
ATOM     18  C   UNL     1      44.650   3.374   9.631  0.00  0.00    +0.000 A 
ATOM     19  C   UNL     1      45.020   2.043   9.389  0.00  0.00    +0.000 A 
ATOM     20  C   UNL     1      45.896   1.712   8.348  0.00  0.00    +0.000 A 
BRANCH  15  22
ATOM     21  N   UNL     1      47.376   3.135   5.329  0.00  0.00    +0.000 N 
ATOM     22  C   UNL     1      47.332   2.316   6.424  0.00  0.00    +0.000 C 
ATOM     23  O   UNL     1      48.040   1.321   6.490  0.00  0.00    +0.000 OA
ATOM     24  H   UNL     1      48.075   2.907   4.633  0.00  0.00    +0.000 HD
ATOM     25  H   UNL     1      47.031   4.084   5.349  0.00  0.00    +0.000 HD
ENDBRANCH  15  22
ENDBRANCH  14  18
ENDBRANCH   1  14
TORSDOF 4
ENDMDL
MODEL 3
REMARK VINA RESULT:    -6.897      2.831      3.320
REMARK INTER + INTRA:          -9.008
REMARK INTER:                  -8.444
REMARK INTRA:                  -0.564
REMARK UNBOUND:                -0.498
REMARK  Name = 
REMARK  4 active torsions:
REMARK  status: ('A' for Active; 'I' for Inactive)
REMARK    1  A    between atoms: C_2  and  C_4
REMARK    2  A    between atoms: C_7  and  S_8
REMARK    3  A    between atoms: S_8  and  C_9
REMARK    4  A    between atoms: C_9  and  C_10
REMARK                            x       y       z     vdW  Elec       q    Type
REMARK                         _______ _______ _______ _____ _____    ______ ____
ROOT
ATOM      1  C   UNL     1      43.387   6.119  10.871  0.00  0.00    +0.000 C 
ENDROOT
BRANCH   1   2
ATOM      2  C   UNL     1      44.291   7.206  11.395  0.00  0.00    +0.000 A 
ATOM      3  C   UNL     1      43.983   8.553  11.233  0.00  0.00    +0.000 A 
ATOM      4  C   UNL     1      44.838   9.489  11.792  0.00  0.00    +0.000 A 
ATOM      5  N   UNL     1      45.956   9.181  12.488  0.00  0.00    +0.000 NA
ATOM      6  C   UNL     1      46.290   7.880  12.617  0.00  0.00    +0.000 A 
ATOM      7  N   UNL     1      47.410   7.531  13.341  0.00  0.00    +0.000 N 
ATOM      8  C   UNL     1      47.944   8.427  14.372  0.00  0.00    +0.000 C 
ATOM      9  C   UNL     1      49.355   8.921  14.022  0.00  0.00    +0.000 C 
ATOM     10  O   UNL     1      50.233   7.833  13.683  0.00  0.00    +0.000 OA
ATOM     11  C   UNL     1      49.715   7.128  12.545  0.00  0.00    +0.000 C 
ATOM     12  C   UNL     1      48.338   6.514  12.838  0.00  0.00    +0.000 C 
ATOM     13  C   UNL     1      45.473   6.883  12.073  0.00  0.00    +0.000 A 
ENDBRANCH   1   2
BRANCH   1  14
ATOM     14  S   UNL     1      43.888   4.477  11.479  0.00  0.00    +0.000 S 
BRANCH  14  18
ATOM     15  C   UNL     1      46.094   2.771   7.805  0.00  0.00    +0.000 A 
ATOM     16  C   UNL     1      45.550   1.876   8.734  0.00  0.00    +0.000 A 
ATOM     17  C   UNL     1      44.867   2.355   9.864  0.00  0.00    +0.000 A 
ATOM     18  C   UNL     1      44.720   3.729  10.082  0.00  0.00    +0.000 A 
ATOM     19  C   UNL     1      45.269   4.614   9.142  0.00  0.00    +0.000 A 
ATOM     20  C   UNL     1      45.955   4.143   8.017  0.00  0.00    +0.000 A 
BRANCH  15  22
ATOM     21  N   UNL     1      47.168   3.255   5.670  0.00  0.00    +0.000 N 
ATOM     22  C   UNL     1      46.854   2.313   6.612  0.00  0.00    +0.000 C 
ATOM     23  O   UNL     1      47.223   1.154   6.485  0.00  0.00    +0.000 OA
ATOM     24  H   UNL     1      47.777   2.947   4.923  0.00  0.00    +0.000 HD
ATOM     25  H   UNL     1      47.128   4.246   5.862  0.00  0.00    +0.000 HD
ENDBRANCH  15  22
ENDBRANCH  14  18
ENDBRANCH   1  14
TORSDOF 4
ENDMDL
MODEL 4
REMARK VINA RESULT:    -6.708      2.875      3.841
REMARK INTER + INTRA:          -8.774
REMARK INTER:                  -8.184
REMARK INTRA:                  -0.590
REMARK UNBOUND:                -0.498
REMARK  Name = 
REMARK  4 active torsions:
REMARK  status: ('A' for Active; 'I' for Inactive)
REMARK    1  A    between atoms: C_2  and  C_4
REMARK    2  A    between atoms: C_7  and  S_8
REMARK    3  A    between atoms: S_8  and  C_9
REMARK    4  A    between atoms: C_9  and  C_10
REMARK                            x       y       z     vdW  Elec       q    Type
REMARK                         _______ _______ _______ _____ _____    ______ ____
ROOT
ATOM      1  C   UNL     1      48.147   7.889  12.386  0.00  0.00    +0.000 C 
ENDROOT
BRANCH   1   2
ATOM      2  C   UNL     1      48.857   7.414  13.629  0.00  0.00    +0.000 A 
ATOM      3  C   UNL     1      50.150   7.827  13.934  0.00  0.00    +0.000 A 
ATOM      4  C   UNL     1      50.711   7.389  15.122  0.00  0.00    +0.000 A 
ATOM      5  N   UNL     1      50.083   6.585  16.012  0.00  0.00    +0.000 NA
ATOM      6  C   UNL     1      48.845   6.143  15.709  0.00  0.00    +0.000 A 
ATOM      7  N   UNL     1      48.167   5.342  16.604  0.00  0.00    +0.000 N 
ATOM      8  C   UNL     1      48.499   5.370  18.032  0.00  0.00    +0.000 C 
ATOM      9  C   UNL     1      49.037   4.017  18.519  0.00  0.00    +0.000 C 
ATOM     10  O   UNL     1      48.173   2.931  18.142  0.00  0.00    +0.000 OA
ATOM     11  C   UNL     1      48.060   2.875  16.712  0.00  0.00    +0.000 C 
ATOM     12  C   UNL     1      47.436   4.158  16.143  0.00  0.00    +0.000 C 
ATOM     13  C   UNL     1      48.221   6.543  14.522  0.00  0.00    +0.000 A 
ENDBRANCH   1   2
BRANCH   1  14
ATOM     14  S   UNL     1      46.353   8.049  12.656  0.00  0.00    +0.000 S 
BRANCH  14  18
ATOM     15  C   UNL     1      44.527   4.050  11.259  0.00  0.00    +0.000 A 
ATOM     16  C   UNL     1      45.150   4.869  10.310  0.00  0.00    +0.000 A 
ATOM     17  C   UNL     1      45.722   6.092  10.695  0.00  0.00    +0.000 A 
ATOM     18  C   UNL     1      45.678   6.514  12.028  0.00  0.00    +0.000 A 
ATOM     19  C   UNL     1      45.052   5.683  12.969  0.00  0.00    +0.000 A 
ATOM     20  C   UNL     1      44.476   4.465  12.590  0.00  0.00    +0.000 A 
BRANCH  15  22
ATOM     21  N   UNL     1      44.411   2.067   9.844  0.00  0.00    +0.000 N 
ATOM     22  C   UNL     1      43.877   2.763  10.894  0.00  0.00    +0.000 C 
ATOM     23  O   UNL     1      42.929   2.315  11.524  0.00  0.00    +0.000 OA
ATOM     24  H   UNL     1      44.024   1.146   9.681  0.00  0.00    +0.000 HD
ATOM     25  H   UNL     1      45.336   2.256   9.485  0.00  0.00    +0.000 HD
ENDBRANCH  15  22
ENDBRANCH  14  18
ENDBRANCH   1  14
TORSDOF 4
ENDMDL
MODEL 5
REMARK VINA RESULT:    -6.627      2.928      3.827
REMARK INTER + INTRA:          -8.674
REMARK INTER:                  -8.124
REMARK INTRA:                  -0.550
REMARK UNBOUND:                -0.498
REMARK  Name = 
REMARK  4 active torsions:
REMARK  status: ('A' for Active; 'I' for Inactive)
REMARK    1  A    between atoms: C_2  and  C_4
REMARK    2  A    between atoms: C_7  and  S_8
REMARK    3  A    between atoms: S_8  and  C_9
REMARK    4  A    between atoms: C_9  and  C_10
REMARK                            x       y       z     vdW  Elec       q    Type
REMARK                         _______ _______ _______ _____ _____    ______ ____
ROOT
ATOM      1  C   UNL     1      48.305   7.679  12.408  0.00  0.00    +0.000 C 
ENDROOT
BRANCH   1   2
ATOM      2  C   UNL     1      48.958   7.316  13.718  0.00  0.00    +0.000 A 
ATOM      3  C   UNL     1      50.209   7.811  14.072  0.00  0.00    +0.000 A 
ATOM      4  C   UNL     1      50.715   7.473  15.317  0.00  0.00    +0.000 A 
ATOM      5  N   UNL     1      50.072   6.693  16.216  0.00  0.00    +0.000 NA
ATOM      6  C   UNL     1      48.877   6.172  15.870  0.00  0.00    +0.000 A 
ATOM      7  N   UNL     1      48.184   5.393  16.772  0.00  0.00    +0.000 N 
ATOM      8  C   UNL     1      48.424   5.523  18.212  0.00  0.00    +0.000 C 
ATOM      9  C   UNL     1      48.994   4.231  18.814  0.00  0.00    +0.000 C 
ATOM     10  O   UNL     1      48.207   3.082  18.455  0.00  0.00    +0.000 OA
ATOM     11  C   UNL     1      48.185   2.935  17.028  0.00  0.00    +0.000 C 
ATOM     12  C   UNL     1      47.539   4.148  16.343  0.00  0.00    +0.000 C 
ATOM     13  C   UNL     1      48.310   6.468  14.625  0.00  0.00    +0.000 A 
ENDBRANCH   1   2
BRANCH   1  14
ATOM     14  S   UNL     1      46.535   8.047  12.619  0.00  0.00    +0.000 S 
BRANCH  14  18
ATOM     15  C   UNL     1      44.499   4.083  11.426  0.00  0.00    +0.000 A 
ATOM     16  C   UNL     1      44.512   4.448  12.778  0.00  0.00    +0.000 A 
ATOM     17  C   UNL     1      45.118   5.649  13.182  0.00  0.00    +0.000 A 
ATOM     18  C   UNL     1      45.719   6.498  12.246  0.00  0.00    +0.000 A 
ATOM     19  C   UNL     1      45.698   6.119  10.895  0.00  0.00    +0.000 A 
ATOM     20  C   UNL     1      45.100   4.921  10.487  0.00  0.00    +0.000 A 
BRANCH  15  22
ATOM     21  N   UNL     1      44.511   2.181   9.901  0.00  0.00    +0.000 N 
ATOM     22  C   UNL     1      43.901   2.806  10.954  0.00  0.00    +0.000 C 
ATOM     23  O   UNL     1      42.928   2.306  11.500  0.00  0.00    +0.000 OA
ATOM     24  H   UNL     1      44.156   1.263   9.665  0.00  0.00    +0.000 HD
ATOM     25  H   UNL     1      45.451   2.406   9.608  0.00  0.00    +0.000 HD
ENDBRANCH  15  22
ENDBRANCH  14  18
ENDBRANCH   1  14
TORSDOF 4
ENDMDL
MODEL 6
REMARK VINA RESULT:    -6.432      3.617      8.138
REMARK INTER + INTRA:          -8.434
REMARK INTER:                  -8.079
REMARK INTRA:                  -0.355
REMARK UNBOUND:                -0.498
REMARK  Name = 
REMARK  4 active torsions:
REMARK  status: ('A' for Active; 'I' for Inactive)
REMARK    1  A    between atoms: C_2  and  C_4
REMARK    2  A    between atoms: C_7  and  S_8
REMARK    3  A    between atoms: S_8  and  C_9
REMARK    4  A    between atoms: C_9  and  C_10
REMARK                            x       y       z     vdW  Elec       q    Type
REMARK                         _______ _______ _______ _____ _____    ______ ____
ROOT
ATOM      1  C   UNL     1      48.943   6.677  15.054  0.00  0.00    +0.000 C 
ENDROOT
BRANCH   1   2
ATOM      2  C   UNL     1      47.781   6.889  14.117  0.00  0.00    +0.000 A 
ATOM      3  C   UNL     1      47.257   8.155  13.879  0.00  0.00    +0.000 A 
ATOM      4  C   UNL     1      46.225   8.272  12.962  0.00  0.00    +0.000 A 
ATOM      5  N   UNL     1      45.690   7.233  12.279  0.00  0.00    +0.000 NA
ATOM      6  C   UNL     1      46.160   5.994  12.531  0.00  0.00    +0.000 A 
ATOM      7  N   UNL     1      45.655   4.917  11.834  0.00  0.00    +0.000 N 
ATOM      8  C   UNL     1      45.029   5.102  10.521  0.00  0.00    +0.000 C 
ATOM      9  C   UNL     1      43.543   4.717  10.538  0.00  0.00    +0.000 C 
ATOM     10  O   UNL     1      43.336   3.410  11.104  0.00  0.00    +0.000 OA
ATOM     11  C   UNL     1      43.817   3.386  12.456  0.00  0.00    +0.000 C 
ATOM     12  C   UNL     1      45.325   3.667  12.526  0.00  0.00    +0.000 C 
ATOM     13  C   UNL     1      47.199   5.804  13.449  0.00  0.00    +0.000 A 
ENDBRANCH   1   2
BRANCH   1  14
ATOM     14  S   UNL     1      48.400   6.009  16.659  0.00  0.00    +0.000 S 
BRANCH  14  18
ATOM     15  C   UNL     1      51.295   2.523  17.522  0.00  0.00    +0.000 A 
ATOM     16  C   UNL     1      51.763   3.834  17.670  0.00  0.00    +0.000 A 
ATOM     17  C   UNL     1      50.912   4.923  17.422  0.00  0.00    +0.000 A 
ATOM     18  C   UNL     1      49.587   4.719  17.021  0.00  0.00    +0.000 A 
ATOM     19  C   UNL     1      49.131   3.400  16.876  0.00  0.00    +0.000 A 
ATOM     20  C   UNL     1      49.976   2.311  17.118  0.00  0.00    +0.000 A 
BRANCH  15  22
ATOM     21  N   UNL     1      51.564   0.189  18.174  0.00  0.00    +0.000 N 
ATOM     22  C   UNL     1      52.166   1.338  17.740  0.00  0.00    +0.000 C 
ATOM     23  O   UNL     1      53.367   1.366  17.508  0.00  0.00    +0.000 OA
ATOM     24  H   UNL     1      52.154  -0.633  18.213  0.00  0.00    +0.000 HD
ATOM     25  H   UNL     1      50.566   0.045  18.113  0.00  0.00    +0.000 HD
ENDBRANCH  15  22
ENDBRANCH  14  18
ENDBRANCH   1  14
TORSDOF 4
ENDMDL
MODEL 7
REMARK VINA RESULT:    -6.203      3.763      8.509
REMARK INTER + INTRA:          -8.151
REMARK INTER:                  -7.737
REMARK INTRA:                  -0.414
REMARK UNBOUND:                -0.498
REMARK  Name = 
REMARK  4 active torsions:
REMARK  status: ('A' for Active; 'I' for Inactive)
REMARK    1  A    between atoms: C_2  and  C_4
REMARK    2  A    between atoms: C_7  and  S_8
REMARK    3  A    between atoms: S_8  and  C_9
REMARK    4  A    between atoms: C_9  and  C_10
REMARK                            x       y       z     vdW  Elec       q    Type
REMARK                         _______ _______ _______ _____ _____    ______ ____
ROOT
ATOM      1  C   UNL     1      47.655   4.518  16.567  0.00  0.00    +0.000 C 
ENDROOT
BRANCH   1   2
ATOM      2  C   UNL     1      47.378   5.027  15.175  0.00  0.00    +0.000 A 
ATOM      3  C   UNL     1      48.203   5.964  14.562  0.00  0.00    +0.000 A 
ATOM      4  C   UNL     1      47.910   6.339  13.261  0.00  0.00    +0.000 A 
ATOM      5  N   UNL     1      46.872   5.852  12.541  0.00  0.00    +0.000 NA
ATOM      6  C   UNL     1      46.039   4.974  13.137  0.00  0.00    +0.000 A 
ATOM      7  N   UNL     1      44.986   4.440  12.426  0.00  0.00    +0.000 N 
ATOM      8  C   UNL     1      45.027   4.380  10.961  0.00  0.00    +0.000 C 
ATOM      9  C   UNL     1      43.926   5.239  10.324  0.00  0.00    +0.000 C 
ATOM     10  O   UNL     1      42.633   4.951  10.884  0.00  0.00    +0.000 OA
ATOM     11  C   UNL     1      42.644   5.217  12.294  0.00  0.00    +0.000 C 
ATOM     12  C   UNL     1      43.655   4.327  13.031  0.00  0.00    +0.000 C 
ATOM     13  C   UNL     1      46.274   4.556  14.452  0.00  0.00    +0.000 A 
ENDBRANCH   1   2
BRANCH   1  14
ATOM     14  S   UNL     1      49.038   5.411  17.345  0.00  0.00    +0.000 S 
BRANCH  14  18
ATOM     15  C   UNL     1      52.170   2.047  17.732  0.00  0.00    +0.000 A 
ATOM     16  C   UNL     1      52.582   3.371  17.930  0.00  0.00    +0.000 A 
ATOM     17  C   UNL     1      51.658   4.424  17.826  0.00  0.00    +0.000 A 
ATOM     18  C   UNL     1      50.316   4.171  17.521  0.00  0.00    +0.000 A 
ATOM     19  C   UNL     1      49.918   2.839  17.325  0.00  0.00    +0.000 A 
ATOM     20  C   UNL     1      50.835   1.786  17.424  0.00  0.00    +0.000 A 
BRANCH  15  22
ATOM     21  N   UNL     1      52.631  -0.285  18.273  0.00  0.00    +0.000 N 
ATOM     22  C   UNL     1      53.117   0.902  17.798  0.00  0.00    +0.000 C 
ATOM     23  O   UNL     1      54.274   0.995  17.410  0.00  0.00    +0.000 OA
ATOM     24  H   UNL     1      53.258  -1.077  18.208  0.00  0.00    +0.000 HD
ATOM     25  H   UNL     1      51.642  -0.477  18.339  0.00  0.00    +0.000 HD
ENDBRANCH  15  22
ENDBRANCH  14  18
ENDBRANCH   1  14
TORSDOF 4
ENDMDL
MODEL 8
REMARK VINA RESULT:    -5.563      3.456      8.321
REMARK INTER + INTRA:          -7.361
REMARK INTER:                  -6.836
REMARK INTRA:                  -0.526
REMARK UNBOUND:                -0.498
REMARK  Name = 
REMARK  4 active torsions:
REMARK  status: ('A' for Active; 'I' for Inactive)
REMARK    1  A    between atoms: C_2  and  C_4
REMARK    2  A    between atoms: C_7  and  S_8
REMARK    3  A    between atoms: S_8  and  C_9
REMARK    4  A    between atoms: C_9  and  C_10
REMARK                            x       y       z     vdW  Elec       q    Type
REMARK                         _______ _______ _______ _____ _____    ______ ____
ROOT
ATOM      1  C   UNL     1      48.017   8.738  14.151  0.00  0.00    +0.000 C 
ENDROOT
BRANCH   1   2
ATOM      2  C   UNL     1      46.898   8.353  13.217  0.00  0.00    +0.000 A 
ATOM      3  C   UNL     1      46.036   9.303  12.679  0.00  0.00    +0.000 A 
ATOM      4  C   UNL     1      45.068   8.874  11.786  0.00  0.00    +0.000 A 
ATOM      5  N   UNL     1      44.904   7.587  11.398  0.00  0.00    +0.000 NA
ATOM      6  C   UNL     1      45.706   6.649  11.944  0.00  0.00    +0.000 A 
ATOM      7  N   UNL     1      45.582   5.333  11.553  0.00  0.00    +0.000 N 
ATOM      8  C   UNL     1      45.003   4.992  10.249  0.00  0.00    +0.000 C 
ATOM      9  C   UNL     1      43.699   4.194  10.396  0.00  0.00    +0.000 C 
ATOM     10  O   UNL     1      43.859   3.068  11.277  0.00  0.00    +0.000 OA
ATOM     11  C   UNL     1      44.249   3.523  12.581  0.00  0.00    +0.000 C 
ATOM     12  C   UNL     1      45.599   4.254  12.545  0.00  0.00    +0.000 C 
ATOM     13  C   UNL     1      46.701   7.014  12.857  0.00  0.00    +0.000 A 
ENDBRANCH   1   2
BRANCH   1  14
ATOM     14  S   UNL     1      49.491   7.699  13.899  0.00  0.00    +0.000 S 
BRANCH  14  18
ATOM     15  C   UNL     1      49.791   5.379  17.875  0.00  0.00    +0.000 A 
ATOM     16  C   UNL     1      50.878   6.166  17.476  0.00  0.00    +0.000 A 
ATOM     17  C   UNL     1      50.825   6.891  16.275  0.00  0.00    +0.000 A 
ATOM     18  C   UNL     1      49.690   6.839  15.457  0.00  0.00    +0.000 A 
ATOM     19  C   UNL     1      48.608   6.047  15.870  0.00  0.00    +0.000 A 
ATOM     20  C   UNL     1      48.657   5.319  17.064  0.00  0.00    +0.000 A 
BRANCH  15  22
ATOM     21  N   UNL     1      51.036   4.184  19.598  0.00  0.00    +0.000 N 
ATOM     22  C   UNL     1      49.813   4.567  19.121  0.00  0.00    +0.000 C 
ATOM     23  O   UNL     1      48.788   4.278  19.724  0.00  0.00    +0.000 OA
ATOM     24  H   UNL     1      51.036   3.727  20.500  0.00  0.00    +0.000 HD
ATOM     25  H   UNL     1      51.895   4.622  19.296  0.00  0.00    +0.000 HD
ENDBRANCH  15  22
ENDBRANCH  14  18
ENDBRANCH   1  14
TORSDOF 4
ENDMDL
MODEL 9
REMARK VINA RESULT:    -5.482      4.465      5.344
REMARK INTER + INTRA:          -7.261
REMARK INTER:                  -6.572
REMARK INTRA:                  -0.689
REMARK UNBOUND:                -0.498
REMARK  Name = 
REMARK  4 active torsions:
REMARK  status: ('A' for Active; 'I' for Inactive)
REMARK    1  A    between atoms: C_2  and  C_4
REMARK    2  A    between atoms: C_7  and  S_8
REMARK    3  A    between atoms: S_8  and  C_9
REMARK    4  A    between atoms: C_9  and  C_10
REMARK                            x       y       z     vdW  Elec       q    Type
REMARK                         _______ _______ _______ _____ _____    ______ ____
ROOT
ATOM      1  C   UNL     1      49.695   7.510  13.591  0.00  0.00    +0.000 C 
ENDROOT
BRANCH   1   2
ATOM      2  C   UNL     1      49.212   7.773  14.995  0.00  0.00    +0.000 A 
ATOM      3  C   UNL     1      48.895   9.056  15.430  0.00  0.00    +0.000 A 
ATOM      4  C   UNL     1      48.407   9.206  16.717  0.00  0.00    +0.000 A 
ATOM      5  N   UNL     1      48.214   8.184  17.584  0.00  0.00    +0.000 NA
ATOM      6  C   UNL     1      48.556   6.940  17.191  0.00  0.00    +0.000 A 
ATOM      7  N   UNL     1      48.350   5.874  18.040  0.00  0.00    +0.000 N 
ATOM      8  C   UNL     1      47.341   5.948  19.102  0.00  0.00    +0.000 C 
ATOM      9  C   UNL     1      47.974   5.854  20.497  0.00  0.00    +0.000 C 
ATOM     10  O   UNL     1      48.857   4.724  20.608  0.00  0.00    +0.000 OA
ATOM     11  C   UNL     1      49.917   4.840  19.647  0.00  0.00    +0.000 C 
ATOM     12  C   UNL     1      49.379   4.843  18.209  0.00  0.00    +0.000 C 
ATOM     13  C   UNL     1      49.061   6.719  15.904  0.00  0.00    +0.000 A 
ENDBRANCH   1   2
BRANCH   1  14
ATOM     14  S   UNL     1      48.604   8.277  12.351  0.00  0.00    +0.000 S 
BRANCH  14  18
ATOM     15  C   UNL     1      44.553   6.083  12.594  0.00  0.00    +0.000 A 
ATOM     16  C   UNL     1      45.718   5.376  12.919  0.00  0.00    +0.000 A 
ATOM     17  C   UNL     1      46.970   6.009  12.861  0.00  0.00    +0.000 A 
ATOM     18  C   UNL     1      47.077   7.351  12.479  0.00  0.00    +0.000 A 
ATOM     19  C   UNL     1      45.902   8.046  12.156  0.00  0.00    +0.000 A 
ATOM     20  C   UNL     1      44.651   7.420  12.207  0.00  0.00    +0.000 A 
BRANCH  15  22
ATOM     21  N   UNL     1      42.251   5.994  11.797  0.00  0.00    +0.000 N 
ATOM     22  C   UNL     1      43.209   5.447  12.606  0.00  0.00    +0.000 C 
ATOM     23  O   UNL     1      42.968   4.454  13.279  0.00  0.00    +0.000 OA
ATOM     24  H   UNL     1      41.379   5.484  11.737  0.00  0.00    +0.000 HD
ATOM     25  H   UNL     1      42.477   6.622  11.038  0.00  0.00    +0.000 HD
ENDBRANCH  15  22
ENDBRANCH  14  18
ENDBRANCH   1  14
TORSDOF 4
ENDMDL
