MODEL 1
REMARK VINA RESULT:    -7.457      0.000      0.000
REMARK INTER + INTRA:         -11.223
REMARK INTER:                  -9.637
REMARK INTRA:                  -1.586
REMARK UNBOUND:                -1.586
REMARK  Name = 
REMARK  5 active torsions:
REMARK  status: ('A' for Active; 'I' for Inactive)
REMARK    1  A    between atoms: C_2  and  C_5
REMARK    2  A    between atoms: C_10  and  O_11
REMARK    3  A    between atoms: O_11  and  C_12
REMARK    4  A    between atoms: C_12  and  C_13
REMARK    5  A    between atoms: C_17  and  C_18
REMARK                            x       y       z     vdW  Elec       q    Type
REMARK                         _______ _______ _______ _____ _____    ______ ____
ROOT
ATOM      1  C   UNL     1      46.084   7.455  12.278  0.00  0.00    +0.000 C 
ATOM      2  C   UNL     1      46.170   8.877  11.694  0.00  0.00    +0.000 C 
ATOM      3  C   UNL     1      45.475   8.644  12.984  0.00  0.00    +0.000 C 
ENDROOT
BRANCH   1   4
ATOM      4  C   UNL     1      45.220   6.479  11.496  0.00  0.00    +0.000 A 
ATOM      5  C   UNL     1      43.856   6.329  11.745  0.00  0.00    +0.000 A 
ATOM      6  C   UNL     1      43.151   5.351  11.064  0.00  0.00    +0.000 A 
ATOM      7  N   UNL     1      43.691   4.538  10.132  0.00  0.00    +0.000 NA
ATOM      8  C   UNL     1      45.016   4.677   9.863  0.00  0.00    +0.000 A 
ATOM      9  C   UNL     1      45.788   5.629  10.532  0.00  0.00    +0.000 A 
BRANCH   8  10
ATOM     10  C   UNL     1      45.598   3.758   8.856  0.00  0.00    +0.000 A 
ATOM     11  C   UNL     1      45.586   2.372   9.028  0.00  0.00    +0.000 A 
ATOM     12  C   UNL     1      46.172   1.553   8.065  0.00  0.00    +0.000 A 
ATOM     13  C   UNL     1      46.754   2.131   6.947  0.00  0.00    +0.000 A 
ATOM     14  C   UNL     1      46.725   3.510   6.831  0.00  0.00    +0.000 A 
ATOM     15  N   UNL     1      46.161   4.328   7.753  0.00  0.00    +0.000 NA
ENDBRANCH   8  10
ENDBRANCH   1   4
BRANCH   1  16
ATOM     16  O   UNL     1      47.397   6.940  12.558  0.00  0.00    +0.000 OA
BRANCH  16  22
ATOM     17  C   UNL     1      47.760   5.703  14.712  0.00  0.00    +0.000 A 
ATOM     18  C   UNL     1      48.532   5.728  15.905  0.00  0.00    +0.000 A 
ATOM     19  C   UNL     1      49.554   6.654  16.111  0.00  0.00    +0.000 A 
ATOM     20  C   UNL     1      49.834   7.581  15.121  0.00  0.00    +0.000 A 
ATOM     21  C   UNL     1      49.036   7.619  13.980  0.00  0.00    +0.000 A 
ATOM     22  C   UNL     1      47.971   6.718  13.774  0.00  0.00    +0.000 A 
BRANCH  17  24
ATOM     23  F   UNL     1      45.579   4.794  14.313  0.00  0.00    +0.000 F 
ATOM     24  C   UNL     1      46.902   4.487  14.489  0.00  0.00    +0.000 C 
ATOM     25  F   UNL     1      46.917   3.635  15.552  0.00  0.00    +0.000 F 
ATOM     26  F   UNL     1      47.222   3.750  13.397  0.00  0.00    +0.000 F 
ENDBRANCH  17  24
ENDBRANCH  16  22
ENDBRANCH   1  16
TORSDOF 5
ENDMDL
MODEL 2
REMARK VINA RESULT:    -7.214      1.910      2.413
REMARK INTER + INTRA:         -10.910
REMARK INTER:                  -9.476
REMARK INTRA:                  -1.433
REMARK UNBOUND:                -1.586
REMARK  Name = 
REMARK  5 active torsions:
REMARK  status: ('A' for Active; 'I' for Inactive)
REMARK    1  A    between atoms: C_2  and  C_5
REMARK    2  A    between atoms: C_10  and  O_11
REMARK    3  A    between atoms: O_11  and  C_12
REMARK    4  A    between atoms: C_12  and  C_13
REMARK    5  A    between atoms: C_17  and  C_18
REMARK                            x       y       z     vdW  Elec       q    Type
REMARK                         _______ _______ _______ _____ _____    ______ ____
ROOT
ATOM      1  C   UNL     1      46.161   7.278  12.404  0.00  0.00    +0.000 C 
ATOM      2  C   UNL     1      46.438   8.678  11.824  0.00  0.00    +0.000 C 
ATOM      3  C   UNL     1      45.615   8.530  13.051  0.00  0.00    +0.000 C 
ENDROOT
BRANCH   1   4
ATOM      4  C   UNL     1      45.274   6.383  11.553  0.00  0.00    +0.000 A 
ATOM      5  C   UNL     1      43.895   6.301  11.750  0.00  0.00    +0.000 A 
ATOM      6  C   UNL     1      43.163   5.391  11.006  0.00  0.00    +0.000 A 
ATOM      7  N   UNL     1      43.691   4.586  10.061  0.00  0.00    +0.000 NA
ATOM      8  C   UNL     1      45.031   4.661   9.843  0.00  0.00    +0.000 A 
ATOM      9  C   UNL     1      45.829   5.541  10.576  0.00  0.00    +0.000 A 
BRANCH   8  10
ATOM     10  C   UNL     1      45.597   3.750   8.820  0.00  0.00    +0.000 A 
ATOM     11  C   UNL     1      45.607   2.364   8.989  0.00  0.00    +0.000 A 
ATOM     12  C   UNL     1      46.177   1.553   8.010  0.00  0.00    +0.000 A 
ATOM     13  C   UNL     1      46.724   2.139   6.878  0.00  0.00    +0.000 A 
ATOM     14  C   UNL     1      46.675   3.518   6.766  0.00  0.00    +0.000 A 
ATOM     15  N   UNL     1      46.125   4.328   7.703  0.00  0.00    +0.000 NA
ENDBRANCH   8  10
ENDBRANCH   1   4
BRANCH   1  16
ATOM     16  O   UNL     1      47.388   6.639  12.797  0.00  0.00    +0.000 OA
BRANCH  16  22
ATOM     17  C   UNL     1      48.488   6.811  15.046  0.00  0.00    +0.000 A 
ATOM     18  C   UNL     1      48.688   6.093  16.257  0.00  0.00    +0.000 A 
ATOM     19  C   UNL     1      48.079   4.862  16.501  0.00  0.00    +0.000 A 
ATOM     20  C   UNL     1      47.248   4.318  15.537  0.00  0.00    +0.000 A 
ATOM     21  C   UNL     1      47.103   4.971  14.315  0.00  0.00    +0.000 A 
ATOM     22  C   UNL     1      47.745   6.196  14.035  0.00  0.00    +0.000 A 
BRANCH  17  24
ATOM     23  F   UNL     1      49.952   8.489  15.928  0.00  0.00    +0.000 F 
ATOM     24  C   UNL     1      48.952   8.242  15.027  0.00  0.00    +0.000 C 
ATOM     25  F   UNL     1      47.964   9.117  15.366  0.00  0.00    +0.000 F 
ATOM     26  F   UNL     1      49.457   8.666  13.842  0.00  0.00    +0.000 F 
ENDBRANCH  17  24
ENDBRANCH  16  22
ENDBRANCH   1  16
TORSDOF 5
ENDMDL
MODEL 3
REMARK VINA RESULT:    -7.047      2.827      4.690
REMARK INTER + INTRA:         -10.694
REMARK INTER:                  -9.487
REMARK INTRA:                  -1.207
REMARK UNBOUND:                -1.586
REMARK  Name = 
REMARK  5 active torsions:
REMARK  status: ('A' for Active; 'I' for Inactive)
REMARK    1  A    between atoms: C_2  and  C_5
REMARK    2  A    between atoms: C_10  and  O_11
REMARK    3  A    between atoms: O_11  and  C_12
REMARK    4  A    between atoms: C_12  and  C_13
REMARK    5  A    between atoms: C_17  and  C_18
REMARK                            x       y       z     vdW  Elec       q    Type
REMARK                         _______ _______ _______ _____ _____    ______ ____
ROOT
ATOM      1  C   UNL     1      46.047   7.240  11.951  0.00  0.00    +0.000 C 
ATOM      2  C   UNL     1      46.875   6.691  13.128  0.00  0.00    +0.000 C 
ATOM      3  C   UNL     1      47.558   7.210  11.917  0.00  0.00    +0.000 C 
ENDROOT
BRANCH   1   4
ATOM      4  C   UNL     1      45.224   6.210  11.195  0.00  0.00    +0.000 A 
ATOM      5  C   UNL     1      43.881   5.972  11.488  0.00  0.00    +0.000 A 
ATOM      6  C   UNL     1      43.219   4.951  10.828  0.00  0.00    +0.000 A 
ATOM      7  N   UNL     1      43.780   4.175   9.878  0.00  0.00    +0.000 NA
ATOM      8  C   UNL     1      45.085   4.399   9.566  0.00  0.00    +0.000 A 
ATOM      9  C   UNL     1      45.814   5.400  10.212  0.00  0.00    +0.000 A 
BRANCH   8  10
ATOM     10  C   UNL     1      45.691   3.520   8.539  0.00  0.00    +0.000 A 
ATOM     11  C   UNL     1      45.828   2.144   8.732  0.00  0.00    +0.000 A 
ATOM     12  C   UNL     1      46.431   1.365   7.748  0.00  0.00    +0.000 A 
ATOM     13  C   UNL     1      46.884   1.972   6.586  0.00  0.00    +0.000 A 
ATOM     14  C   UNL     1      46.711   3.339   6.451  0.00  0.00    +0.000 A 
ATOM     15  N   UNL     1      46.127   4.118   7.394  0.00  0.00    +0.000 NA
ENDBRANCH   8  10
ENDBRANCH   1   4
BRANCH   1  16
ATOM     16  O   UNL     1      45.275   8.382  12.362  0.00  0.00    +0.000 OA
BRANCH  16  22
ATOM     17  C   UNL     1      45.900  10.678  11.566  0.00  0.00    +0.000 A 
ATOM     18  C   UNL     1      45.428  11.760  10.774  0.00  0.00    +0.000 A 
ATOM     19  C   UNL     1      44.245  11.683  10.039  0.00  0.00    +0.000 A 
ATOM     20  C   UNL     1      43.503  10.515  10.077  0.00  0.00    +0.000 A 
ATOM     21  C   UNL     1      43.911   9.475  10.908  0.00  0.00    +0.000 A 
ATOM     22  C   UNL     1      45.083   9.552  11.690  0.00  0.00    +0.000 A 
BRANCH  17  24
ATOM     23  F   UNL     1      47.712  12.065  12.297  0.00  0.00    +0.000 F 
ATOM     24  C   UNL     1      47.317  10.775  12.063  0.00  0.00    +0.000 C 
ATOM     25  F   UNL     1      48.221  10.300  11.161  0.00  0.00    +0.000 F 
ATOM     26  F   UNL     1      47.561  10.134  13.232  0.00  0.00    +0.000 F 
ENDBRANCH  17  24
ENDBRANCH  16  22
ENDBRANCH   1  16
TORSDOF 5
ENDMDL
MODEL 4
REMARK VINA RESULT:    -7.035      3.073      4.869
REMARK INTER + INTRA:         -10.677
REMARK INTER:                  -9.744
REMARK INTRA:                  -0.934
REMARK UNBOUND:                -1.586
REMARK  Name = 
REMARK  5 active torsions:
REMARK  status: ('A' for Active; 'I' for Inactive)
REMARK    1  A    between atoms: C_2  and  C_5
REMARK    2  A    between atoms: C_10  and  O_11
REMARK    3  A    between atoms: O_11  and  C_12
REMARK    4  A    between atoms: C_12  and  C_13
REMARK    5  A    between atoms: C_17  and  C_18
REMARK                            x       y       z     vdW  Elec       q    Type
REMARK                         _______ _______ _______ _____ _____    ______ ____
ROOT
ATOM      1  C   UNL     1      45.865   7.658  12.002  0.00  0.00    +0.000 C 
ATOM      2  C   UNL     1      46.634   7.276  13.281  0.00  0.00    +0.000 C 
ATOM      3  C   UNL     1      47.376   7.615  12.041  0.00  0.00    +0.000 C 
ENDROOT
BRANCH   1   4
ATOM      4  C   UNL     1      45.064   6.536  11.362  0.00  0.00    +0.000 A 
ATOM      5  C   UNL     1      43.756   6.242  11.749  0.00  0.00    +0.000 A 
ATOM      6  C   UNL     1      43.121   5.144  11.194  0.00  0.00    +0.000 A 
ATOM      7  N   UNL     1      43.674   4.340  10.263  0.00  0.00    +0.000 NA
ATOM      8  C   UNL     1      44.943   4.616   9.860  0.00  0.00    +0.000 A 
ATOM      9  C   UNL     1      45.646   5.696  10.398  0.00  0.00    +0.000 A 
BRANCH   8  10
ATOM     10  C   UNL     1      45.543   3.707   8.856  0.00  0.00    +0.000 A 
ATOM     11  C   UNL     1      45.558   2.321   9.031  0.00  0.00    +0.000 A 
ATOM     12  C   UNL     1      46.161   1.511   8.071  0.00  0.00    +0.000 A 
ATOM     13  C   UNL     1      46.733   2.098   6.952  0.00  0.00    +0.000 A 
ATOM     14  C   UNL     1      46.677   3.476   6.833  0.00  0.00    +0.000 A 
ATOM     15  N   UNL     1      46.096   4.285   7.753  0.00  0.00    +0.000 NA
ENDBRANCH   8  10
ENDBRANCH   1   4
BRANCH   1  16
ATOM     16  O   UNL     1      45.089   8.849  12.214  0.00  0.00    +0.000 OA
BRANCH  16  22
ATOM     17  C   UNL     1      44.091  10.598  10.716  0.00  0.00    +0.000 A 
ATOM     18  C   UNL     1      44.394  11.824  10.061  0.00  0.00    +0.000 A 
ATOM     19  C   UNL     1      45.606  12.487  10.249  0.00  0.00    +0.000 A 
ATOM     20  C   UNL     1      46.549  11.940  11.103  0.00  0.00    +0.000 A 
ATOM     21  C   UNL     1      46.299  10.702  11.691  0.00  0.00    +0.000 A 
ATOM     22  C   UNL     1      45.095   9.998  11.479  0.00  0.00    +0.000 A 
BRANCH  17  24
ATOM     23  F   UNL     1      41.999  10.582   9.547  0.00  0.00    +0.000 F 
ATOM     24  C   UNL     1      42.657  10.145  10.666  0.00  0.00    +0.000 C 
ATOM     25  F   UNL     1      41.920  10.626  11.705  0.00  0.00    +0.000 F 
ATOM     26  F   UNL     1      42.480   8.800  10.654  0.00  0.00    +0.000 F 
ENDBRANCH  17  24
ENDBRANCH  16  22
ENDBRANCH   1  16
TORSDOF 5
ENDMDL
MODEL 5
REMARK VINA RESULT:    -6.350      2.322      3.853
REMARK INTER + INTRA:          -9.793
REMARK INTER:                  -8.532
REMARK INTRA:                  -1.261
REMARK UNBOUND:                -1.586
REMARK  Name = 
REMARK  5 active torsions:
REMARK  status: ('A' for Active; 'I' for Inactive)
REMARK    1  A    between atoms: C_2  and  C_5
REMARK    2  A    between atoms: C_10  and  O_11
REMARK    3  A    between atoms: O_11  and  C_12
REMARK    4  A    between atoms: C_12  and  C_13
REMARK    5  A    between atoms: C_17  and  C_18
REMARK                            x       y       z     vdW  Elec       q    Type
REMARK                         _______ _______ _______ _____ _____    ______ ____
ROOT
ATOM      1  C   UNL     1      48.924   7.283  14.386  0.00  0.00    +0.000 C 
ATOM      2  C   UNL     1      50.177   7.371  13.496  0.00  0.00    +0.000 C 
ATOM      3  C   UNL     1      49.864   8.465  14.449  0.00  0.00    +0.000 C 
ENDROOT
BRANCH   1   4
ATOM      4  C   UNL     1      47.595   7.375  13.654  0.00  0.00    +0.000 A 
ATOM      5  C   UNL     1      46.903   8.578  13.517  0.00  0.00    +0.000 A 
ATOM      6  C   UNL     1      45.651   8.572  12.925  0.00  0.00    +0.000 A 
ATOM      7  N   UNL     1      45.054   7.468  12.430  0.00  0.00    +0.000 NA
ATOM      8  C   UNL     1      45.717   6.286  12.540  0.00  0.00    +0.000 A 
ATOM      9  C   UNL     1      46.973   6.222  13.147  0.00  0.00    +0.000 A 
BRANCH   8  10
ATOM     10  C   UNL     1      45.033   5.080  12.016  0.00  0.00    +0.000 A 
ATOM     11  C   UNL     1      45.102   4.719  10.668  0.00  0.00    +0.000 A 
ATOM     12  C   UNL     1      44.418   3.592  10.219  0.00  0.00    +0.000 A 
ATOM     13  C   UNL     1      43.680   2.842  11.123  0.00  0.00    +0.000 A 
ATOM     14  C   UNL     1      43.659   3.247  12.447  0.00  0.00    +0.000 A 
ATOM     15  N   UNL     1      44.317   4.339  12.908  0.00  0.00    +0.000 NA
ENDBRANCH   8  10
ENDBRANCH   1   4
BRANCH   1  16
ATOM     16  O   UNL     1      49.002   6.147  15.264  0.00  0.00    +0.000 OA
BRANCH  16  22
ATOM     17  C   UNL     1      47.876   4.893  17.124  0.00  0.00    +0.000 A 
ATOM     18  C   UNL     1      47.398   5.047  18.454  0.00  0.00    +0.000 A 
ATOM     19  C   UNL     1      47.590   6.220  19.182  0.00  0.00    +0.000 A 
ATOM     20  C   UNL     1      48.272   7.274  18.597  0.00  0.00    +0.000 A 
ATOM     21  C   UNL     1      48.679   7.167  17.270  0.00  0.00    +0.000 A 
ATOM     22  C   UNL     1      48.456   6.004  16.504  0.00  0.00    +0.000 A 
BRANCH  17  24
ATOM     23  F   UNL     1      49.111   2.921  16.554  0.00  0.00    +0.000 F 
ATOM     24  C   UNL     1      47.869   3.498  16.562  0.00  0.00    +0.000 C 
ATOM     25  F   UNL     1      47.467   3.460  15.261  0.00  0.00    +0.000 F 
ATOM     26  F   UNL     1      47.093   2.612  17.234  0.00  0.00    +0.000 F 
ENDBRANCH  17  24
ENDBRANCH  16  22
ENDBRANCH   1  16
TORSDOF 5
ENDMDL
MODEL 6
REMARK VINA RESULT:    -6.031      2.955      6.995
REMARK INTER + INTRA:          -9.381
REMARK INTER:                  -9.161
REMARK INTRA:                  -0.220
REMARK UNBOUND:                -1.586
REMARK  Name = 
REMARK  5 active torsions:
REMARK  status: ('A' for Active; 'I' for Inactive)
REMARK    1  A    between atoms: C_2  and  C_5
REMARK    2  A    between atoms: C_10  and  O_11
REMARK    3  A    between atoms: O_11  and  C_12
REMARK    4  A    between atoms: C_12  and  C_13
REMARK    5  A    between atoms: C_17  and  C_18
REMARK                            x       y       z     vdW  Elec       q    Type
REMARK                         _______ _______ _______ _____ _____    ______ ____
ROOT
ATOM      1  C   UNL     1      46.527   6.538  12.243  0.00  0.00    +0.000 C 
ATOM      2  C   UNL     1      46.419   7.967  12.806  0.00  0.00    +0.000 C 
ATOM      3  C   UNL     1      47.499   7.626  11.848  0.00  0.00    +0.000 C 
ENDROOT
BRANCH   1   4
ATOM      4  C   UNL     1      46.914   5.467  13.249  0.00  0.00    +0.000 A 
ATOM      5  C   UNL     1      46.660   4.113  13.028  0.00  0.00    +0.000 A 
ATOM      6  C   UNL     1      46.948   3.201  14.029  0.00  0.00    +0.000 A 
ATOM      7  N   UNL     1      47.499   3.530  15.217  0.00  0.00    +0.000 NA
ATOM      8  C   UNL     1      47.768   4.843  15.448  0.00  0.00    +0.000 A 
ATOM      9  C   UNL     1      47.480   5.814  14.487  0.00  0.00    +0.000 A 
BRANCH   8  10
ATOM     10  C   UNL     1      48.348   5.188  16.767  0.00  0.00    +0.000 A 
ATOM     11  C   UNL     1      47.619   5.057  17.952  0.00  0.00    +0.000 A 
ATOM     12  C   UNL     1      48.200   5.422  19.164  0.00  0.00    +0.000 A 
ATOM     13  C   UNL     1      49.500   5.907  19.173  0.00  0.00    +0.000 A 
ATOM     14  C   UNL     1      50.172   6.004  17.967  0.00  0.00    +0.000 A 
ATOM     15  N   UNL     1      49.628   5.655  16.775  0.00  0.00    +0.000 NA
ENDBRANCH   8  10
ENDBRANCH   1   4
BRANCH   1  16
ATOM     16  O   UNL     1      45.350   6.199  11.489  0.00  0.00    +0.000 OA
BRANCH  16  22
ATOM     17  C   UNL     1      44.352   4.070  10.613  0.00  0.00    +0.000 A 
ATOM     18  C   UNL     1      44.398   3.179   9.506  0.00  0.00    +0.000 A 
ATOM     19  C   UNL     1      45.161   3.445   8.369  0.00  0.00    +0.000 A 
ATOM     20  C   UNL     1      45.897   4.616   8.309  0.00  0.00    +0.000 A 
ATOM     21  C   UNL     1      45.923   5.461   9.416  0.00  0.00    +0.000 A 
ATOM     22  C   UNL     1      45.191   5.186  10.590  0.00  0.00    +0.000 A 
BRANCH  17  24
ATOM     23  F   UNL     1      42.166   4.597  11.440  0.00  0.00    +0.000 F 
ATOM     24  C   UNL     1      43.276   3.819  11.634  0.00  0.00    +0.000 C 
ATOM     25  F   UNL     1      43.680   4.112  12.902  0.00  0.00    +0.000 F 
ATOM     26  F   UNL     1      42.796   2.552  11.664  0.00  0.00    +0.000 F 
ENDBRANCH  17  24
ENDBRANCH  16  22
ENDBRANCH   1  16
TORSDOF 5
ENDMDL
MODEL 7
REMARK VINA RESULT:    -5.836      3.042      4.572
REMARK INTER + INTRA:          -9.128
REMARK INTER:                  -7.863
REMARK INTRA:                  -1.265
REMARK UNBOUND:                -1.586
REMARK  Name = 
REMARK  5 active torsions:
REMARK  status: ('A' for Active; 'I' for Inactive)
REMARK    1  A    between atoms: C_2  and  C_5
REMARK    2  A    between atoms: C_10  and  O_11
REMARK    3  A    between atoms: O_11  and  C_12
REMARK    4  A    between atoms: C_12  and  C_13
REMARK    5  A    between atoms: C_17  and  C_18
REMARK                            x       y       z     vdW  Elec       q    Type
REMARK                         _______ _______ _______ _____ _____    ______ ____
ROOT
ATOM      1  C   UNL     1      47.539   7.655  12.872  0.00  0.00    +0.000 C 
ATOM      2  C   UNL     1      48.072   6.975  14.147  0.00  0.00    +0.000 C 
ATOM      3  C   UNL     1      48.881   6.960  12.903  0.00  0.00    +0.000 C 
ENDROOT
BRANCH   1   4
ATOM      4  C   UNL     1      46.326   6.993  12.238  0.00  0.00    +0.000 A 
ATOM      5  C   UNL     1      45.037   7.165  12.743  0.00  0.00    +0.000 A 
ATOM      6  C   UNL     1      43.993   6.454  12.177  0.00  0.00    +0.000 A 
ATOM      7  N   UNL     1      44.127   5.616  11.129  0.00  0.00    +0.000 NA
ATOM      8  C   UNL     1      45.373   5.444  10.612  0.00  0.00    +0.000 A 
ATOM      9  C   UNL     1      46.472   6.115  11.151  0.00  0.00    +0.000 A 
BRANCH   8  10
ATOM     10  C   UNL     1      45.506   4.499   9.478  0.00  0.00    +0.000 A 
ATOM     11  C   UNL     1      44.993   3.202   9.534  0.00  0.00    +0.000 A 
ATOM     12  C   UNL     1      45.169   2.342   8.452  0.00  0.00    +0.000 A 
ATOM     13  C   UNL     1      45.850   2.794   7.332  0.00  0.00    +0.000 A 
ATOM     14  C   UNL     1      46.326   4.094   7.334  0.00  0.00    +0.000 A 
ATOM     15  N   UNL     1      46.167   4.949   8.374  0.00  0.00    +0.000 NA
ENDBRANCH   8  10
ENDBRANCH   1   4
BRANCH   1  16
ATOM     16  O   UNL     1      47.360   9.065  13.085  0.00  0.00    +0.000 OA
BRANCH  16  22
ATOM     17  C   UNL     1      48.467  10.642  11.476  0.00  0.00    +0.000 A 
ATOM     18  C   UNL     1      48.185  11.677  10.544  0.00  0.00    +0.000 A 
ATOM     19  C   UNL     1      46.881  12.048  10.216  0.00  0.00    +0.000 A 
ATOM     20  C   UNL     1      45.822  11.387  10.813  0.00  0.00    +0.000 A 
ATOM     21  C   UNL     1      46.081  10.423  11.785  0.00  0.00    +0.000 A 
ATOM     22  C   UNL     1      47.393  10.066  12.159  0.00  0.00    +0.000 A 
BRANCH  17  24
ATOM     23  F   UNL     1      50.348   9.959  12.794  0.00  0.00    +0.000 F 
ATOM     24  C   UNL     1      49.885  10.141  11.518  0.00  0.00    +0.000 C 
ATOM     25  F   UNL     1      50.766  11.017  10.957  0.00  0.00    +0.000 F 
ATOM     26  F   UNL     1      50.090   8.944  10.915  0.00  0.00    +0.000 F 
ENDBRANCH  17  24
ENDBRANCH  16  22
ENDBRANCH   1  16
TORSDOF 5
ENDMDL
MODEL 8
REMARK VINA RESULT:    -5.772      3.476      5.371
REMARK INTER + INTRA:          -9.045
REMARK INTER:                  -7.722
REMARK INTRA:                  -1.323
REMARK UNBOUND:                -1.586
REMARK  Name = 
REMARK  5 active torsions:
REMARK  status: ('A' for Active; 'I' for Inactive)
REMARK    1  A    between atoms: C_2  and  C_5
REMARK    2  A    between atoms: C_10  and  O_11
REMARK    3  A    between atoms: O_11  and  C_12
REMARK    4  A    between atoms: C_12  and  C_13
REMARK    5  A    between atoms: C_17  and  C_18
REMARK                            x       y       z     vdW  Elec       q    Type
REMARK                         _______ _______ _______ _____ _____    ______ ____
ROOT
ATOM      1  C   UNL     1      49.317   7.313  15.933  0.00  0.00    +0.000 C 
ATOM      2  C   UNL     1      50.720   7.235  15.303  0.00  0.00    +0.000 C 
ATOM      3  C   UNL     1      49.729   8.215  14.793  0.00  0.00    +0.000 C 
ENDROOT
BRANCH   1   4
ATOM      4  C   UNL     1      48.427   6.104  15.696  0.00  0.00    +0.000 A 
ATOM      5  C   UNL     1      48.364   5.039  16.595  0.00  0.00    +0.000 A 
ATOM      6  C   UNL     1      47.609   3.926  16.269  0.00  0.00    +0.000 A 
ATOM      7  N   UNL     1      46.887   3.807  15.135  0.00  0.00    +0.000 NA
ATOM      8  C   UNL     1      46.922   4.839  14.251  0.00  0.00    +0.000 A 
ATOM      9  C   UNL     1      47.682   5.981  14.511  0.00  0.00    +0.000 A 
BRANCH   8  10
ATOM     10  C   UNL     1      46.144   4.679  13.000  0.00  0.00    +0.000 A 
ATOM     11  C   UNL     1      46.043   5.704  12.057  0.00  0.00    +0.000 A 
ATOM     12  C   UNL     1      45.275   5.514  10.910  0.00  0.00    +0.000 A 
ATOM     13  C   UNL     1      44.625   4.303  10.723  0.00  0.00    +0.000 A 
ATOM     14  C   UNL     1      44.773   3.324  11.690  0.00  0.00    +0.000 A 
ATOM     15  N   UNL     1      45.514   3.484  12.813  0.00  0.00    +0.000 NA
ENDBRANCH   8  10
ENDBRANCH   1   4
BRANCH   1  16
ATOM     16  O   UNL     1      49.402   7.681  17.321  0.00  0.00    +0.000 OA
BRANCH  16  22
ATOM     17  C   UNL     1      47.666   8.191  19.060  0.00  0.00    +0.000 A 
ATOM     18  C   UNL     1      46.923   9.263  19.625  0.00  0.00    +0.000 A 
ATOM     19  C   UNL     1      47.143  10.592  19.263  0.00  0.00    +0.000 A 
ATOM     20  C   UNL     1      48.119  10.884  18.326  0.00  0.00    +0.000 A 
ATOM     21  C   UNL     1      48.802   9.840  17.707  0.00  0.00    +0.000 A 
ATOM     22  C   UNL     1      48.563   8.487  18.030  0.00  0.00    +0.000 A 
BRANCH  17  24
ATOM     23  F   UNL     1      46.631   6.032  19.139  0.00  0.00    +0.000 F 
ATOM     24  C   UNL     1      47.545   6.855  19.741  0.00  0.00    +0.000 C 
ATOM     25  F   UNL     1      47.112   6.961  21.028  0.00  0.00    +0.000 F 
ATOM     26  F   UNL     1      48.685   6.121  19.774  0.00  0.00    +0.000 F 
ENDBRANCH  17  24
ENDBRANCH  16  22
ENDBRANCH   1  16
TORSDOF 5
ENDMDL
MODEL 9
REMARK VINA RESULT:    -5.722      3.753      5.888
REMARK INTER + INTRA:          -8.981
REMARK INTER:                  -7.798
REMARK INTRA:                  -1.183
REMARK UNBOUND:                -1.586
REMARK  Name = 
REMARK  5 active torsions:
REMARK  status: ('A' for Active; 'I' for Inactive)
REMARK    1  A    between atoms: C_2  and  C_5
REMARK    2  A    between atoms: C_10  and  O_11
REMARK    3  A    between atoms: O_11  and  C_12
REMARK    4  A    between atoms: C_12  and  C_13
REMARK    5  A    between atoms: C_17  and  C_18
REMARK                            x       y       z     vdW  Elec       q    Type
REMARK                         _______ _______ _______ _____ _____    ______ ____
ROOT
ATOM      1  C   UNL     1      48.299   4.628  17.133  0.00  0.00    +0.000 C 
ATOM      2  C   UNL     1      48.428   3.094  17.147  0.00  0.00    +0.000 C 
ATOM      3  C   UNL     1      49.612   3.942  17.430  0.00  0.00    +0.000 C 
ENDROOT
BRANCH   1   4
ATOM      4  C   UNL     1      48.027   5.248  15.771  0.00  0.00    +0.000 A 
ATOM      5  C   UNL     1      48.698   6.387  15.326  0.00  0.00    +0.000 A 
ATOM      6  C   UNL     1      48.331   6.956  14.118  0.00  0.00    +0.000 A 
ATOM      7  N   UNL     1      47.374   6.459  13.308  0.00  0.00    +0.000 NA
ATOM      8  C   UNL     1      46.717   5.340  13.716  0.00  0.00    +0.000 A 
ATOM      9  C   UNL     1      47.025   4.732  14.934  0.00  0.00    +0.000 A 
BRANCH   8  10
ATOM     10  C   UNL     1      45.651   4.825  12.825  0.00  0.00    +0.000 A 
ATOM     11  C   UNL     1      45.471   5.312  11.528  0.00  0.00    +0.000 A 
ATOM     12  C   UNL     1      44.436   4.814  10.741  0.00  0.00    +0.000 A 
ATOM     13  C   UNL     1      43.600   3.836  11.259  0.00  0.00    +0.000 A 
ATOM     14  C   UNL     1      43.836   3.388  12.547  0.00  0.00    +0.000 A 
ATOM     15  N   UNL     1      44.837   3.856  13.333  0.00  0.00    +0.000 NA
ENDBRANCH   8  10
ENDBRANCH   1   4
BRANCH   1  16
ATOM     16  O   UNL     1      47.376   5.070  18.143  0.00  0.00    +0.000 OA
BRANCH  16  22
ATOM     17  C   UNL     1      48.146   5.932  20.371  0.00  0.00    +0.000 A 
ATOM     18  C   UNL     1      48.224   7.118  21.151  0.00  0.00    +0.000 A 
ATOM     19  C   UNL     1      47.852   8.365  20.648  0.00  0.00    +0.000 A 
ATOM     20  C   UNL     1      47.395   8.457  19.345  0.00  0.00    +0.000 A 
ATOM     21  C   UNL     1      47.240   7.295  18.593  0.00  0.00    +0.000 A 
ATOM     22  C   UNL     1      47.571   6.021  19.101  0.00  0.00    +0.000 A 
BRANCH  17  24
ATOM     23  F   UNL     1      48.806   4.652  22.285  0.00  0.00    +0.000 F 
ATOM     24  C   UNL     1      48.847   4.719  20.918  0.00  0.00    +0.000 C 
ATOM     25  F   UNL     1      50.175   4.701  20.615  0.00  0.00    +0.000 F 
ATOM     26  F   UNL     1      48.340   3.529  20.510  0.00  0.00    +0.000 F 
ENDBRANCH  17  24
ENDBRANCH  16  22
ENDBRANCH   1  16
TORSDOF 5
ENDMDL
