MODEL 1
REMARK VINA RESULT:    -8.520      0.000      0.000
REMARK INTER + INTRA:         -13.584
REMARK INTER:                 -12.255
REMARK INTRA:                  -1.329
REMARK UNBOUND:                -1.329
REMARK  Name = 
REMARK  8 active torsions:
REMARK  status: ('A' for Active; 'I' for Inactive)
REMARK    1  A    between atoms: N_1  and  C_2
REMARK    2  A    between atoms: C_2  and  C_3
REMARK    3  A    between atoms: C_2  and  C_24
REMARK    4  A    between atoms: C_3  and  C_4
REMARK    5  A    between atoms: C_8  and  C_9
REMARK    6  A    between atoms: C_9  and  N_10
REMARK    7  A    between atoms: C_11  and  C_13
REMARK    8  A    between atoms: C_24  and  C_26
REMARK                            x       y       z     vdW  Elec       q    Type
REMARK                         _______ _______ _______ _____ _____    ______ ____
ROOT
ATOM      1  C   UNL     1      45.076   6.773  12.202  0.00  0.00    +0.000 A 
ATOM      2  C   UNL     1      44.340   7.708  11.462  0.00  0.00    +0.000 A 
ATOM      3  C   UNL     1      44.748   9.037  11.397  0.00  0.00    +0.000 A 
ATOM      4  C   UNL     1      45.878   9.453  12.100  0.00  0.00    +0.000 A 
ATOM      5  C   UNL     1      46.591   8.549  12.905  0.00  0.00    +0.000 A 
ATOM      6  C   UNL     1      46.208   7.200  12.909  0.00  0.00    +0.000 A 
ENDROOT
BRANCH   1   7
ATOM      7  C   UNL     1      44.613   5.334  12.258  0.00  0.00    +0.000 C 
BRANCH   7   8
ATOM      8  C   UNL     1      43.589   4.926  11.176  0.00  0.00    +0.000 C 
BRANCH   8   9
ATOM      9  N   UNL     1      42.195   5.020  11.666  0.00  0.00    +0.000 NA
ATOM     10  H   UNL     1      41.553   4.965  10.879  0.00  0.00    +0.000 HD
ATOM     11  H   UNL     1      42.082   5.962  12.057  0.00  0.00    +0.000 HD
ENDBRANCH   8   9
BRANCH   8  12
ATOM     12  C   UNL     1      43.842   3.505  10.624  0.00  0.00    +0.000 C 
ATOM     13  O   UNL     1      43.276   2.516  11.100  0.00  0.00    +0.000 OA
BRANCH  12  14
ATOM     14  C   UNL     1      44.808   3.301   9.495  0.00  0.00    +0.000 A 
ATOM     15  C   UNL     1      45.341   4.356   8.744  0.00  0.00    +0.000 A 
ATOM     16  C   UNL     1      46.206   4.097   7.674  0.00  0.00    +0.000 A 
ATOM     17  C   UNL     1      46.579   2.790   7.371  0.00  0.00    +0.000 A 
ATOM     18  C   UNL     1      46.081   1.735   8.130  0.00  0.00    +0.000 A 
ATOM     19  C   UNL     1      45.189   1.986   9.176  0.00  0.00    +0.000 A 
ENDBRANCH  12  14
ENDBRANCH   8  12
ENDBRANCH   7   8
ENDBRANCH   1   7
BRANCH   5  20
ATOM     20  C   UNL     1      47.746   9.022  13.755  0.00  0.00    +0.000 C 
BRANCH  20  21
ATOM     21  N   UNL     1      47.927   8.175  14.898  0.00  0.00    +0.000 N 
ATOM     22  C   UNL     1      48.936   7.254  14.986  0.00  0.00    +0.000 C 
ATOM     23  O   UNL     1      49.781   7.101  14.109  0.00  0.00    +0.000 OA
ATOM     24  H   UNL     1      47.098   8.029  15.459  0.00  0.00    +0.000 HD
BRANCH  22  25
ATOM     25  C   UNL     1      48.985   6.511  16.251  0.00  0.00    +0.000 A 
ATOM     26  C   UNL     1      49.653   7.033  17.351  0.00  0.00    +0.000 A 
ATOM     27  S   UNL     1      49.508   6.068  18.751  0.00  0.00    +0.000 S 
ATOM     28  C   UNL     1      48.598   4.894  17.921  0.00  0.00    +0.000 A 
ATOM     29  N   UNL     1      48.157   3.770  18.552  0.00  0.00    +0.000 NA
ATOM     30  C   UNL     1      47.501   2.957  17.792  0.00  0.00    +0.000 A 
ATOM     31  N   UNL     1      47.243   3.163  16.466  0.00  0.00    +0.000 N 
ATOM     32  C   UNL     1      47.642   4.287  15.792  0.00  0.00    +0.000 A 
ATOM     33  O   UNL     1      47.364   4.458  14.616  0.00  0.00    +0.000 OA
ATOM     34  C   UNL     1      48.397   5.239  16.599  0.00  0.00    +0.000 A 
ATOM     35  H   UNL     1      46.705   2.496  15.924  0.00  0.00    +0.000 HD
ENDBRANCH  22  25
ENDBRANCH  20  21
ENDBRANCH   5  20
TORSDOF 8
ENDMDL
MODEL 2
REMARK VINA RESULT:    -8.508      2.065      3.081
REMARK INTER + INTRA:         -13.567
REMARK INTER:                 -12.923
REMARK INTRA:                  -0.644
REMARK UNBOUND:                -1.329
REMARK  Name = 
REMARK  8 active torsions:
REMARK  status: ('A' for Active; 'I' for Inactive)
REMARK    1  A    between atoms: N_1  and  C_2
REMARK    2  A    between atoms: C_2  and  C_3
REMARK    3  A    between atoms: C_2  and  C_24
REMARK    4  A    between atoms: C_3  and  C_4
REMARK    5  A    between atoms: C_8  and  C_9
REMARK    6  A    between atoms: C_9  and  N_10
REMARK    7  A    between atoms: C_11  and  C_13
REMARK    8  A    between atoms: C_24  and  C_26
REMARK                            x       y       z     vdW  Elec       q    Type
REMARK                         _______ _______ _______ _____ _____    ______ ____
ROOT
ATOM      1  C   UNL     1      45.855   5.897  10.988  0.00  0.00    +0.000 A 
ATOM      2  C   UNL     1      45.827   7.248  11.360  0.00  0.00    +0.000 A 
ATOM      3  C   UNL     1      46.040   7.621  12.683  0.00  0.00    +0.000 A 
ATOM      4  C   UNL     1      46.249   6.645  13.657  0.00  0.00    +0.000 A 
ATOM      5  C   UNL     1      46.210   5.282  13.321  0.00  0.00    +0.000 A 
ATOM      6  C   UNL     1      46.060   4.921  11.974  0.00  0.00    +0.000 A 
ENDROOT
BRANCH   1   7
ATOM      7  C   UNL     1      45.619   5.515   9.544  0.00  0.00    +0.000 C 
BRANCH   7   8
ATOM      8  C   UNL     1      44.329   4.711   9.274  0.00  0.00    +0.000 C 
BRANCH   8   9
ATOM      9  N   UNL     1      43.277   4.995  10.277  0.00  0.00    +0.000 NA
ATOM     10  H   UNL     1      43.673   5.534  11.044  0.00  0.00    +0.000 HD
ATOM     11  H   UNL     1      43.001   4.092  10.680  0.00  0.00    +0.000 HD
ENDBRANCH   8   9
BRANCH   8  12
ATOM     12  C   UNL     1      44.579   3.187   9.214  0.00  0.00    +0.000 C 
ATOM     13  O   UNL     1      44.005   2.407   9.981  0.00  0.00    +0.000 OA
BRANCH  12  14
ATOM     14  C   UNL     1      45.550   2.626   8.219  0.00  0.00    +0.000 A 
ATOM     15  C   UNL     1      46.082   1.334   8.313  0.00  0.00    +0.000 A 
ATOM     16  C   UNL     1      47.018   0.883   7.376  0.00  0.00    +0.000 A 
ATOM     17  C   UNL     1      47.399   1.698   6.313  0.00  0.00    +0.000 A 
ATOM     18  C   UNL     1      46.854   2.973   6.191  0.00  0.00    +0.000 A 
ATOM     19  C   UNL     1      45.947   3.441   7.145  0.00  0.00    +0.000 A 
ENDBRANCH  12  14
ENDBRANCH   8  12
ENDBRANCH   7   8
ENDBRANCH   1   7
BRANCH   5  20
ATOM     20  C   UNL     1      46.322   4.222  14.390  0.00  0.00    +0.000 C 
BRANCH  20  21
ATOM     21  N   UNL     1      47.434   4.478  15.258  0.00  0.00    +0.000 N 
ATOM     22  C   UNL     1      47.485   4.028  16.551  0.00  0.00    +0.000 C 
ATOM     23  O   UNL     1      46.599   3.346  17.057  0.00  0.00    +0.000 OA
ATOM     24  H   UNL     1      47.994   5.283  15.011  0.00  0.00    +0.000 HD
BRANCH  22  25
ATOM     25  C   UNL     1      48.724   4.353  17.268  0.00  0.00    +0.000 A 
ATOM     26  C   UNL     1      48.855   5.565  17.935  0.00  0.00    +0.000 A 
ATOM     27  S   UNL     1      50.326   5.710  18.789  0.00  0.00    +0.000 S 
ATOM     28  C   UNL     1      50.859   4.187  18.250  0.00  0.00    +0.000 A 
ATOM     29  N   UNL     1      52.078   3.699  18.614  0.00  0.00    +0.000 NA
ATOM     30  C   UNL     1      52.359   2.543  18.111  0.00  0.00    +0.000 A 
ATOM     31  N   UNL     1      51.538   1.830  17.284  0.00  0.00    +0.000 N 
ATOM     32  C   UNL     1      50.293   2.264  16.910  0.00  0.00    +0.000 A 
ATOM     33  O   UNL     1      49.568   1.586  16.199  0.00  0.00    +0.000 OA
ATOM     34  C   UNL     1      49.924   3.571  17.441  0.00  0.00    +0.000 A 
ATOM     35  H   UNL     1      51.806   0.917  16.934  0.00  0.00    +0.000 HD
ENDBRANCH  22  25
ENDBRANCH  20  21
ENDBRANCH   5  20
TORSDOF 8
ENDMDL
MODEL 3
REMARK VINA RESULT:    -8.022      1.573      1.831
REMARK INTER + INTRA:         -12.867
REMARK INTER:                 -11.807
REMARK INTRA:                  -1.060
REMARK UNBOUND:                -1.329
REMARK  Name = 
REMARK  8 active torsions:
REMARK  status: ('A' for Active; 'I' for Inactive)
REMARK    1  A    between atoms: N_1  and  C_2
REMARK    2  A    between atoms: C_2  and  C_3
REMARK    3  A    between atoms: C_2  and  C_24
REMARK    4  A    between atoms: C_3  and  C_4
REMARK    5  A    between atoms: C_8  and  C_9
REMARK    6  A    between atoms: C_9  and  N_10
REMARK    7  A    between atoms: C_11  and  C_13
REMARK    8  A    between atoms: C_24  and  C_26
REMARK                            x       y       z     vdW  Elec       q    Type
REMARK                         _______ _______ _______ _____ _____    ______ ____
ROOT
ATOM      1  C   UNL     1      45.678   5.468  11.874  0.00  0.00    +0.000 A 
ATOM      2  C   UNL     1      44.829   6.498  11.447  0.00  0.00    +0.000 A 
ATOM      3  C   UNL     1      45.196   7.830  11.607  0.00  0.00    +0.000 A 
ATOM      4  C   UNL     1      46.404   8.149  12.227  0.00  0.00    +0.000 A 
ATOM      5  C   UNL     1      47.238   7.137  12.728  0.00  0.00    +0.000 A 
ATOM      6  C   UNL     1      46.888   5.797  12.502  0.00  0.00    +0.000 A 
ENDROOT
BRANCH   1   7
ATOM      7  C   UNL     1      45.257   4.028  11.691  0.00  0.00    +0.000 C 
BRANCH   7   8
ATOM      8  C   UNL     1      44.118   3.796  10.674  0.00  0.00    +0.000 C 
BRANCH   8   9
ATOM      9  N   UNL     1      42.810   3.599  11.339  0.00  0.00    +0.000 NA
ATOM     10  H   UNL     1      42.837   4.006  12.272  0.00  0.00    +0.000 HD
ATOM     11  H   UNL     1      42.696   2.589  11.476  0.00  0.00    +0.000 HD
ENDBRANCH   8   9
BRANCH   8  12
ATOM     12  C   UNL     1      44.396   2.604   9.731  0.00  0.00    +0.000 C 
ATOM     13  O   UNL     1      43.778   1.540   9.835  0.00  0.00    +0.000 OA
BRANCH  12  14
ATOM     14  C   UNL     1      45.449   2.718   8.669  0.00  0.00    +0.000 A 
ATOM     15  C   UNL     1      45.798   3.933   8.065  0.00  0.00    +0.000 A 
ATOM     16  C   UNL     1      46.759   3.968   7.049  0.00  0.00    +0.000 A 
ATOM     17  C   UNL     1      47.411   2.802   6.655  0.00  0.00    +0.000 A 
ATOM     18  C   UNL     1      47.095   1.593   7.270  0.00  0.00    +0.000 A 
ATOM     19  C   UNL     1      46.110   1.548   8.260  0.00  0.00    +0.000 A 
ENDBRANCH  12  14
ENDBRANCH   8  12
ENDBRANCH   7   8
ENDBRANCH   1   7
BRANCH   5  20
ATOM     20  C   UNL     1      48.489   7.482  13.500  0.00  0.00    +0.000 C 
BRANCH  20  21
ATOM     21  N   UNL     1      48.272   7.370  14.913  0.00  0.00    +0.000 N 
ATOM     22  C   UNL     1      49.256   6.988  15.786  0.00  0.00    +0.000 C 
ATOM     23  O   UNL     1      50.405   6.740  15.433  0.00  0.00    +0.000 OA
ATOM     24  H   UNL     1      47.309   7.232  15.190  0.00  0.00    +0.000 HD
BRANCH  22  25
ATOM     25  C   UNL     1      48.855   6.973  17.198  0.00  0.00    +0.000 A 
ATOM     26  C   UNL     1      48.343   8.117  17.798  0.00  0.00    +0.000 A 
ATOM     27  S   UNL     1      47.843   7.869  19.411  0.00  0.00    +0.000 S 
ATOM     28  C   UNL     1      48.346   6.244  19.380  0.00  0.00    +0.000 A 
ATOM     29  N   UNL     1      48.212   5.445  20.476  0.00  0.00    +0.000 NA
ATOM     30  C   UNL     1      48.658   4.244  20.315  0.00  0.00    +0.000 A 
ATOM     31  N   UNL     1      49.221   3.766  19.165  0.00  0.00    +0.000 N 
ATOM     32  C   UNL     1      49.355   4.520  18.028  0.00  0.00    +0.000 A 
ATOM     33  O   UNL     1      49.828   4.053  17.004  0.00  0.00    +0.000 OA
ATOM     34  C   UNL     1      48.875   5.892  18.154  0.00  0.00    +0.000 A 
ATOM     35  H   UNL     1      49.537   2.806  19.092  0.00  0.00    +0.000 HD
ENDBRANCH  22  25
ENDBRANCH  20  21
ENDBRANCH   5  20
TORSDOF 8
ENDMDL
MODEL 4
REMARK VINA RESULT:    -7.942      2.438      2.938
REMARK INTER + INTRA:         -12.753
REMARK INTER:                 -11.380
REMARK INTRA:                  -1.373
REMARK UNBOUND:                -1.329
REMARK  Name = 
REMARK  8 active torsions:
REMARK  status: ('A' for Active; 'I' for Inactive)
REMARK    1  A    between atoms: N_1  and  C_2
REMARK    2  A    between atoms: C_2  and  C_3
REMARK    3  A    between atoms: C_2  and  C_24
REMARK    4  A    between atoms: C_3  and  C_4
REMARK    5  A    between atoms: C_8  and  C_9
REMARK    6  A    between atoms: C_9  and  N_10
REMARK    7  A    between atoms: C_11  and  C_13
REMARK    8  A    between atoms: C_24  and  C_26
REMARK                            x       y       z     vdW  Elec       q    Type
REMARK                         _______ _______ _______ _____ _____    ______ ____
ROOT
ATOM      1  C   UNL     1      46.913   5.833  12.812  0.00  0.00    +0.000 A 
ATOM      2  C   UNL     1      47.337   6.594  11.714  0.00  0.00    +0.000 A 
ATOM      3  C   UNL     1      48.324   7.562  11.864  0.00  0.00    +0.000 A 
ATOM      4  C   UNL     1      48.874   7.806  13.123  0.00  0.00    +0.000 A 
ATOM      5  C   UNL     1      48.414   7.107  14.250  0.00  0.00    +0.000 A 
ATOM      6  C   UNL     1      47.467   6.088  14.074  0.00  0.00    +0.000 A 
ENDROOT
BRANCH   1   7
ATOM      7  C   UNL     1      45.837   4.787  12.624  0.00  0.00    +0.000 C 
BRANCH   7   8
ATOM      8  C   UNL     1      44.577   5.261  11.869  0.00  0.00    +0.000 C 
BRANCH   8   9
ATOM      9  N   UNL     1      43.534   5.766  12.791  0.00  0.00    +0.000 NA
ATOM     10  H   UNL     1      43.107   4.985  13.284  0.00  0.00    +0.000 HD
ATOM     11  H   UNL     1      42.793   6.170  12.207  0.00  0.00    +0.000 HD
ENDBRANCH   8   9
BRANCH   8  12
ATOM     12  C   UNL     1      43.973   4.160  10.969  0.00  0.00    +0.000 C 
ATOM     13  O   UNL     1      42.849   3.694  11.182  0.00  0.00    +0.000 OA
BRANCH  12  14
ATOM     14  C   UNL     1      44.762   3.620   9.814  0.00  0.00    +0.000 A 
ATOM     15  C   UNL     1      44.937   2.250   9.580  0.00  0.00    +0.000 A 
ATOM     16  C   UNL     1      45.721   1.809   8.508  0.00  0.00    +0.000 A 
ATOM     17  C   UNL     1      46.302   2.727   7.636  0.00  0.00    +0.000 A 
ATOM     18  C   UNL     1      46.109   4.090   7.839  0.00  0.00    +0.000 A 
ATOM     19  C   UNL     1      45.358   4.536   8.930  0.00  0.00    +0.000 A 
ENDBRANCH  12  14
ENDBRANCH   8  12
ENDBRANCH   7   8
ENDBRANCH   1   7
BRANCH   5  20
ATOM     20  C   UNL     1      48.926   7.448  15.629  0.00  0.00    +0.000 C 
BRANCH  20  21
ATOM     21  N   UNL     1      49.927   6.514  16.055  0.00  0.00    +0.000 N 
ATOM     22  C   UNL     1      50.251   6.323  17.372  0.00  0.00    +0.000 C 
ATOM     23  O   UNL     1      49.691   6.913  18.291  0.00  0.00    +0.000 OA
ATOM     24  H   UNL     1      50.618   6.276  15.355  0.00  0.00    +0.000 HD
BRANCH  22  25
ATOM     25  C   UNL     1      51.269   5.294  17.613  0.00  0.00    +0.000 A 
ATOM     26  C   UNL     1      52.545   5.648  18.034  0.00  0.00    +0.000 A 
ATOM     27  S   UNL     1      53.548   4.305  18.356  0.00  0.00    +0.000 S 
ATOM     28  C   UNL     1      52.333   3.209  17.890  0.00  0.00    +0.000 A 
ATOM     29  N   UNL     1      52.551   1.865  17.916  0.00  0.00    +0.000 NA
ATOM     30  C   UNL     1      51.549   1.156  17.512  0.00  0.00    +0.000 A 
ATOM     31  N   UNL     1      50.353   1.664  17.089  0.00  0.00    +0.000 N 
ATOM     32  C   UNL     1      50.074   3.006  17.069  0.00  0.00    +0.000 A 
ATOM     33  O   UNL     1      48.982   3.426  16.721  0.00  0.00    +0.000 OA
ATOM     34  C   UNL     1      51.174   3.857  17.507  0.00  0.00    +0.000 A 
ATOM     35  H   UNL     1      49.594   1.056  16.801  0.00  0.00    +0.000 HD
ENDBRANCH  22  25
ENDBRANCH  20  21
ENDBRANCH   5  20
TORSDOF 8
ENDMDL
MODEL 5
REMARK VINA RESULT:    -7.907      3.146      4.588
REMARK INTER + INTRA:         -12.702
REMARK INTER:                 -11.773
REMARK INTRA:                  -0.929
REMARK UNBOUND:                -1.329
REMARK  Name = 
REMARK  8 active torsions:
REMARK  status: ('A' for Active; 'I' for Inactive)
REMARK    1  A    between atoms: N_1  and  C_2
REMARK    2  A    between atoms: C_2  and  C_3
REMARK    3  A    between atoms: C_2  and  C_24
REMARK    4  A    between atoms: C_3  and  C_4
REMARK    5  A    between atoms: C_8  and  C_9
REMARK    6  A    between atoms: C_9  and  N_10
REMARK    7  A    between atoms: C_11  and  C_13
REMARK    8  A    between atoms: C_24  and  C_26
REMARK                            x       y       z     vdW  Elec       q    Type
REMARK                         _______ _______ _______ _____ _____    ______ ____
ROOT
ATOM      1  C   UNL     1      46.769   4.875  13.796  0.00  0.00    +0.000 A 
ATOM      2  C   UNL     1      47.426   6.110  13.705  0.00  0.00    +0.000 A 
ATOM      3  C   UNL     1      48.254   6.547  14.734  0.00  0.00    +0.000 A 
ATOM      4  C   UNL     1      48.407   5.769  15.882  0.00  0.00    +0.000 A 
ATOM      5  C   UNL     1      47.703   4.563  16.026  0.00  0.00    +0.000 A 
ATOM      6  C   UNL     1      46.924   4.102  14.955  0.00  0.00    +0.000 A 
ENDROOT
BRANCH   1   7
ATOM      7  C   UNL     1      45.874   4.421  12.665  0.00  0.00    +0.000 C 
BRANCH   7   8
ATOM      8  C   UNL     1      44.943   5.506  12.082  0.00  0.00    +0.000 C 
BRANCH   8   9
ATOM      9  N   UNL     1      44.020   6.054  13.102  0.00  0.00    +0.000 NA
ATOM     10  H   UNL     1      43.831   5.344  13.806  0.00  0.00    +0.000 HD
ATOM     11  H   UNL     1      43.126   6.229  12.630  0.00  0.00    +0.000 HD
ENDBRANCH   8   9
BRANCH   8  12
ATOM     12  C   UNL     1      44.124   5.001  10.872  0.00  0.00    +0.000 C 
ATOM     13  O   UNL     1      42.934   5.297  10.727  0.00  0.00    +0.000 OA
BRANCH  12  14
ATOM     14  C   UNL     1      44.770   4.116   9.848  0.00  0.00    +0.000 A 
ATOM     15  C   UNL     1      44.607   2.725   9.828  0.00  0.00    +0.000 A 
ATOM     16  C   UNL     1      45.271   1.948   8.871  0.00  0.00    +0.000 A 
ATOM     17  C   UNL     1      46.067   2.553   7.902  0.00  0.00    +0.000 A 
ATOM     18  C   UNL     1      46.210   3.938   7.892  0.00  0.00    +0.000 A 
ATOM     19  C   UNL     1      45.579   4.714   8.868  0.00  0.00    +0.000 A 
ENDBRANCH  12  14
ENDBRANCH   8  12
ENDBRANCH   7   8
ENDBRANCH   1   7
BRANCH   5  20
ATOM     20  C   UNL     1      47.779   3.777  17.313  0.00  0.00    +0.000 C 
BRANCH  20  21
ATOM     21  N   UNL     1      49.131   3.410  17.617  0.00  0.00    +0.000 N 
ATOM     22  C   UNL     1      49.796   2.415  16.952  0.00  0.00    +0.000 C 
ATOM     23  O   UNL     1      49.299   1.780  16.027  0.00  0.00    +0.000 OA
ATOM     24  H   UNL     1      49.443   3.652  18.548  0.00  0.00    +0.000 HD
BRANCH  22  25
ATOM     25  C   UNL     1      51.187   2.214  17.375  0.00  0.00    +0.000 A 
ATOM     26  C   UNL     1      51.686   0.933  17.576  0.00  0.00    +0.000 A 
ATOM     27  S   UNL     1      53.347   0.907  17.966  0.00  0.00    +0.000 S 
ATOM     28  C   UNL     1      53.442   2.606  17.935  0.00  0.00    +0.000 A 
ATOM     29  N   UNL     1      54.613   3.250  18.202  0.00  0.00    +0.000 NA
ATOM     30  C   UNL     1      54.530   4.538  18.167  0.00  0.00    +0.000 A 
ATOM     31  N   UNL     1      53.392   5.241  17.887  0.00  0.00    +0.000 N 
ATOM     32  C   UNL     1      52.197   4.641  17.586  0.00  0.00    +0.000 A 
ATOM     33  O   UNL     1      51.207   5.297  17.303  0.00  0.00    +0.000 OA
ATOM     34  C   UNL     1      52.228   3.184  17.620  0.00  0.00    +0.000 A 
ATOM     35  H   UNL     1      53.393   6.254  17.855  0.00  0.00    +0.000 HD
ENDBRANCH  22  25
ENDBRANCH  20  21
ENDBRANCH   5  20
TORSDOF 8
ENDMDL
MODEL 6
REMARK VINA RESULT:    -7.844      2.311      3.696
REMARK INTER + INTRA:         -12.612
REMARK INTER:                 -11.509
REMARK INTRA:                  -1.103
REMARK UNBOUND:                -1.329
REMARK  Name = 
REMARK  8 active torsions:
REMARK  status: ('A' for Active; 'I' for Inactive)
REMARK    1  A    between atoms: N_1  and  C_2
REMARK    2  A    between atoms: C_2  and  C_3
REMARK    3  A    between atoms: C_2  and  C_24
REMARK    4  A    between atoms: C_3  and  C_4
REMARK    5  A    between atoms: C_8  and  C_9
REMARK    6  A    between atoms: C_9  and  N_10
REMARK    7  A    between atoms: C_11  and  C_13
REMARK    8  A    between atoms: C_24  and  C_26
REMARK                            x       y       z     vdW  Elec       q    Type
REMARK                         _______ _______ _______ _____ _____    ______ ____
ROOT
ATOM      1  C   UNL     1      45.597   4.591  12.276  0.00  0.00    +0.000 A 
ATOM      2  C   UNL     1      46.113   5.803  11.796  0.00  0.00    +0.000 A 
ATOM      3  C   UNL     1      47.070   6.502  12.525  0.00  0.00    +0.000 A 
ATOM      4  C   UNL     1      47.498   6.013  13.759  0.00  0.00    +0.000 A 
ATOM      5  C   UNL     1      46.944   4.839  14.293  0.00  0.00    +0.000 A 
ATOM      6  C   UNL     1      46.029   4.110  13.520  0.00  0.00    +0.000 A 
ENDROOT
BRANCH   1   7
ATOM      7  C   UNL     1      44.557   3.850  11.467  0.00  0.00    +0.000 C 
BRANCH   7   8
ATOM      8  C   UNL     1      44.650   4.039   9.937  0.00  0.00    +0.000 C 
BRANCH   8   9
ATOM      9  N   UNL     1      43.532   4.853   9.408  0.00  0.00    +0.000 NA
ATOM     10  H   UNL     1      42.998   5.243  10.182  0.00  0.00    +0.000 HD
ATOM     11  H   UNL     1      42.897   4.206   8.927  0.00  0.00    +0.000 HD
ENDBRANCH   8   9
BRANCH   8  12
ATOM     12  C   UNL     1      44.710   2.697   9.174  0.00  0.00    +0.000 C 
ATOM     13  O   UNL     1      43.928   1.774   9.425  0.00  0.00    +0.000 OA
BRANCH  12  14
ATOM     14  C   UNL     1      45.746   2.485   8.111  0.00  0.00    +0.000 A 
ATOM     15  C   UNL     1      46.492   1.305   7.993  0.00  0.00    +0.000 A 
ATOM     16  C   UNL     1      47.475   1.184   7.005  0.00  0.00    +0.000 A 
ATOM     17  C   UNL     1      47.695   2.220   6.100  0.00  0.00    +0.000 A 
ATOM     18  C   UNL     1      46.938   3.385   6.186  0.00  0.00    +0.000 A 
ATOM     19  C   UNL     1      45.980   3.524   7.195  0.00  0.00    +0.000 A 
ENDBRANCH  12  14
ENDBRANCH   8  12
ENDBRANCH   7   8
ENDBRANCH   1   7
BRANCH   5  20
ATOM     20  C   UNL     1      47.322   4.371  15.678  0.00  0.00    +0.000 C 
BRANCH  20  21
ATOM     21  N   UNL     1      47.905   5.434  16.442  0.00  0.00    +0.000 N 
ATOM     22  C   UNL     1      47.971   5.414  17.810  0.00  0.00    +0.000 C 
ATOM     23  O   UNL     1      47.564   4.474  18.486  0.00  0.00    +0.000 OA
ATOM     24  H   UNL     1      47.935   6.331  15.977  0.00  0.00    +0.000 HD
BRANCH  22  25
ATOM     25  C   UNL     1      48.643   6.572  18.412  0.00  0.00    +0.000 A 
ATOM     26  C   UNL     1      47.963   7.402  19.294  0.00  0.00    +0.000 A 
ATOM     27  S   UNL     1      48.945   8.629  19.960  0.00  0.00    +0.000 S 
ATOM     28  C   UNL     1      50.293   8.128  19.050  0.00  0.00    +0.000 A 
ATOM     29  N   UNL     1      51.485   8.781  19.142  0.00  0.00    +0.000 NA
ATOM     30  C   UNL     1      52.411   8.306  18.376  0.00  0.00    +0.000 A 
ATOM     31  N   UNL     1      52.258   7.242  17.533  0.00  0.00    +0.000 N 
ATOM     32  C   UNL     1      51.088   6.536  17.423  0.00  0.00    +0.000 A 
ATOM     33  O   UNL     1      50.995   5.566  16.688  0.00  0.00    +0.000 OA
ATOM     34  C   UNL     1      50.002   7.034  18.260  0.00  0.00    +0.000 A 
ATOM     35  H   UNL     1      53.028   6.902  16.968  0.00  0.00    +0.000 HD
ENDBRANCH  22  25
ENDBRANCH  20  21
ENDBRANCH   5  20
TORSDOF 8
ENDMDL
MODEL 7
REMARK VINA RESULT:    -7.767      2.425      3.715
REMARK INTER + INTRA:         -12.501
REMARK INTER:                 -11.334
REMARK INTRA:                  -1.167
REMARK UNBOUND:                -1.329
REMARK  Name = 
REMARK  8 active torsions:
REMARK  status: ('A' for Active; 'I' for Inactive)
REMARK    1  A    between atoms: N_1  and  C_2
REMARK    2  A    between atoms: C_2  and  C_3
REMARK    3  A    between atoms: C_2  and  C_24
REMARK    4  A    between atoms: C_3  and  C_4
REMARK    5  A    between atoms: C_8  and  C_9
REMARK    6  A    between atoms: C_9  and  N_10
REMARK    7  A    between atoms: C_11  and  C_13
REMARK    8  A    between atoms: C_24  and  C_26
REMARK                            x       y       z     vdW  Elec       q    Type
REMARK                         _______ _______ _______ _____ _____    ______ ____
ROOT
ATOM      1  C   UNL     1      45.686   5.130  12.944  0.00  0.00    +0.000 A 
ATOM      2  C   UNL     1      46.316   6.259  12.403  0.00  0.00    +0.000 A 
ATOM      3  C   UNL     1      47.473   6.769  12.984  0.00  0.00    +0.000 A 
ATOM      4  C   UNL     1      47.995   6.175  14.133  0.00  0.00    +0.000 A 
ATOM      5  C   UNL     1      47.341   5.088  14.734  0.00  0.00    +0.000 A 
ATOM      6  C   UNL     1      46.213   4.543  14.103  0.00  0.00    +0.000 A 
ENDROOT
BRANCH   1   7
ATOM      7  C   UNL     1      44.428   4.596  12.296  0.00  0.00    +0.000 C 
BRANCH   7   8
ATOM      8  C   UNL     1      44.384   4.694  10.756  0.00  0.00    +0.000 C 
BRANCH   8   9
ATOM      9  N   UNL     1      43.230   5.493  10.283  0.00  0.00    +0.000 NA
ATOM     10  H   UNL     1      43.108   5.356   9.283  0.00  0.00    +0.000 HD
ATOM     11  H   UNL     1      43.484   6.480  10.404  0.00  0.00    +0.000 HD
ENDBRANCH   8   9
BRANCH   8  12
ATOM     12  C   UNL     1      44.361   3.309  10.072  0.00  0.00    +0.000 C 
ATOM     13  O   UNL     1      43.593   2.416  10.443  0.00  0.00    +0.000 OA
BRANCH  12  14
ATOM     14  C   UNL     1      45.298   3.019   8.937  0.00  0.00    +0.000 A 
ATOM     15  C   UNL     1      45.768   4.005   8.061  0.00  0.00    +0.000 A 
ATOM     16  C   UNL     1      46.608   3.663   6.995  0.00  0.00    +0.000 A 
ATOM     17  C   UNL     1      47.021   2.345   6.818  0.00  0.00    +0.000 A 
ATOM     18  C   UNL     1      46.586   1.361   7.702  0.00  0.00    +0.000 A 
ATOM     19  C   UNL     1      45.718   1.691   8.746  0.00  0.00    +0.000 A 
ENDBRANCH  12  14
ENDBRANCH   8  12
ENDBRANCH   7   8
ENDBRANCH   1   7
BRANCH   5  20
ATOM     20  C   UNL     1      47.839   4.516  16.040  0.00  0.00    +0.000 C 
BRANCH  20  21
ATOM     21  N   UNL     1      47.609   5.426  17.124  0.00  0.00    +0.000 N 
ATOM     22  C   UNL     1      48.340   5.401  18.282  0.00  0.00    +0.000 C 
ATOM     23  O   UNL     1      49.267   4.619  18.470  0.00  0.00    +0.000 OA
ATOM     24  H   UNL     1      46.683   5.833  17.154  0.00  0.00    +0.000 HD
BRANCH  22  25
ATOM     25  C   UNL     1      47.986   6.439  19.257  0.00  0.00    +0.000 A 
ATOM     26  C   UNL     1      47.668   6.097  20.566  0.00  0.00    +0.000 A 
ATOM     27  S   UNL     1      47.385   7.450  21.568  0.00  0.00    +0.000 S 
ATOM     28  C   UNL     1      47.621   8.532  20.275  0.00  0.00    +0.000 A 
ATOM     29  N   UNL     1      47.506   9.878  20.455  0.00  0.00    +0.000 NA
ATOM     30  C   UNL     1      47.687  10.574  19.382  0.00  0.00    +0.000 A 
ATOM     31  N   UNL     1      47.974  10.053  18.152  0.00  0.00    +0.000 N 
ATOM     32  C   UNL     1      48.126   8.710  17.924  0.00  0.00    +0.000 A 
ATOM     33  O   UNL     1      48.420   8.279  16.820  0.00  0.00    +0.000 OA
ATOM     34  C   UNL     1      47.924   7.872  19.100  0.00  0.00    +0.000 A 
ATOM     35  H   UNL     1      48.125  10.652  17.348  0.00  0.00    +0.000 HD
ENDBRANCH  22  25
ENDBRANCH  20  21
ENDBRANCH   5  20
TORSDOF 8
ENDMDL
MODEL 8
REMARK VINA RESULT:    -7.620      3.357      8.191
REMARK INTER + INTRA:         -12.290
REMARK INTER:                 -10.331
REMARK INTRA:                  -1.959
REMARK UNBOUND:                -1.329
REMARK  Name = 
REMARK  8 active torsions:
REMARK  status: ('A' for Active; 'I' for Inactive)
REMARK    1  A    between atoms: N_1  and  C_2
REMARK    2  A    between atoms: C_2  and  C_3
REMARK    3  A    between atoms: C_2  and  C_24
REMARK    4  A    between atoms: C_3  and  C_4
REMARK    5  A    between atoms: C_8  and  C_9
REMARK    6  A    between atoms: C_9  and  N_10
REMARK    7  A    between atoms: C_11  and  C_13
REMARK    8  A    between atoms: C_24  and  C_26
REMARK                            x       y       z     vdW  Elec       q    Type
REMARK                         _______ _______ _______ _____ _____    ______ ____
ROOT
ATOM      1  C   UNL     1      48.944   4.703  18.227  0.00  0.00    +0.000 A 
ATOM      2  C   UNL     1      48.928   5.305  19.492  0.00  0.00    +0.000 A 
ATOM      3  C   UNL     1      48.811   6.685  19.618  0.00  0.00    +0.000 A 
ATOM      4  C   UNL     1      48.743   7.484  18.476  0.00  0.00    +0.000 A 
ATOM      5  C   UNL     1      48.829   6.911  17.198  0.00  0.00    +0.000 A 
ATOM      6  C   UNL     1      48.881   5.514  17.084  0.00  0.00    +0.000 A 
ENDROOT
BRANCH   1   7
ATOM      7  C   UNL     1      49.073   3.201  18.115  0.00  0.00    +0.000 C 
BRANCH   7   8
ATOM      8  C   UNL     1      49.927   2.696  16.932  0.00  0.00    +0.000 C 
BRANCH   8   9
ATOM      9  N   UNL     1      49.195   1.719  16.095  0.00  0.00    +0.000 NA
ATOM     10  H   UNL     1      48.196   1.798  16.274  0.00  0.00    +0.000 HD
ATOM     11  H   UNL     1      49.467   0.785  16.423  0.00  0.00    +0.000 HD
ENDBRANCH   8   9
BRANCH   8  12
ATOM     12  C   UNL     1      51.267   2.075  17.387  0.00  0.00    +0.000 C 
ATOM     13  O   UNL     1      51.470   0.859  17.328  0.00  0.00    +0.000 OA
BRANCH  12  14
ATOM     14  C   UNL     1      52.354   2.955  17.931  0.00  0.00    +0.000 A 
ATOM     15  C   UNL     1      52.473   4.313  17.610  0.00  0.00    +0.000 A 
ATOM     16  C   UNL     1      53.534   5.070  18.117  0.00  0.00    +0.000 A 
ATOM     17  C   UNL     1      54.461   4.494  18.981  0.00  0.00    +0.000 A 
ATOM     18  C   UNL     1      54.336   3.153  19.334  0.00  0.00    +0.000 A 
ATOM     19  C   UNL     1      53.298   2.383  18.801  0.00  0.00    +0.000 A 
ENDBRANCH  12  14
ENDBRANCH   8  12
ENDBRANCH   7   8
ENDBRANCH   1   7
BRANCH   5  20
ATOM     20  C   UNL     1      48.871   7.782  15.965  0.00  0.00    +0.000 C 
BRANCH  20  21
ATOM     21  N   UNL     1      47.833   7.424  15.044  0.00  0.00    +0.000 N 
ATOM     22  C   UNL     1      48.086   6.833  13.834  0.00  0.00    +0.000 C 
ATOM     23  O   UNL     1      49.216   6.538  13.457  0.00  0.00    +0.000 OA
ATOM     24  H   UNL     1      46.967   7.936  15.152  0.00  0.00    +0.000 HD
BRANCH  22  25
ATOM     25  C   UNL     1      46.891   6.502  13.048  0.00  0.00    +0.000 A 
ATOM     26  C   UNL     1      46.189   7.497  12.379  0.00  0.00    +0.000 A 
ATOM     27  S   UNL     1      44.894   6.897  11.442  0.00  0.00    +0.000 S 
ATOM     28  C   UNL     1      45.193   5.299  11.943  0.00  0.00    +0.000 A 
ATOM     29  N   UNL     1      44.416   4.268  11.508  0.00  0.00    +0.000 NA
ATOM     30  C   UNL     1      44.744   3.115  11.989  0.00  0.00    +0.000 A 
ATOM     31  N   UNL     1      45.774   2.896  12.859  0.00  0.00    +0.000 N 
ATOM     32  C   UNL     1      46.601   3.894  13.306  0.00  0.00    +0.000 A 
ATOM     33  O   UNL     1      47.537   3.659  14.055  0.00  0.00    +0.000 OA
ATOM     34  C   UNL     1      46.272   5.222  12.802  0.00  0.00    +0.000 A 
ATOM     35  H   UNL     1      45.996   1.964  13.189  0.00  0.00    +0.000 HD
ENDBRANCH  22  25
ENDBRANCH  20  21
ENDBRANCH   5  20
TORSDOF 8
ENDMDL
MODEL 9
REMARK VINA RESULT:    -7.357      3.213      7.874
REMARK INTER + INTRA:         -11.912
REMARK INTER:                 -10.653
REMARK INTRA:                  -1.259
REMARK UNBOUND:                -1.329
REMARK  Name = 
REMARK  8 active torsions:
REMARK  status: ('A' for Active; 'I' for Inactive)
REMARK    1  A    between atoms: N_1  and  C_2
REMARK    2  A    between atoms: C_2  and  C_3
REMARK    3  A    between atoms: C_2  and  C_24
REMARK    4  A    between atoms: C_3  and  C_4
REMARK    5  A    between atoms: C_8  and  C_9
REMARK    6  A    between atoms: C_9  and  N_10
REMARK    7  A    between atoms: C_11  and  C_13
REMARK    8  A    between atoms: C_24  and  C_26
REMARK                            x       y       z     vdW  Elec       q    Type
REMARK                         _______ _______ _______ _____ _____    ______ ____
ROOT
ATOM      1  C   UNL     1      49.231   7.168  15.257  0.00  0.00    +0.000 A 
ATOM      2  C   UNL     1      50.558   7.587  15.084  0.00  0.00    +0.000 A 
ATOM      3  C   UNL     1      50.967   8.164  13.887  0.00  0.00    +0.000 A 
ATOM      4  C   UNL     1      50.062   8.298  12.834  0.00  0.00    +0.000 A 
ATOM      5  C   UNL     1      48.748   7.820  12.958  0.00  0.00    +0.000 A 
ATOM      6  C   UNL     1      48.330   7.300  14.192  0.00  0.00    +0.000 A 
ENDROOT
BRANCH   1   7
ATOM      7  C   UNL     1      48.810   6.542  16.567  0.00  0.00    +0.000 C 
BRANCH   7   8
ATOM      8  C   UNL     1      48.545   5.022  16.519  0.00  0.00    +0.000 C 
BRANCH   8   9
ATOM      9  N   UNL     1      47.113   4.714  16.300  0.00  0.00    +0.000 NA
ATOM     10  H   UNL     1      46.620   4.735  17.189  0.00  0.00    +0.000 HD
ATOM     11  H   UNL     1      47.066   3.742  15.974  0.00  0.00    +0.000 HD
ENDBRANCH   8   9
BRANCH   8  12
ATOM     12  C   UNL     1      49.035   4.292  17.790  0.00  0.00    +0.000 C 
ATOM     13  O   UNL     1      48.442   4.401  18.868  0.00  0.00    +0.000 OA
BRANCH  12  14
ATOM     14  C   UNL     1      50.267   3.439  17.736  0.00  0.00    +0.000 A 
ATOM     15  C   UNL     1      50.257   2.105  17.309  0.00  0.00    +0.000 A 
ATOM     16  C   UNL     1      51.434   1.348  17.322  0.00  0.00    +0.000 A 
ATOM     17  C   UNL     1      52.638   1.925  17.718  0.00  0.00    +0.000 A 
ATOM     18  C   UNL     1      52.667   3.259  18.114  0.00  0.00    +0.000 A 
ATOM     19  C   UNL     1      51.487   4.008  18.138  0.00  0.00    +0.000 A 
ENDBRANCH  12  14
ENDBRANCH   8  12
ENDBRANCH   7   8
ENDBRANCH   1   7
BRANCH   5  20
ATOM     20  C   UNL     1      47.800   7.860  11.782  0.00  0.00    +0.000 C 
BRANCH  20  21
ATOM     21  N   UNL     1      47.018   6.661  11.708  0.00  0.00    +0.000 N 
ATOM     22  C   UNL     1      45.648   6.670  11.682  0.00  0.00    +0.000 C 
ATOM     23  O   UNL     1      44.986   7.703  11.689  0.00  0.00    +0.000 OA
ATOM     24  H   UNL     1      47.482   5.824  12.035  0.00  0.00    +0.000 HD
BRANCH  22  25
ATOM     25  C   UNL     1      45.025   5.347  11.561  0.00  0.00    +0.000 A 
ATOM     26  C   UNL     1      44.333   4.792  12.631  0.00  0.00    +0.000 A 
ATOM     27  S   UNL     1      43.599   3.297  12.260  0.00  0.00    +0.000 S 
ATOM     28  C   UNL     1      44.227   3.313  10.678  0.00  0.00    +0.000 A 
ATOM     29  N   UNL     1      43.980   2.290   9.813  0.00  0.00    +0.000 NA
ATOM     30  C   UNL     1      44.540   2.426   8.657  0.00  0.00    +0.000 A 
ATOM     31  N   UNL     1      45.318   3.485   8.285  0.00  0.00    +0.000 N 
ATOM     32  C   UNL     1      45.576   4.550   9.108  0.00  0.00    +0.000 A 
ATOM     33  O   UNL     1      46.245   5.500   8.733  0.00  0.00    +0.000 OA
ATOM     34  C   UNL     1      44.975   4.448  10.433  0.00  0.00    +0.000 A 
ATOM     35  H   UNL     1      45.717   3.545   7.355  0.00  0.00    +0.000 HD
ENDBRANCH  22  25
ENDBRANCH  20  21
ENDBRANCH   5  20
TORSDOF 8
ENDMDL
