MODEL 1
REMARK VINA RESULT:    -8.273      0.000      0.000
REMARK INTER + INTRA:         -11.904
REMARK INTER:                 -10.691
REMARK INTRA:                  -1.213
REMARK UNBOUND:                -1.213
REMARK  Name = 
REMARK  6 active torsions:
REMARK  status: ('A' for Active; 'I' for Inactive)
REMARK    1  A    between atoms: C_1  and  O_2
REMARK    2  A    between atoms: O_2  and  C_3
REMARK    3  A    between atoms: C_9  and  C_10
REMARK    4  A    between atoms: C_10  and  O_11
REMARK    5  A    between atoms: O_11  and  C_12
REMARK    6  A    between atoms: C_16  and  C_17
REMARK                            x       y       z     vdW  Elec       q    Type
REMARK                         _______ _______ _______ _____ _____    ______ ____
ROOT
ATOM      1  C   UNL     1      43.968   5.054  10.949  0.00  0.00    +0.000 A 
ATOM      2  C   UNL     1      43.248   4.130  11.691  0.00  0.00    +0.000 A 
ATOM      3  C   UNL     1      43.315   2.802  11.314  0.00  0.00    +0.000 A 
ATOM      4  N   UNL     1      44.034   2.353  10.260  0.00  0.00    +0.000 NA
ATOM      5  C   UNL     1      44.702   3.267   9.516  0.00  0.00    +0.000 A 
ATOM      6  C   UNL     1      44.673   4.623   9.830  0.00  0.00    +0.000 A 
ENDROOT
BRANCH   5   7
ATOM      7  C   UNL     1      45.522   2.758   8.399  0.00  0.00    +0.000 A 
ATOM      8  C   UNL     1      45.873   3.575   7.305  0.00  0.00    +0.000 A 
ATOM      9  C   UNL     1      46.723   3.117   6.296  0.00  0.00    +0.000 A 
ATOM     10  C   UNL     1      47.228   1.823   6.350  0.00  0.00    +0.000 A 
ATOM     11  C   UNL     1      46.877   0.985   7.405  0.00  0.00    +0.000 A 
ATOM     12  C   UNL     1      46.030   1.449   8.417  0.00  0.00    +0.000 A 
ENDBRANCH   5   7
BRANCH   1  13
ATOM     13  O   UNL     1      43.939   6.348  11.390  0.00  0.00    +0.000 OA
BRANCH  13  14
ATOM     14  C   UNL     1      44.512   6.556  12.690  0.00  0.00    +0.000 C 
BRANCH  14  21
ATOM     15  C   UNL     1      46.849   5.792  13.219  0.00  0.00    +0.000 A 
ATOM     16  N   UNL     1      48.195   5.880  13.220  0.00  0.00    +0.000 NA
ATOM     17  C   UNL     1      48.722   6.965  12.624  0.00  0.00    +0.000 A 
ATOM     18  F   UNL     1      50.059   7.084  12.628  0.00  0.00    +0.000 F 
ATOM     19  C   UNL     1      47.979   7.972  12.037  0.00  0.00    +0.000 A 
ATOM     20  C   UNL     1      46.598   7.845  12.026  0.00  0.00    +0.000 A 
ATOM     21  C   UNL     1      46.004   6.719  12.605  0.00  0.00    +0.000 A 
BRANCH  15  23
ATOM     22  C   UNL     1      46.563   3.478  13.286  0.00  0.00    +0.000 C 
ATOM     23  O   UNL     1      46.253   4.736  13.882  0.00  0.00    +0.000 OA
ENDBRANCH  15  23
ENDBRANCH  14  21
ENDBRANCH  13  14
ENDBRANCH   1  13
TORSDOF 5
ENDMDL
MODEL 2
REMARK VINA RESULT:    -7.705      1.527      2.279
REMARK INTER + INTRA:         -11.170
REMARK INTER:                 -10.231
REMARK INTRA:                  -0.938
REMARK UNBOUND:                -1.213
REMARK  Name = 
REMARK  6 active torsions:
REMARK  status: ('A' for Active; 'I' for Inactive)
REMARK    1  A    between atoms: C_1  and  O_2
REMARK    2  A    between atoms: O_2  and  C_3
REMARK    3  A    between atoms: C_9  and  C_10
REMARK    4  A    between atoms: C_10  and  O_11
REMARK    5  A    between atoms: O_11  and  C_12
REMARK    6  A    between atoms: C_16  and  C_17
REMARK                            x       y       z     vdW  Elec       q    Type
REMARK                         _______ _______ _______ _____ _____    ______ ____
ROOT
ATOM      1  C   UNL     1      44.069   5.111  10.972  0.00  0.00    +0.000 A 
ATOM      2  C   UNL     1      43.323   4.196  11.698  0.00  0.00    +0.000 A 
ATOM      3  C   UNL     1      43.362   2.871  11.306  0.00  0.00    +0.000 A 
ATOM      4  N   UNL     1      44.078   2.417  10.252  0.00  0.00    +0.000 NA
ATOM      5  C   UNL     1      44.771   3.325   9.523  0.00  0.00    +0.000 A 
ATOM      6  C   UNL     1      44.771   4.678   9.853  0.00  0.00    +0.000 A 
ENDROOT
BRANCH   5   7
ATOM      7  C   UNL     1      45.587   2.810   8.405  0.00  0.00    +0.000 A 
ATOM      8  C   UNL     1      45.984   3.637   7.334  0.00  0.00    +0.000 A 
ATOM      9  C   UNL     1      46.829   3.171   6.326  0.00  0.00    +0.000 A 
ATOM     10  C   UNL     1      47.285   1.857   6.358  0.00  0.00    +0.000 A 
ATOM     11  C   UNL     1      46.888   1.010   7.389  0.00  0.00    +0.000 A 
ATOM     12  C   UNL     1      46.046   1.483   8.400  0.00  0.00    +0.000 A 
ENDBRANCH   5   7
BRANCH   1  13
ATOM     13  O   UNL     1      44.066   6.401  11.428  0.00  0.00    +0.000 OA
BRANCH  13  14
ATOM     14  C   UNL     1      44.796   6.612  12.646  0.00  0.00    +0.000 C 
BRANCH  14  21
ATOM     15  C   UNL     1      46.117   8.737  12.395  0.00  0.00    +0.000 A 
ATOM     16  N   UNL     1      47.220   9.470  12.141  0.00  0.00    +0.000 NA
ATOM     17  C   UNL     1      48.330   8.783  11.817  0.00  0.00    +0.000 A 
ATOM     18  F   UNL     1      49.437   9.492  11.543  0.00  0.00    +0.000 F 
ATOM     19  C   UNL     1      48.397   7.406  11.723  0.00  0.00    +0.000 A 
ATOM     20  C   UNL     1      47.256   6.674  12.014  0.00  0.00    +0.000 A 
ATOM     21  C   UNL     1      46.084   7.341  12.387  0.00  0.00    +0.000 A 
BRANCH  15  23
ATOM     22  C   UNL     1      44.731  10.519  11.806  0.00  0.00    +0.000 C 
ATOM     23  O   UNL     1      44.930   9.395  12.661  0.00  0.00    +0.000 OA
ENDBRANCH  15  23
ENDBRANCH  14  21
ENDBRANCH  13  14
ENDBRANCH   1  13
TORSDOF 5
ENDMDL
MODEL 3
REMARK VINA RESULT:    -7.206      1.846      2.558
REMARK INTER + INTRA:         -10.526
REMARK INTER:                  -9.785
REMARK INTRA:                  -0.741
REMARK UNBOUND:                -1.213
REMARK  Name = 
REMARK  6 active torsions:
REMARK  status: ('A' for Active; 'I' for Inactive)
REMARK    1  A    between atoms: C_1  and  O_2
REMARK    2  A    between atoms: O_2  and  C_3
REMARK    3  A    between atoms: C_9  and  C_10
REMARK    4  A    between atoms: C_10  and  O_11
REMARK    5  A    between atoms: O_11  and  C_12
REMARK    6  A    between atoms: C_16  and  C_17
REMARK                            x       y       z     vdW  Elec       q    Type
REMARK                         _______ _______ _______ _____ _____    ______ ____
ROOT
ATOM      1  C   UNL     1      44.624   4.776  11.615  0.00  0.00    +0.000 A 
ATOM      2  C   UNL     1      43.605   3.968  12.096  0.00  0.00    +0.000 A 
ATOM      3  C   UNL     1      43.294   2.824  11.384  0.00  0.00    +0.000 A 
ATOM      4  N   UNL     1      43.919   2.452  10.244  0.00  0.00    +0.000 NA
ATOM      5  C   UNL     1      44.886   3.269   9.759  0.00  0.00    +0.000 A 
ATOM      6  C   UNL     1      45.246   4.441  10.417  0.00  0.00    +0.000 A 
ENDROOT
BRANCH   5   7
ATOM      7  C   UNL     1      45.593   2.826   8.542  0.00  0.00    +0.000 A 
ATOM      8  C   UNL     1      45.883   3.717   7.488  0.00  0.00    +0.000 A 
ATOM      9  C   UNL     1      46.631   3.317   6.378  0.00  0.00    +0.000 A 
ATOM     10  C   UNL     1      47.092   2.007   6.290  0.00  0.00    +0.000 A 
ATOM     11  C   UNL     1      46.798   1.099   7.304  0.00  0.00    +0.000 A 
ATOM     12  C   UNL     1      46.054   1.505   8.416  0.00  0.00    +0.000 A 
ENDBRANCH   5   7
BRANCH   1  13
ATOM     13  O   UNL     1      44.956   5.860  12.380  0.00  0.00    +0.000 OA
BRANCH  13  14
ATOM     14  C   UNL     1      46.355   6.180  12.400  0.00  0.00    +0.000 C 
BRANCH  14  21
ATOM     15  C   UNL     1      48.093   6.484  14.192  0.00  0.00    +0.000 A 
ATOM     16  N   UNL     1      48.736   6.180  15.339  0.00  0.00    +0.000 NA
ATOM     17  C   UNL     1      48.280   5.108  16.011  0.00  0.00    +0.000 A 
ATOM     18  F   UNL     1      48.915   4.776  17.146  0.00  0.00    +0.000 F 
ATOM     19  C   UNL     1      47.226   4.316  15.596  0.00  0.00    +0.000 A 
ATOM     20  C   UNL     1      46.566   4.664  14.428  0.00  0.00    +0.000 A 
ATOM     21  C   UNL     1      46.982   5.790  13.709  0.00  0.00    +0.000 A 
BRANCH  15  23
ATOM     22  C   UNL     1      49.139   8.569  14.217  0.00  0.00    +0.000 C 
ATOM     23  O   UNL     1      48.566   7.531  13.424  0.00  0.00    +0.000 OA
ENDBRANCH  15  23
ENDBRANCH  14  21
ENDBRANCH  13  14
ENDBRANCH   1  13
TORSDOF 5
ENDMDL
MODEL 4
REMARK VINA RESULT:    -6.527      2.257      2.909
REMARK INTER + INTRA:          -9.648
REMARK INTER:                  -8.817
REMARK INTRA:                  -0.830
REMARK UNBOUND:                -1.213
REMARK  Name = 
REMARK  6 active torsions:
REMARK  status: ('A' for Active; 'I' for Inactive)
REMARK    1  A    between atoms: C_1  and  O_2
REMARK    2  A    between atoms: O_2  and  C_3
REMARK    3  A    between atoms: C_9  and  C_10
REMARK    4  A    between atoms: C_10  and  O_11
REMARK    5  A    between atoms: O_11  and  C_12
REMARK    6  A    between atoms: C_16  and  C_17
REMARK                            x       y       z     vdW  Elec       q    Type
REMARK                         _______ _______ _______ _____ _____    ______ ____
ROOT
ATOM      1  C   UNL     1      44.742   6.040  12.120  0.00  0.00    +0.000 A 
ATOM      2  C   UNL     1      43.420   5.755  12.428  0.00  0.00    +0.000 A 
ATOM      3  C   UNL     1      42.770   4.799  11.671  0.00  0.00    +0.000 A 
ATOM      4  N   UNL     1      43.343   4.133  10.643  0.00  0.00    +0.000 NA
ATOM      5  C   UNL     1      44.621   4.447  10.322  0.00  0.00    +0.000 A 
ATOM      6  C   UNL     1      45.337   5.406  11.035  0.00  0.00    +0.000 A 
ENDROOT
BRANCH   5   7
ATOM      7  C   UNL     1      45.250   3.678   9.230  0.00  0.00    +0.000 A 
ATOM      8  C   UNL     1      45.894   4.315   8.149  0.00  0.00    +0.000 A 
ATOM      9  C   UNL     1      46.565   3.585   7.167  0.00  0.00    +0.000 A 
ATOM     10  C   UNL     1      46.594   2.196   7.234  0.00  0.00    +0.000 A 
ATOM     11  C   UNL     1      45.944   1.539   8.276  0.00  0.00    +0.000 A 
ATOM     12  C   UNL     1      45.278   2.274   9.261  0.00  0.00    +0.000 A 
ENDBRANCH   5   7
BRANCH   1  13
ATOM     13  O   UNL     1      45.379   6.937  12.932  0.00  0.00    +0.000 OA
BRANCH  13  14
ATOM     14  C   UNL     1      46.799   7.021  12.743  0.00  0.00    +0.000 C 
BRANCH  14  21
ATOM     15  C   UNL     1      48.516   8.612  11.825  0.00  0.00    +0.000 A 
ATOM     16  N   UNL     1      48.966   9.801  11.371  0.00  0.00    +0.000 NA
ATOM     17  C   UNL     1      48.073  10.807  11.351  0.00  0.00    +0.000 A 
ATOM     18  F   UNL     1      48.502  12.004  10.920  0.00  0.00    +0.000 F 
ATOM     19  C   UNL     1      46.760  10.695  11.768  0.00  0.00    +0.000 A 
ATOM     20  C   UNL     1      46.316   9.456  12.205  0.00  0.00    +0.000 A 
ATOM     21  C   UNL     1      47.198   8.370  12.215  0.00  0.00    +0.000 A 
BRANCH  15  23
ATOM     22  C   UNL     1      50.740   7.946  11.588  0.00  0.00    +0.000 C 
ATOM     23  O   UNL     1      49.411   7.564  11.937  0.00  0.00    +0.000 OA
ENDBRANCH  15  23
ENDBRANCH  14  21
ENDBRANCH  13  14
ENDBRANCH   1  13
TORSDOF 5
ENDMDL
MODEL 5
REMARK VINA RESULT:    -6.272      2.030      3.103
REMARK INTER + INTRA:          -9.318
REMARK INTER:                  -8.589
REMARK INTRA:                  -0.730
REMARK UNBOUND:                -1.213
REMARK  Name = 
REMARK  6 active torsions:
REMARK  status: ('A' for Active; 'I' for Inactive)
REMARK    1  A    between atoms: C_1  and  O_2
REMARK    2  A    between atoms: O_2  and  C_3
REMARK    3  A    between atoms: C_9  and  C_10
REMARK    4  A    between atoms: C_10  and  O_11
REMARK    5  A    between atoms: O_11  and  C_12
REMARK    6  A    between atoms: C_16  and  C_17
REMARK                            x       y       z     vdW  Elec       q    Type
REMARK                         _______ _______ _______ _____ _____    ______ ____
ROOT
ATOM      1  C   UNL     1      44.748   5.930  11.993  0.00  0.00    +0.000 A 
ATOM      2  C   UNL     1      43.430   5.597  12.266  0.00  0.00    +0.000 A 
ATOM      3  C   UNL     1      42.837   4.615  11.496  0.00  0.00    +0.000 A 
ATOM      4  N   UNL     1      43.464   3.966  10.488  0.00  0.00    +0.000 NA
ATOM      5  C   UNL     1      44.739   4.327  10.201  0.00  0.00    +0.000 A 
ATOM      6  C   UNL     1      45.397   5.314  10.929  0.00  0.00    +0.000 A 
ENDROOT
BRANCH   5   7
ATOM      7  C   UNL     1      45.426   3.577   9.132  0.00  0.00    +0.000 A 
ATOM      8  C   UNL     1      45.484   2.168   9.133  0.00  0.00    +0.000 A 
ATOM      9  C   UNL     1      46.057   1.461   8.074  0.00  0.00    +0.000 A 
ATOM     10  C   UNL     1      46.602   2.148   6.995  0.00  0.00    +0.000 A 
ATOM     11  C   UNL     1      46.582   3.541   6.980  0.00  0.00    +0.000 A 
ATOM     12  C   UNL     1      46.003   4.246   8.040  0.00  0.00    +0.000 A 
ENDBRANCH   5   7
BRANCH   1  13
ATOM     13  O   UNL     1      45.328   6.854  12.819  0.00  0.00    +0.000 OA
BRANCH  13  14
ATOM     14  C   UNL     1      45.624   8.115  12.201  0.00  0.00    +0.000 C 
BRANCH  14  21
ATOM     15  C   UNL     1      47.601   9.625  11.834  0.00  0.00    +0.000 A 
ATOM     16  N   UNL     1      48.913   9.921  11.729  0.00  0.00    +0.000 NA
ATOM     17  C   UNL     1      49.769   8.896  11.892  0.00  0.00    +0.000 A 
ATOM     18  F   UNL     1      51.080   9.163  11.775  0.00  0.00    +0.000 F 
ATOM     19  C   UNL     1      49.388   7.592  12.144  0.00  0.00    +0.000 A 
ATOM     20  C   UNL     1      48.035   7.319  12.273  0.00  0.00    +0.000 A 
ATOM     21  C   UNL     1      47.106   8.357  12.143  0.00  0.00    +0.000 A 
BRANCH  15  23
ATOM     22  C   UNL     1      47.136  11.902  12.039  0.00  0.00    +0.000 C 
ATOM     23  O   UNL     1      46.675  10.625  11.601  0.00  0.00    +0.000 OA
ENDBRANCH  15  23
ENDBRANCH  14  21
ENDBRANCH  13  14
ENDBRANCH   1  13
TORSDOF 5
ENDMDL
MODEL 6
REMARK VINA RESULT:    -6.245      3.097      7.036
REMARK INTER + INTRA:          -9.284
REMARK INTER:                  -8.452
REMARK INTRA:                  -0.832
REMARK UNBOUND:                -1.213
REMARK  Name = 
REMARK  6 active torsions:
REMARK  status: ('A' for Active; 'I' for Inactive)
REMARK    1  A    between atoms: C_1  and  O_2
REMARK    2  A    between atoms: O_2  and  C_3
REMARK    3  A    between atoms: C_9  and  C_10
REMARK    4  A    between atoms: C_10  and  O_11
REMARK    5  A    between atoms: O_11  and  C_12
REMARK    6  A    between atoms: C_16  and  C_17
REMARK                            x       y       z     vdW  Elec       q    Type
REMARK                         _______ _______ _______ _____ _____    ______ ____
ROOT
ATOM      1  C   UNL     1      47.437   6.849  12.435  0.00  0.00    +0.000 A 
ATOM      2  C   UNL     1      47.904   8.138  12.643  0.00  0.00    +0.000 A 
ATOM      3  C   UNL     1      48.432   8.444  13.882  0.00  0.00    +0.000 A 
ATOM      4  N   UNL     1      48.514   7.563  14.906  0.00  0.00    +0.000 NA
ATOM      5  C   UNL     1      48.018   6.317  14.707  0.00  0.00    +0.000 A 
ATOM      6  C   UNL     1      47.463   5.941  13.487  0.00  0.00    +0.000 A 
ENDROOT
BRANCH   5   7
ATOM      7  C   UNL     1      48.158   5.352  15.815  0.00  0.00    +0.000 A 
ATOM      8  C   UNL     1      47.298   4.242  15.943  0.00  0.00    +0.000 A 
ATOM      9  C   UNL     1      47.489   3.282  16.940  0.00  0.00    +0.000 A 
ATOM     10  C   UNL     1      48.538   3.421  17.843  0.00  0.00    +0.000 A 
ATOM     11  C   UNL     1      49.386   4.521  17.756  0.00  0.00    +0.000 A 
ATOM     12  C   UNL     1      49.195   5.477  16.754  0.00  0.00    +0.000 A 
ENDBRANCH   5   7
BRANCH   1  13
ATOM     13  O   UNL     1      46.987   6.558  11.176  0.00  0.00    +0.000 OA
BRANCH  13  14
ATOM     14  C   UNL     1      45.566   6.384  11.068  0.00  0.00    +0.000 C 
BRANCH  14  21
ATOM     15  C   UNL     1      44.740   4.016  11.243  0.00  0.00    +0.000 A 
ATOM     16  N   UNL     1      44.442   2.785  10.778  0.00  0.00    +0.000 NA
ATOM     17  C   UNL     1      44.686   2.567   9.473  0.00  0.00    +0.000 A 
ATOM     18  F   UNL     1      44.414   1.344   8.990  0.00  0.00    +0.000 F 
ATOM     19  C   UNL     1      45.219   3.506   8.610  0.00  0.00    +0.000 A 
ATOM     20  C   UNL     1      45.493   4.771   9.107  0.00  0.00    +0.000 A 
ATOM     21  C   UNL     1      45.227   5.057  10.451  0.00  0.00    +0.000 A 
BRANCH  15  23
ATOM     22  C   UNL     1      43.210   4.443  12.952  0.00  0.00    +0.000 C 
ATOM     23  O   UNL     1      44.580   4.271  12.593  0.00  0.00    +0.000 OA
ENDBRANCH  15  23
ENDBRANCH  14  21
ENDBRANCH  13  14
ENDBRANCH   1  13
TORSDOF 5
ENDMDL
MODEL 7
REMARK VINA RESULT:    -6.149      4.856      7.989
REMARK INTER + INTRA:          -9.160
REMARK INTER:                  -8.396
REMARK INTRA:                  -0.764
REMARK UNBOUND:                -1.213
REMARK  Name = 
REMARK  6 active torsions:
REMARK  status: ('A' for Active; 'I' for Inactive)
REMARK    1  A    between atoms: C_1  and  O_2
REMARK    2  A    between atoms: O_2  and  C_3
REMARK    3  A    between atoms: C_9  and  C_10
REMARK    4  A    between atoms: C_10  and  O_11
REMARK    5  A    between atoms: O_11  and  C_12
REMARK    6  A    between atoms: C_16  and  C_17
REMARK                            x       y       z     vdW  Elec       q    Type
REMARK                         _______ _______ _______ _____ _____    ______ ____
ROOT
ATOM      1  C   UNL     1      47.612   3.891  16.712  0.00  0.00    +0.000 A 
ATOM      2  C   UNL     1      47.332   4.815  17.707  0.00  0.00    +0.000 A 
ATOM      3  C   UNL     1      48.300   5.047  18.667  0.00  0.00    +0.000 A 
ATOM      4  N   UNL     1      49.498   4.420  18.697  0.00  0.00    +0.000 NA
ATOM      5  C   UNL     1      49.747   3.489  17.744  0.00  0.00    +0.000 A 
ATOM      6  C   UNL     1      48.816   3.196  16.751  0.00  0.00    +0.000 A 
ENDROOT
BRANCH   5   7
ATOM      7  C   UNL     1      51.076   2.848  17.759  0.00  0.00    +0.000 A 
ATOM      8  C   UNL     1      51.248   1.489  17.423  0.00  0.00    +0.000 A 
ATOM      9  C   UNL     1      52.517   0.910  17.350  0.00  0.00    +0.000 A 
ATOM     10  C   UNL     1      53.644   1.675  17.631  0.00  0.00    +0.000 A 
ATOM     11  C   UNL     1      53.502   3.012  17.991  0.00  0.00    +0.000 A 
ATOM     12  C   UNL     1      52.231   3.590  18.057  0.00  0.00    +0.000 A 
ENDBRANCH   5   7
BRANCH   1  13
ATOM     13  O   UNL     1      46.664   3.738  15.738  0.00  0.00    +0.000 OA
BRANCH  13  14
ATOM     14  C   UNL     1      47.179   3.664  14.400  0.00  0.00    +0.000 C 
BRANCH  14  21
ATOM     15  C   UNL     1      45.433   4.476  12.783  0.00  0.00    +0.000 A 
ATOM     16  N   UNL     1      44.852   5.366  11.952  0.00  0.00    +0.000 NA
ATOM     17  C   UNL     1      45.473   6.552  11.823  0.00  0.00    +0.000 A 
ATOM     18  F   UNL     1      44.924   7.449  10.989  0.00  0.00    +0.000 F 
ATOM     19  C   UNL     1      46.647   6.895  12.469  0.00  0.00    +0.000 A 
ATOM     20  C   UNL     1      47.209   5.971  13.337  0.00  0.00    +0.000 A 
ATOM     21  C   UNL     1      46.584   4.735  13.529  0.00  0.00    +0.000 A 
BRANCH  15  23
ATOM     22  C   UNL     1      43.638   3.104  12.199  0.00  0.00    +0.000 C 
ATOM     23  O   UNL     1      44.878   3.214  12.895  0.00  0.00    +0.000 OA
ENDBRANCH  15  23
ENDBRANCH  14  21
ENDBRANCH  13  14
ENDBRANCH   1  13
TORSDOF 5
ENDMDL
MODEL 8
REMARK VINA RESULT:    -6.005      3.244      7.273
REMARK INTER + INTRA:          -8.973
REMARK INTER:                  -8.195
REMARK INTRA:                  -0.778
REMARK UNBOUND:                -1.213
REMARK  Name = 
REMARK  6 active torsions:
REMARK  status: ('A' for Active; 'I' for Inactive)
REMARK    1  A    between atoms: C_1  and  O_2
REMARK    2  A    between atoms: O_2  and  C_3
REMARK    3  A    between atoms: C_9  and  C_10
REMARK    4  A    between atoms: C_10  and  O_11
REMARK    5  A    between atoms: O_11  and  C_12
REMARK    6  A    between atoms: C_16  and  C_17
REMARK                            x       y       z     vdW  Elec       q    Type
REMARK                         _______ _______ _______ _____ _____    ______ ____
ROOT
ATOM      1  C   UNL     1      47.587   6.769  12.686  0.00  0.00    +0.000 A 
ATOM      2  C   UNL     1      48.274   7.966  12.813  0.00  0.00    +0.000 A 
ATOM      3  C   UNL     1      48.908   8.226  14.013  0.00  0.00    +0.000 A 
ATOM      4  N   UNL     1      48.890   7.385  15.073  0.00  0.00    +0.000 NA
ATOM      5  C   UNL     1      48.182   6.236  14.955  0.00  0.00    +0.000 A 
ATOM      6  C   UNL     1      47.511   5.912  13.778  0.00  0.00    +0.000 A 
ENDROOT
BRANCH   5   7
ATOM      7  C   UNL     1      48.211   5.305  16.100  0.00  0.00    +0.000 A 
ATOM      8  C   UNL     1      47.408   4.147  16.135  0.00  0.00    +0.000 A 
ATOM      9  C   UNL     1      47.504   3.223  17.177  0.00  0.00    +0.000 A 
ATOM     10  C   UNL     1      48.397   3.446  18.220  0.00  0.00    +0.000 A 
ATOM     11  C   UNL     1      49.184   4.595  18.225  0.00  0.00    +0.000 A 
ATOM     12  C   UNL     1      49.089   5.515  17.176  0.00  0.00    +0.000 A 
ENDBRANCH   5   7
BRANCH   1  13
ATOM     13  O   UNL     1      47.032   6.510  11.463  0.00  0.00    +0.000 OA
BRANCH  13  14
ATOM     14  C   UNL     1      45.609   6.684  11.396  0.00  0.00    +0.000 C 
BRANCH  14  21
ATOM     15  C   UNL     1      44.841   4.470  10.484  0.00  0.00    +0.000 A 
ATOM     16  N   UNL     1      44.194   3.287  10.524  0.00  0.00    +0.000 NA
ATOM     17  C   UNL     1      43.528   3.011  11.660  0.00  0.00    +0.000 A 
ATOM     18  F   UNL     1      42.862   1.847  11.717  0.00  0.00    +0.000 F 
ATOM     19  C   UNL     1      43.464   3.855  12.753  0.00  0.00    +0.000 A 
ATOM     20  C   UNL     1      44.159   5.053  12.696  0.00  0.00    +0.000 A 
ATOM     21  C   UNL     1      44.893   5.372  11.549  0.00  0.00    +0.000 A 
BRANCH  15  23
ATOM     22  C   UNL     1      45.146   3.981   8.223  0.00  0.00    +0.000 C 
ATOM     23  O   UNL     1      45.480   4.837   9.314  0.00  0.00    +0.000 OA
ENDBRANCH  15  23
ENDBRANCH  14  21
ENDBRANCH  13  14
ENDBRANCH   1  13
TORSDOF 5
ENDMDL
MODEL 9
REMARK VINA RESULT:    -5.926      3.706      6.360
REMARK INTER + INTRA:          -8.870
REMARK INTER:                  -8.058
REMARK INTRA:                  -0.812
REMARK UNBOUND:                -1.213
REMARK  Name = 
REMARK  6 active torsions:
REMARK  status: ('A' for Active; 'I' for Inactive)
REMARK    1  A    between atoms: C_1  and  O_2
REMARK    2  A    between atoms: O_2  and  C_3
REMARK    3  A    between atoms: C_9  and  C_10
REMARK    4  A    between atoms: C_10  and  O_11
REMARK    5  A    between atoms: O_11  and  C_12
REMARK    6  A    between atoms: C_16  and  C_17
REMARK                            x       y       z     vdW  Elec       q    Type
REMARK                         _______ _______ _______ _____ _____    ______ ____
ROOT
ATOM      1  C   UNL     1      46.825   4.026  13.701  0.00  0.00    +0.000 A 
ATOM      2  C   UNL     1      45.822   3.509  12.895  0.00  0.00    +0.000 A 
ATOM      3  C   UNL     1      45.318   4.313  11.891  0.00  0.00    +0.000 A 
ATOM      4  N   UNL     1      45.740   5.576  11.653  0.00  0.00    +0.000 NA
ATOM      5  C   UNL     1      46.691   6.088  12.471  0.00  0.00    +0.000 A 
ATOM      6  C   UNL     1      47.239   5.339  13.510  0.00  0.00    +0.000 A 
ENDROOT
BRANCH   5   7
ATOM      7  C   UNL     1      47.177   7.449  12.171  0.00  0.00    +0.000 A 
ATOM      8  C   UNL     1      46.344   8.580  12.303  0.00  0.00    +0.000 A 
ATOM      9  C   UNL     1      46.832   9.873  12.105  0.00  0.00    +0.000 A 
ATOM     10  C   UNL     1      48.164  10.064  11.752  0.00  0.00    +0.000 A 
ATOM     11  C   UNL     1      49.002   8.964  11.589  0.00  0.00    +0.000 A 
ATOM     12  C   UNL     1      48.511   7.671  11.794  0.00  0.00    +0.000 A 
ENDBRANCH   5   7
BRANCH   1  13
ATOM     13  O   UNL     1      47.352   3.180  14.638  0.00  0.00    +0.000 OA
BRANCH  13  14
ATOM     14  C   UNL     1      47.338   3.685  15.982  0.00  0.00    +0.000 C 
BRANCH  14  21
ATOM     15  C   UNL     1      49.368   4.541  17.194  0.00  0.00    +0.000 A 
ATOM     16  N   UNL     1      50.575   4.436  17.787  0.00  0.00    +0.000 NA
ATOM     17  C   UNL     1      51.124   3.209  17.806  0.00  0.00    +0.000 A 
ATOM     18  F   UNL     1      52.334   3.082  18.376  0.00  0.00    +0.000 F 
ATOM     19  C   UNL     1      50.541   2.083  17.257  0.00  0.00    +0.000 A 
ATOM     20  C   UNL     1      49.289   2.212  16.676  0.00  0.00    +0.000 A 
ATOM     21  C   UNL     1      48.661   3.463  16.659  0.00  0.00    +0.000 A 
BRANCH  15  23
ATOM     22  C   UNL     1      48.870   6.538  18.294  0.00  0.00    +0.000 C 
ATOM     23  O   UNL     1      48.792   5.793  17.080  0.00  0.00    +0.000 OA
ENDBRANCH  15  23
ENDBRANCH  14  21
ENDBRANCH  13  14
ENDBRANCH   1  13
TORSDOF 5
ENDMDL
