MODEL 1
REMARK VINA RESULT:    -8.296      0.000      0.000
REMARK INTER + INTRA:         -11.101
REMARK INTER:                 -10.721
REMARK INTRA:                  -0.380
REMARK UNBOUND:                -0.380
REMARK  Name = 
REMARK  5 active torsions:
REMARK  status: ('A' for Active; 'I' for Inactive)
REMARK    1  A    between atoms: C_2  and  C_4
REMARK    2  A    between atoms: C_6  and  C_7
REMARK    3  A    between atoms: C_7  and  O_8
REMARK    4  A    between atoms: O_8  and  C_9
REMARK    5  A    between atoms: C_13  and  C_14
REMARK                            x       y       z     vdW  Elec       q    Type
REMARK                         _______ _______ _______ _____ _____    ______ ____
ROOT
ATOM      1  O   UNL     1      44.060   6.232  11.665  0.00  0.00    +0.000 OA
ENDROOT
BRANCH   1   2
ATOM      2  C   UNL     1      44.056   5.004  11.079  0.00  0.00    +0.000 A 
ATOM      3  C   UNL     1      43.374   4.006  11.766  0.00  0.00    +0.000 A 
ATOM      4  N   UNL     1      43.283   2.721  11.354  0.00  0.00    +0.000 NA
ATOM      5  C   UNL     1      43.933   2.408  10.215  0.00  0.00    +0.000 A 
ATOM      6  C   UNL     1      44.670   3.315   9.457  0.00  0.00    +0.000 A 
ATOM      7  C   UNL     1      44.716   4.646   9.909  0.00  0.00    +0.000 A 
BRANCH   6   8
ATOM      8  C   UNL     1      45.393   2.858   8.205  0.00  0.00    +0.000 C 
ATOM      9  C   UNL     1      46.126   1.523   8.416  0.00  0.00    +0.000 C 
ATOM     10  C   UNL     1      46.961   1.160   7.196  0.00  0.00    +0.000 C 
ATOM     11  O   UNL     1      47.857   2.220   6.869  0.00  0.00    +0.000 OA
ATOM     12  C   UNL     1      47.167   3.415   6.509  0.00  0.00    +0.000 C 
ATOM     13  C   UNL     1      46.356   3.937   7.686  0.00  0.00    +0.000 C 
ENDBRANCH   6   8
ENDBRANCH   1   2
BRANCH   1  14
ATOM     14  C   UNL     1      45.134   7.115  11.343  0.00  0.00    +0.000 C 
BRANCH  14  17
ATOM     15  C   UNL     1      47.350   5.434  13.931  0.00  0.00    +0.000 A 
ATOM     16  C   UNL     1      46.240   5.723  13.148  0.00  0.00    +0.000 A 
ATOM     17  C   UNL     1      46.310   6.778  12.232  0.00  0.00    +0.000 A 
ATOM     18  C   UNL     1      47.520   7.473  12.123  0.00  0.00    +0.000 A 
ATOM     19  C   UNL     1      48.580   7.111  12.947  0.00  0.00    +0.000 A 
ATOM     20  N   UNL     1      48.529   6.112  13.855  0.00  0.00    +0.000 NA
BRANCH  15  22
ATOM     21  N   UNL     1      47.050   4.682  16.220  0.00  0.00    +0.000 N 
ATOM     22  C   UNL     1      47.273   4.313  14.921  0.00  0.00    +0.000 C 
ATOM     23  O   UNL     1      47.396   3.136  14.602  0.00  0.00    +0.000 OA
ATOM     24  H   UNL     1      46.962   3.968  16.928  0.00  0.00    +0.000 HD
ATOM     25  H   UNL     1      46.918   5.660  16.449  0.00  0.00    +0.000 HD
ENDBRANCH  15  22
ENDBRANCH  14  17
ENDBRANCH   1  14
TORSDOF 5
ENDMDL
MODEL 2
REMARK VINA RESULT:    -7.504      1.563      2.391
REMARK INTER + INTRA:         -10.077
REMARK INTER:                  -9.543
REMARK INTRA:                  -0.534
REMARK UNBOUND:                -0.380
REMARK  Name = 
REMARK  5 active torsions:
REMARK  status: ('A' for Active; 'I' for Inactive)
REMARK    1  A    between atoms: C_2  and  C_4
REMARK    2  A    between atoms: C_6  and  C_7
REMARK    3  A    between atoms: C_7  and  O_8
REMARK    4  A    between atoms: O_8  and  C_9
REMARK    5  A    between atoms: C_13  and  C_14
REMARK                            x       y       z     vdW  Elec       q    Type
REMARK                         _______ _______ _______ _____ _____    ______ ____
ROOT
ATOM      1  O   UNL     1      44.265   6.201  11.451  0.00  0.00    +0.000 OA
ENDROOT
BRANCH   1   2
ATOM      2  C   UNL     1      44.225   4.972  10.870  0.00  0.00    +0.000 A 
ATOM      3  C   UNL     1      43.473   4.010  11.537  0.00  0.00    +0.000 A 
ATOM      4  N   UNL     1      43.336   2.729  11.128  0.00  0.00    +0.000 NA
ATOM      5  C   UNL     1      44.010   2.379  10.013  0.00  0.00    +0.000 A 
ATOM      6  C   UNL     1      44.813   3.246   9.277  0.00  0.00    +0.000 A 
ATOM      7  C   UNL     1      44.906   4.576   9.726  0.00  0.00    +0.000 A 
BRANCH   6   8
ATOM      8  C   UNL     1      45.558   2.749   8.053  0.00  0.00    +0.000 C 
ATOM      9  C   UNL     1      46.228   1.387   8.298  0.00  0.00    +0.000 C 
ATOM     10  C   UNL     1      47.086   0.979   7.109  0.00  0.00    +0.000 C 
ATOM     11  O   UNL     1      48.035   1.998   6.804  0.00  0.00    +0.000 OA
ATOM     12  C   UNL     1      47.407   3.217   6.412  0.00  0.00    +0.000 C 
ATOM     13  C   UNL     1      46.581   3.782   7.558  0.00  0.00    +0.000 C 
ENDBRANCH   6   8
ENDBRANCH   1   2
BRANCH   1  14
ATOM     14  C   UNL     1      45.363   7.053  11.120  0.00  0.00    +0.000 C 
BRANCH  14  17
ATOM     15  C   UNL     1      48.769   7.059  12.803  0.00  0.00    +0.000 A 
ATOM     16  C   UNL     1      47.756   7.348  11.898  0.00  0.00    +0.000 A 
ATOM     17  C   UNL     1      46.502   6.751  12.068  0.00  0.00    +0.000 A 
ATOM     18  C   UNL     1      46.318   5.915  13.174  0.00  0.00    +0.000 A 
ATOM     19  C   UNL     1      47.390   5.686  14.030  0.00  0.00    +0.000 A 
ATOM     20  N   UNL     1      48.616   6.231  13.873  0.00  0.00    +0.000 NA
BRANCH  15  22
ATOM     21  N   UNL     1      50.734   7.423  11.423  0.00  0.00    +0.000 N 
ATOM     22  C   UNL     1      50.116   7.687  12.615  0.00  0.00    +0.000 C 
ATOM     23  O   UNL     1      50.640   8.397  13.465  0.00  0.00    +0.000 OA
ATOM     24  H   UNL     1      51.632   7.841  11.229  0.00  0.00    +0.000 HD
ATOM     25  H   UNL     1      50.260   6.861  10.726  0.00  0.00    +0.000 HD
ENDBRANCH  15  22
ENDBRANCH  14  17
ENDBRANCH   1  14
TORSDOF 5
ENDMDL
MODEL 3
REMARK VINA RESULT:    -7.474      1.705      2.216
REMARK INTER + INTRA:         -10.039
REMARK INTER:                  -9.368
REMARK INTRA:                  -0.671
REMARK UNBOUND:                -0.380
REMARK  Name = 
REMARK  5 active torsions:
REMARK  status: ('A' for Active; 'I' for Inactive)
REMARK    1  A    between atoms: C_2  and  C_4
REMARK    2  A    between atoms: C_6  and  C_7
REMARK    3  A    between atoms: C_7  and  O_8
REMARK    4  A    between atoms: O_8  and  C_9
REMARK    5  A    between atoms: C_13  and  C_14
REMARK                            x       y       z     vdW  Elec       q    Type
REMARK                         _______ _______ _______ _____ _____    ______ ____
ROOT
ATOM      1  O   UNL     1      45.791   6.824  13.024  0.00  0.00    +0.000 OA
ENDROOT
BRANCH   1   2
ATOM      2  C   UNL     1      45.008   5.973  12.307  0.00  0.00    +0.000 A 
ATOM      3  C   UNL     1      43.778   5.658  12.874  0.00  0.00    +0.000 A 
ATOM      4  N   UNL     1      42.877   4.812  12.324  0.00  0.00    +0.000 NA
ATOM      5  C   UNL     1      43.236   4.224  11.164  0.00  0.00    +0.000 A 
ATOM      6  C   UNL     1      44.450   4.440  10.517  0.00  0.00    +0.000 A 
ATOM      7  C   UNL     1      45.345   5.347  11.112  0.00  0.00    +0.000 A 
BRANCH   6   8
ATOM      8  C   UNL     1      44.775   3.706   9.231  0.00  0.00    +0.000 C 
ATOM      9  C   UNL     1      45.215   2.255   9.490  0.00  0.00    +0.000 C 
ATOM     10  C   UNL     1      45.673   1.587   8.202  0.00  0.00    +0.000 C 
ATOM     11  O   UNL     1      46.697   2.356   7.575  0.00  0.00    +0.000 OA
ATOM     12  C   UNL     1      46.235   3.647   7.183  0.00  0.00    +0.000 C 
ATOM     13  C   UNL     1      45.826   4.459   8.403  0.00  0.00    +0.000 C 
ENDBRANCH   6   8
ENDBRANCH   1   2
BRANCH   1  14
ATOM     14  C   UNL     1      47.206   6.660  12.926  0.00  0.00    +0.000 C 
BRANCH  14  17
ATOM     15  C   UNL     1      47.929   4.682  16.088  0.00  0.00    +0.000 A 
ATOM     16  C   UNL     1      47.407   5.019  14.846  0.00  0.00    +0.000 A 
ATOM     17  C   UNL     1      47.734   6.259  14.285  0.00  0.00    +0.000 A 
ATOM     18  C   UNL     1      48.609   7.089  14.994  0.00  0.00    +0.000 A 
ATOM     19  C   UNL     1      49.085   6.666  16.230  0.00  0.00    +0.000 A 
ATOM     20  N   UNL     1      48.765   5.484  16.803  0.00  0.00    +0.000 NA
BRANCH  15  22
ATOM     21  N   UNL     1      48.497   2.365  16.544  0.00  0.00    +0.000 N 
ATOM     22  C   UNL     1      47.571   3.360  16.696  0.00  0.00    +0.000 C 
ATOM     23  O   UNL     1      46.521   3.171  17.299  0.00  0.00    +0.000 OA
ATOM     24  H   UNL     1      48.323   1.460  16.956  0.00  0.00    +0.000 HD
ATOM     25  H   UNL     1      49.371   2.561  16.071  0.00  0.00    +0.000 HD
ENDBRANCH  15  22
ENDBRANCH  14  17
ENDBRANCH   1  14
TORSDOF 5
ENDMDL
MODEL 4
REMARK VINA RESULT:    -7.314      1.892      2.936
REMARK INTER + INTRA:          -9.833
REMARK INTER:                  -9.086
REMARK INTRA:                  -0.747
REMARK UNBOUND:                -0.380
REMARK  Name = 
REMARK  5 active torsions:
REMARK  status: ('A' for Active; 'I' for Inactive)
REMARK    1  A    between atoms: C_2  and  C_4
REMARK    2  A    between atoms: C_6  and  C_7
REMARK    3  A    between atoms: C_7  and  O_8
REMARK    4  A    between atoms: O_8  and  C_9
REMARK    5  A    between atoms: C_13  and  C_14
REMARK                            x       y       z     vdW  Elec       q    Type
REMARK                         _______ _______ _______ _____ _____    ______ ____
ROOT
ATOM      1  O   UNL     1      43.944   6.274  11.462  0.00  0.00    +0.000 OA
ENDROOT
BRANCH   1   2
ATOM      2  C   UNL     1      43.994   5.027  10.919  0.00  0.00    +0.000 A 
ATOM      3  C   UNL     1      43.359   4.024  11.643  0.00  0.00    +0.000 A 
ATOM      4  N   UNL     1      43.324   2.723  11.277  0.00  0.00    +0.000 NA
ATOM      5  C   UNL     1      43.984   2.399  10.146  0.00  0.00    +0.000 A 
ATOM      6  C   UNL     1      44.677   3.311   9.353  0.00  0.00    +0.000 A 
ATOM      7  C   UNL     1      44.664   4.657   9.759  0.00  0.00    +0.000 A 
BRANCH   6   8
ATOM      8  C   UNL     1      45.416   2.844   8.115  0.00  0.00    +0.000 C 
ATOM      9  C   UNL     1      46.170   1.526   8.355  0.00  0.00    +0.000 C 
ATOM     10  C   UNL     1      47.019   1.155   7.147  0.00  0.00    +0.000 C 
ATOM     11  O   UNL     1      47.899   2.224   6.806  0.00  0.00    +0.000 OA
ATOM     12  C   UNL     1      47.191   3.400   6.420  0.00  0.00    +0.000 C 
ATOM     13  C   UNL     1      46.364   3.929   7.582  0.00  0.00    +0.000 C 
ENDBRANCH   6   8
ENDBRANCH   1   2
BRANCH   1  14
ATOM     14  C   UNL     1      44.499   6.449  12.766  0.00  0.00    +0.000 C 
BRANCH  14  17
ATOM     15  C   UNL     1      47.418   8.846  12.365  0.00  0.00    +0.000 A 
ATOM     16  C   UNL     1      46.116   8.377  12.479  0.00  0.00    +0.000 A 
ATOM     17  C   UNL     1      45.898   7.003  12.618  0.00  0.00    +0.000 A 
ATOM     18  C   UNL     1      47.016   6.164  12.674  0.00  0.00    +0.000 A 
ATOM     19  C   UNL     1      48.284   6.723  12.555  0.00  0.00    +0.000 A 
ATOM     20  N   UNL     1      48.518   8.045  12.396  0.00  0.00    +0.000 NA
BRANCH  15  22
ATOM     21  N   UNL     1      47.953  11.001  13.350  0.00  0.00    +0.000 N 
ATOM     22  C   UNL     1      47.653  10.317  12.203  0.00  0.00    +0.000 C 
ATOM     23  O   UNL     1      47.589  10.883  11.118  0.00  0.00    +0.000 OA
ATOM     24  H   UNL     1      48.148  11.990  13.299  0.00  0.00    +0.000 HD
ATOM     25  H   UNL     1      48.032  10.500  14.227  0.00  0.00    +0.000 HD
ENDBRANCH  15  22
ENDBRANCH  14  17
ENDBRANCH   1  14
TORSDOF 5
ENDMDL
MODEL 5
REMARK VINA RESULT:    -6.985      2.526      3.338
REMARK INTER + INTRA:          -9.407
REMARK INTER:                  -8.820
REMARK INTRA:                  -0.587
REMARK UNBOUND:                -0.380
REMARK  Name = 
REMARK  5 active torsions:
REMARK  status: ('A' for Active; 'I' for Inactive)
REMARK    1  A    between atoms: C_2  and  C_4
REMARK    2  A    between atoms: C_6  and  C_7
REMARK    3  A    between atoms: C_7  and  O_8
REMARK    4  A    between atoms: O_8  and  C_9
REMARK    5  A    between atoms: C_13  and  C_14
REMARK                            x       y       z     vdW  Elec       q    Type
REMARK                         _______ _______ _______ _____ _____    ______ ____
ROOT
ATOM      1  O   UNL     1      45.745   6.671  11.270  0.00  0.00    +0.000 OA
ENDROOT
BRANCH   1   2
ATOM      2  C   UNL     1      45.225   5.583  10.639  0.00  0.00    +0.000 A 
ATOM      3  C   UNL     1      44.045   5.078  11.175  0.00  0.00    +0.000 A 
ATOM      4  N   UNL     1      43.396   3.990  10.702  0.00  0.00    +0.000 NA
ATOM      5  C   UNL     1      43.969   3.354   9.660  0.00  0.00    +0.000 A 
ATOM      6  C   UNL     1      45.160   3.750   9.058  0.00  0.00    +0.000 A 
ATOM      7  C   UNL     1      45.788   4.901   9.567  0.00  0.00    +0.000 A 
BRANCH   6   8
ATOM      8  C   UNL     1      45.743   2.949   7.911  0.00  0.00    +0.000 C 
ATOM      9  C   UNL     1      46.182   1.543   8.352  0.00  0.00    +0.000 C 
ATOM     10  C   UNL     1      46.894   0.813   7.222  0.00  0.00    +0.000 C 
ATOM     11  O   UNL     1      47.986   1.590   6.734  0.00  0.00    +0.000 OA
ATOM     12  C   UNL     1      47.556   2.826   6.170  0.00  0.00    +0.000 C 
ATOM     13  C   UNL     1      46.900   3.697   7.232  0.00  0.00    +0.000 C 
ENDBRANCH   6   8
ENDBRANCH   1   2
BRANCH   1  14
ATOM     14  C   UNL     1      46.838   6.457  12.163  0.00  0.00    +0.000 C 
BRANCH  14  17
ATOM     15  C   UNL     1      50.033   8.443  11.636  0.00  0.00    +0.000 A 
ATOM     16  C   UNL     1      49.175   7.363  11.797  0.00  0.00    +0.000 A 
ATOM     17  C   UNL     1      47.813   7.602  12.005  0.00  0.00    +0.000 A 
ATOM     18  C   UNL     1      47.372   8.930  12.004  0.00  0.00    +0.000 A 
ATOM     19  C   UNL     1      48.305   9.948  11.832  0.00  0.00    +0.000 A 
ATOM     20  N   UNL     1      49.628   9.743  11.653  0.00  0.00    +0.000 NA
BRANCH  15  22
ATOM     21  N   UNL     1      51.806   7.074  10.696  0.00  0.00    +0.000 N 
ATOM     22  C   UNL     1      51.495   8.189  11.426  0.00  0.00    +0.000 C 
ATOM     23  O   UNL     1      52.366   8.928  11.869  0.00  0.00    +0.000 OA
ATOM     24  H   UNL     1      52.774   6.867  10.499  0.00  0.00    +0.000 HD
ATOM     25  H   UNL     1      51.063   6.502  10.313  0.00  0.00    +0.000 HD
ENDBRANCH  15  22
ENDBRANCH  14  17
ENDBRANCH   1  14
TORSDOF 5
ENDMDL
MODEL 6
REMARK VINA RESULT:    -6.823      2.205      7.356
REMARK INTER + INTRA:          -9.198
REMARK INTER:                  -8.485
REMARK INTRA:                  -0.713
REMARK UNBOUND:                -0.380
REMARK  Name = 
REMARK  5 active torsions:
REMARK  status: ('A' for Active; 'I' for Inactive)
REMARK    1  A    between atoms: C_2  and  C_4
REMARK    2  A    between atoms: C_6  and  C_7
REMARK    3  A    between atoms: C_7  and  O_8
REMARK    4  A    between atoms: O_8  and  C_9
REMARK    5  A    between atoms: C_13  and  C_14
REMARK                            x       y       z     vdW  Elec       q    Type
REMARK                         _______ _______ _______ _____ _____    ______ ____
ROOT
ATOM      1  O   UNL     1      47.128   6.624  11.745  0.00  0.00    +0.000 OA
ENDROOT
BRANCH   1   2
ATOM      2  C   UNL     1      47.823   6.710  12.912  0.00  0.00    +0.000 A 
ATOM      3  C   UNL     1      48.920   7.564  12.903  0.00  0.00    +0.000 A 
ATOM      4  N   UNL     1      49.745   7.759  13.957  0.00  0.00    +0.000 NA
ATOM      5  C   UNL     1      49.480   7.042  15.068  0.00  0.00    +0.000 A 
ATOM      6  C   UNL     1      48.428   6.137  15.186  0.00  0.00    +0.000 A 
ATOM      7  C   UNL     1      47.581   5.985  14.073  0.00  0.00    +0.000 A 
BRANCH   6   8
ATOM      8  C   UNL     1      48.232   5.352  16.468  0.00  0.00    +0.000 C 
ATOM      9  C   UNL     1      49.568   5.026  17.156  0.00  0.00    +0.000 C 
ATOM     10  C   UNL     1      49.354   4.117  18.358  0.00  0.00    +0.000 C 
ATOM     11  O   UNL     1      48.644   2.941  17.976  0.00  0.00    +0.000 OA
ATOM     12  C   UNL     1      47.336   3.236  17.493  0.00  0.00    +0.000 C 
ATOM     13  C   UNL     1      47.413   4.076  16.226  0.00  0.00    +0.000 C 
ENDBRANCH   6   8
ENDBRANCH   1   2
BRANCH   1  14
ATOM     14  C   UNL     1      45.756   7.018  11.763  0.00  0.00    +0.000 C 
BRANCH  14  17
ATOM     15  C   UNL     1      44.342   3.855  10.204  0.00  0.00    +0.000 A 
ATOM     16  C   UNL     1      45.133   4.981  10.391  0.00  0.00    +0.000 A 
ATOM     17  C   UNL     1      44.906   5.793  11.507  0.00  0.00    +0.000 A 
ATOM     18  C   UNL     1      43.909   5.406  12.409  0.00  0.00    +0.000 A 
ATOM     19  C   UNL     1      43.169   4.259  12.141  0.00  0.00    +0.000 A 
ATOM     20  N   UNL     1      43.353   3.473  11.058  0.00  0.00    +0.000 NA
BRANCH  15  22
ATOM     21  N   UNL     1      44.657   1.647   9.244  0.00  0.00    +0.000 N 
ATOM     22  C   UNL     1      44.574   2.991   9.003  0.00  0.00    +0.000 C 
ATOM     23  O   UNL     1      44.680   3.446   7.869  0.00  0.00    +0.000 OA
ATOM     24  H   UNL     1      44.786   1.012   8.470  0.00  0.00    +0.000 HD
ATOM     25  H   UNL     1      44.531   1.298  10.187  0.00  0.00    +0.000 HD
ENDBRANCH  15  22
ENDBRANCH  14  17
ENDBRANCH   1  14
TORSDOF 5
ENDMDL
MODEL 7
REMARK VINA RESULT:    -6.806      3.023      5.024
REMARK INTER + INTRA:          -9.176
REMARK INTER:                  -8.435
REMARK INTRA:                  -0.741
REMARK UNBOUND:                -0.380
REMARK  Name = 
REMARK  5 active torsions:
REMARK  status: ('A' for Active; 'I' for Inactive)
REMARK    1  A    between atoms: C_2  and  C_4
REMARK    2  A    between atoms: C_6  and  C_7
REMARK    3  A    between atoms: C_7  and  O_8
REMARK    4  A    between atoms: O_8  and  C_9
REMARK    5  A    between atoms: C_13  and  C_14
REMARK                            x       y       z     vdW  Elec       q    Type
REMARK                         _______ _______ _______ _____ _____    ______ ____
ROOT
ATOM      1  O   UNL     1      49.128   7.368  14.080  0.00  0.00    +0.000 OA
ENDROOT
BRANCH   1   2
ATOM      2  C   UNL     1      47.905   7.195  13.508  0.00  0.00    +0.000 A 
ATOM      3  C   UNL     1      47.084   8.316  13.479  0.00  0.00    +0.000 A 
ATOM      4  N   UNL     1      45.829   8.332  12.976  0.00  0.00    +0.000 NA
ATOM      5  C   UNL     1      45.356   7.160  12.506  0.00  0.00    +0.000 A 
ATOM      6  C   UNL     1      46.074   5.967  12.506  0.00  0.00    +0.000 A 
ATOM      7  C   UNL     1      47.385   6.004  13.016  0.00  0.00    +0.000 A 
BRANCH   6   8
ATOM      8  C   UNL     1      45.443   4.691  11.984  0.00  0.00    +0.000 C 
ATOM      9  C   UNL     1      44.996   4.825  10.519  0.00  0.00    +0.000 C 
ATOM     10  C   UNL     1      44.237   3.586  10.064  0.00  0.00    +0.000 C 
ATOM     11  O   UNL     1      43.143   3.321  10.939  0.00  0.00    +0.000 OA
ATOM     12  C   UNL     1      43.574   3.030  12.266  0.00  0.00    +0.000 C 
ATOM     13  C   UNL     1      44.277   4.235  12.874  0.00  0.00    +0.000 C 
ENDBRANCH   6   8
ENDBRANCH   1   2
BRANCH   1  14
ATOM     14  C   UNL     1      49.166   7.745  15.456  0.00  0.00    +0.000 C 
BRANCH  14  17
ATOM     15  C   UNL     1      48.874   4.499  17.408  0.00  0.00    +0.000 A 
ATOM     16  C   UNL     1      48.514   5.621  16.673  0.00  0.00    +0.000 A 
ATOM     17  C   UNL     1      49.508   6.521  16.275  0.00  0.00    +0.000 A 
ATOM     18  C   UNL     1      50.834   6.224  16.609  0.00  0.00    +0.000 A 
ATOM     19  C   UNL     1      51.101   5.074  17.345  0.00  0.00    +0.000 A 
ATOM     20  N   UNL     1      50.156   4.203  17.760  0.00  0.00    +0.000 NA
BRANCH  15  22
ATOM     21  N   UNL     1      48.100   2.796  18.957  0.00  0.00    +0.000 N 
ATOM     22  C   UNL     1      47.810   3.540  17.846  0.00  0.00    +0.000 C 
ATOM     23  O   UNL     1      46.741   3.423  17.258  0.00  0.00    +0.000 OA
ATOM     24  H   UNL     1      47.411   2.153  19.315  0.00  0.00    +0.000 HD
ATOM     25  H   UNL     1      48.978   2.940  19.442  0.00  0.00    +0.000 HD
ENDBRANCH  15  22
ENDBRANCH  14  17
ENDBRANCH   1  14
TORSDOF 5
ENDMDL
MODEL 8
REMARK VINA RESULT:    -6.803      3.083      7.092
REMARK INTER + INTRA:          -9.171
REMARK INTER:                  -8.614
REMARK INTRA:                  -0.557
REMARK UNBOUND:                -0.380
REMARK  Name = 
REMARK  5 active torsions:
REMARK  status: ('A' for Active; 'I' for Inactive)
REMARK    1  A    between atoms: C_2  and  C_4
REMARK    2  A    between atoms: C_6  and  C_7
REMARK    3  A    between atoms: C_7  and  O_8
REMARK    4  A    between atoms: O_8  and  C_9
REMARK    5  A    between atoms: C_13  and  C_14
REMARK                            x       y       z     vdW  Elec       q    Type
REMARK                         _______ _______ _______ _____ _____    ______ ____
ROOT
ATOM      1  O   UNL     1      45.334   5.350  10.978  0.00  0.00    +0.000 OA
ENDROOT
BRANCH   1   2
ATOM      2  C   UNL     1      45.851   6.501  11.488  0.00  0.00    +0.000 A 
ATOM      3  C   UNL     1      44.924   7.451  11.903  0.00  0.00    +0.000 A 
ATOM      4  N   UNL     1      45.247   8.662  12.410  0.00  0.00    +0.000 NA
ATOM      5  C   UNL     1      46.562   8.954  12.478  0.00  0.00    +0.000 A 
ATOM      6  C   UNL     1      47.578   8.095  12.068  0.00  0.00    +0.000 A 
ATOM      7  C   UNL     1      47.197   6.836  11.571  0.00  0.00    +0.000 A 
BRANCH   6   8
ATOM      8  C   UNL     1      49.029   8.528  12.154  0.00  0.00    +0.000 C 
ATOM      9  C   UNL     1      49.214  10.007  11.776  0.00  0.00    +0.000 C 
ATOM     10  C   UNL     1      50.690  10.378  11.729  0.00  0.00    +0.000 C 
ATOM     11  O   UNL     1      51.397   9.505  10.851  0.00  0.00    +0.000 OA
ATOM     12  C   UNL     1      51.365   8.151  11.298  0.00  0.00    +0.000 C 
ATOM     13  C   UNL     1      49.937   7.627  11.305  0.00  0.00    +0.000 C 
ENDBRANCH   6   8
ENDBRANCH   1   2
BRANCH   1  14
ATOM     14  C   UNL     1      44.976   5.342   9.596  0.00  0.00    +0.000 C 
BRANCH  14  17
ATOM     15  C   UNL     1      46.513   2.555   7.522  0.00  0.00    +0.000 A 
ATOM     16  C   UNL     1      46.232   3.828   8.000  0.00  0.00    +0.000 A 
ATOM     17  C   UNL     1      45.297   3.977   9.030  0.00  0.00    +0.000 A 
ATOM     18  C   UNL     1      44.714   2.821   9.558  0.00  0.00    +0.000 A 
ATOM     19  C   UNL     1      45.058   1.586   9.018  0.00  0.00    +0.000 A 
ATOM     20  N   UNL     1      45.940   1.419   8.008  0.00  0.00    +0.000 NA
BRANCH  15  22
ATOM     21  N   UNL     1      47.323   3.213   5.329  0.00  0.00    +0.000 N 
ATOM     22  C   UNL     1      47.504   2.394   6.410  0.00  0.00    +0.000 C 
ATOM     23  O   UNL     1      48.425   1.587   6.455  0.00  0.00    +0.000 OA
ATOM     24  H   UNL     1      47.976   3.169   4.561  0.00  0.00    +0.000 HD
ATOM     25  H   UNL     1      46.573   3.894   5.335  0.00  0.00    +0.000 HD
ENDBRANCH  15  22
ENDBRANCH  14  17
ENDBRANCH   1  14
TORSDOF 5
ENDMDL
MODEL 9
REMARK VINA RESULT:    -6.719      3.927      8.142
REMARK INTER + INTRA:          -9.063
REMARK INTER:                  -8.496
REMARK INTRA:                  -0.567
REMARK UNBOUND:                -0.380
REMARK  Name = 
REMARK  5 active torsions:
REMARK  status: ('A' for Active; 'I' for Inactive)
REMARK    1  A    between atoms: C_2  and  C_4
REMARK    2  A    between atoms: C_6  and  C_7
REMARK    3  A    between atoms: C_7  and  O_8
REMARK    4  A    between atoms: O_8  and  C_9
REMARK    5  A    between atoms: C_13  and  C_14
REMARK                            x       y       z     vdW  Elec       q    Type
REMARK                         _______ _______ _______ _____ _____    ______ ____
ROOT
ATOM      1  O   UNL     1      46.605   3.880  15.698  0.00  0.00    +0.000 OA
ENDROOT
BRANCH   1   2
ATOM      2  C   UNL     1      47.584   3.930  16.641  0.00  0.00    +0.000 A 
ATOM      3  C   UNL     1      47.291   4.670  17.781  0.00  0.00    +0.000 A 
ATOM      4  N   UNL     1      48.145   4.856  18.812  0.00  0.00    +0.000 NA
ATOM      5  C   UNL     1      49.368   4.301  18.686  0.00  0.00    +0.000 A 
ATOM      6  C   UNL     1      49.785   3.563  17.582  0.00  0.00    +0.000 A 
ATOM      7  C   UNL     1      48.854   3.374  16.545  0.00  0.00    +0.000 A 
BRANCH   6   8
ATOM      8  C   UNL     1      51.194   3.006  17.519  0.00  0.00    +0.000 C 
ATOM      9  C   UNL     1      51.206   1.468  17.495  0.00  0.00    +0.000 C 
ATOM     10  C   UNL     1      52.629   0.933  17.578  0.00  0.00    +0.000 C 
ATOM     11  O   UNL     1      53.295   1.459  18.723  0.00  0.00    +0.000 OA
ATOM     12  C   UNL     1      53.432   2.877  18.662  0.00  0.00    +0.000 C 
ATOM     13  C   UNL     1      52.064   3.544  18.664  0.00  0.00    +0.000 C 
ENDBRANCH   6   8
ENDBRANCH   1   2
BRANCH   1  14
ATOM     14  C   UNL     1      47.008   3.796  14.331  0.00  0.00    +0.000 C 
BRANCH  14  17
ATOM     15  C   UNL     1      44.578   5.962  12.374  0.00  0.00    +0.000 A 
ATOM     16  C   UNL     1      45.111   4.865  13.037  0.00  0.00    +0.000 A 
ATOM     17  C   UNL     1      46.396   4.958  13.581  0.00  0.00    +0.000 A 
ATOM     18  C   UNL     1      47.072   6.177  13.462  0.00  0.00    +0.000 A 
ATOM     19  C   UNL     1      46.458   7.223  12.783  0.00  0.00    +0.000 A 
ATOM     20  N   UNL     1      45.228   7.150  12.228  0.00  0.00    +0.000 NA
BRANCH  15  22
ATOM     21  N   UNL     1      42.742   6.989  11.160  0.00  0.00    +0.000 N 
ATOM     22  C   UNL     1      43.206   5.861  11.779  0.00  0.00    +0.000 C 
ATOM     23  O   UNL     1      42.535   4.837  11.832  0.00  0.00    +0.000 OA
ATOM     24  H   UNL     1      41.836   6.973  10.717  0.00  0.00    +0.000 HD
ATOM     25  H   UNL     1      43.334   7.809  11.101  0.00  0.00    +0.000 HD
ENDBRANCH  15  22
ENDBRANCH  14  17
ENDBRANCH   1  14
TORSDOF 5
ENDMDL
