MODEL 1
REMARK VINA RESULT:    -8.126      0.000      0.000
REMARK INTER + INTRA:         -12.619
REMARK INTER:                 -11.451
REMARK INTRA:                  -1.168
REMARK UNBOUND:                -1.168
REMARK  Name = 
REMARK  9 active torsions:
REMARK  status: ('A' for Active; 'I' for Inactive)
REMARK    1  A    between atoms: C_1  and  C_2
REMARK    2  A    between atoms: C_4  and  O_5
REMARK    3  A    between atoms: O_5  and  C_6
REMARK    4  A    between atoms: C_6  and  C_7
REMARK    5  A    between atoms: C_7  and  C_8
REMARK    6  A    between atoms: C_12  and  O_13
REMARK    7  A    between atoms: O_13  and  C_14
REMARK    8  A    between atoms: C_18  and  C_19
REMARK    9  A    between atoms: C_22  and  C_23
REMARK                            x       y       z     vdW  Elec       q    Type
REMARK                         _______ _______ _______ _____ _____    ______ ____
ROOT
ATOM      1  C   UNL     1      43.510   4.314  11.036  0.00  0.00    +0.000 C 
ENDROOT
BRANCH   1   2
ATOM      2  O   UNL     1      43.621   2.997  10.478  0.00  0.00    +0.000 OA
BRANCH   2   6
ATOM      3  C   UNL     1      46.678   0.261   7.695  0.00  0.00    +0.000 C 
ATOM      4  C   UNL     1      46.067   1.597   8.025  0.00  0.00    +0.000 A 
ATOM      5  C   UNL     1      45.142   1.655   9.086  0.00  0.00    +0.000 A 
ATOM      6  C   UNL     1      44.535   2.854   9.464  0.00  0.00    +0.000 A 
ATOM      7  C   UNL     1      44.858   4.018   8.768  0.00  0.00    +0.000 A 
ATOM      8  C   UNL     1      45.770   3.984   7.704  0.00  0.00    +0.000 A 
ATOM      9  C   UNL     1      46.386   2.778   7.325  0.00  0.00    +0.000 A 
BRANCH   9  10
ATOM     10  C   UNL     1      47.336   2.759   6.167  0.00  0.00    +0.000 C 
ATOM     11  N   UNL     1      48.673   2.712   6.452  0.00  0.00    +0.000 N 
ATOM     12  O   UNL     1      46.965   2.768   5.001  0.00  0.00    +0.000 OA
ATOM     13  H   UNL     1      49.039   2.502   7.368  0.00  0.00    +0.000 HD
ATOM     14  H   UNL     1      49.294   2.611   5.658  0.00  0.00    +0.000 HD
ENDBRANCH   9  10
ENDBRANCH   2   6
ENDBRANCH   1   2
BRANCH   1  15
ATOM     15  C   UNL     1      44.230   4.376  12.383  0.00  0.00    +0.000 C 
BRANCH  15  16
ATOM     16  C   UNL     1      45.272   5.479  12.410  0.00  0.00    +0.000 A 
ATOM     17  C   UNL     1      44.961   6.702  11.793  0.00  0.00    +0.000 A 
ATOM     18  C   UNL     1      45.865   7.763  11.810  0.00  0.00    +0.000 A 
ATOM     19  C   UNL     1      47.102   7.617  12.433  0.00  0.00    +0.000 A 
ATOM     20  C   UNL     1      47.438   6.410  13.048  0.00  0.00    +0.000 A 
ATOM     21  C   UNL     1      46.519   5.337  13.069  0.00  0.00    +0.000 A 
ATOM     22  C   UNL     1      46.864   4.052  13.779  0.00  0.00    +0.000 C 
BRANCH  20  23
ATOM     23  O   UNL     1      48.638   6.221  13.698  0.00  0.00    +0.000 OA
BRANCH  23  24
ATOM     24  C   UNL     1      48.925   6.988  14.887  0.00  0.00    +0.000 C 
ATOM     25  C   UNL     1      50.415   7.191  15.267  0.00  0.00    +0.000 C 
ATOM     26  C   UNL     1      50.036   6.908  16.731  0.00  0.00    +0.000 C 
ATOM     27  C   UNL     1      48.784   6.185  16.209  0.00  0.00    +0.000 C 
ENDBRANCH  23  24
ENDBRANCH  20  23
ENDBRANCH  15  16
ENDBRANCH   1  15
TORSDOF 7
ENDMDL
MODEL 2
REMARK VINA RESULT:    -7.591      1.414      2.186
REMARK INTER + INTRA:         -11.866
REMARK INTER:                 -10.704
REMARK INTRA:                  -1.162
REMARK UNBOUND:                -1.168
REMARK  Name = 
REMARK  9 active torsions:
REMARK  status: ('A' for Active; 'I' for Inactive)
REMARK    1  A    between atoms: C_1  and  C_2
REMARK    2  A    between atoms: C_4  and  O_5
REMARK    3  A    between atoms: O_5  and  C_6
REMARK    4  A    between atoms: C_6  and  C_7
REMARK    5  A    between atoms: C_7  and  C_8
REMARK    6  A    between atoms: C_12  and  O_13
REMARK    7  A    between atoms: O_13  and  C_14
REMARK    8  A    between atoms: C_18  and  C_19
REMARK    9  A    between atoms: C_22  and  C_23
REMARK                            x       y       z     vdW  Elec       q    Type
REMARK                         _______ _______ _______ _____ _____    ______ ____
ROOT
ATOM      1  C   UNL     1      43.377   4.704  10.663  0.00  0.00    +0.000 C 
ENDROOT
BRANCH   1   2
ATOM      2  O   UNL     1      43.720   3.331  10.433  0.00  0.00    +0.000 OA
BRANCH   2   6
ATOM      3  C   UNL     1      46.608   0.331   7.743  0.00  0.00    +0.000 C 
ATOM      4  C   UNL     1      46.091   1.713   8.040  0.00  0.00    +0.000 A 
ATOM      5  C   UNL     1      45.158   1.858   9.086  0.00  0.00    +0.000 A 
ATOM      6  C   UNL     1      44.634   3.104   9.434  0.00  0.00    +0.000 A 
ATOM      7  C   UNL     1      45.049   4.228   8.722  0.00  0.00    +0.000 A 
ATOM      8  C   UNL     1      45.970   4.108   7.672  0.00  0.00    +0.000 A 
ATOM      9  C   UNL     1      46.503   2.854   7.324  0.00  0.00    +0.000 A 
BRANCH   9  10
ATOM     10  C   UNL     1      47.463   2.746   6.180  0.00  0.00    +0.000 C 
ATOM     11  N   UNL     1      48.793   2.637   6.484  0.00  0.00    +0.000 N 
ATOM     12  O   UNL     1      47.107   2.736   5.009  0.00  0.00    +0.000 OA
ATOM     13  H   UNL     1      49.135   2.439   7.412  0.00  0.00    +0.000 HD
ATOM     14  H   UNL     1      49.417   2.477   5.703  0.00  0.00    +0.000 HD
ENDBRANCH   9  10
ENDBRANCH   2   6
ENDBRANCH   1   2
BRANCH   1  15
ATOM     15  C   UNL     1      43.521   5.040  12.147  0.00  0.00    +0.000 C 
BRANCH  15  16
ATOM     16  C   UNL     1      44.975   5.226  12.540  0.00  0.00    +0.000 A 
ATOM     17  C   UNL     1      45.609   4.194  13.252  0.00  0.00    +0.000 A 
ATOM     18  C   UNL     1      46.951   4.295  13.615  0.00  0.00    +0.000 A 
ATOM     19  C   UNL     1      47.681   5.434  13.284  0.00  0.00    +0.000 A 
ATOM     20  C   UNL     1      47.073   6.476  12.583  0.00  0.00    +0.000 A 
ATOM     21  C   UNL     1      45.723   6.375  12.178  0.00  0.00    +0.000 A 
ATOM     22  C   UNL     1      45.083   7.480  11.376  0.00  0.00    +0.000 C 
BRANCH  20  23
ATOM     23  O   UNL     1      47.755   7.614  12.212  0.00  0.00    +0.000 OA
BRANCH  23  24
ATOM     24  C   UNL     1      48.578   8.293  13.186  0.00  0.00    +0.000 C 
ATOM     25  C   UNL     1      47.863   8.937  14.402  0.00  0.00    +0.000 C 
ATOM     26  C   UNL     1      48.772  10.167  14.231  0.00  0.00    +0.000 C 
ATOM     27  C   UNL     1      48.991   9.732  12.773  0.00  0.00    +0.000 C 
ENDBRANCH  23  24
ENDBRANCH  20  23
ENDBRANCH  15  16
ENDBRANCH   1  15
TORSDOF 7
ENDMDL
MODEL 3
REMARK VINA RESULT:    -7.196      1.788      2.876
REMARK INTER + INTRA:         -11.309
REMARK INTER:                 -10.593
REMARK INTRA:                  -0.716
REMARK UNBOUND:                -1.168
REMARK  Name = 
REMARK  9 active torsions:
REMARK  status: ('A' for Active; 'I' for Inactive)
REMARK    1  A    between atoms: C_1  and  C_2
REMARK    2  A    between atoms: C_4  and  O_5
REMARK    3  A    between atoms: O_5  and  C_6
REMARK    4  A    between atoms: C_6  and  C_7
REMARK    5  A    between atoms: C_7  and  C_8
REMARK    6  A    between atoms: C_12  and  O_13
REMARK    7  A    between atoms: O_13  and  C_14
REMARK    8  A    between atoms: C_18  and  C_19
REMARK    9  A    between atoms: C_22  and  C_23
REMARK                            x       y       z     vdW  Elec       q    Type
REMARK                         _______ _______ _______ _____ _____    ______ ____
ROOT
ATOM      1  C   UNL     1      43.580   4.785  11.352  0.00  0.00    +0.000 C 
ENDROOT
BRANCH   1   2
ATOM      2  O   UNL     1      43.493   4.766   9.921  0.00  0.00    +0.000 OA
BRANCH   2   6
ATOM      3  C   UNL     1      46.964   3.796   6.517  0.00  0.00    +0.000 C 
ATOM      4  C   UNL     1      46.080   3.326   7.641  0.00  0.00    +0.000 A 
ATOM      5  C   UNL     1      45.217   4.266   8.239  0.00  0.00    +0.000 A 
ATOM      6  C   UNL     1      44.358   3.914   9.281  0.00  0.00    +0.000 A 
ATOM      7  C   UNL     1      44.362   2.597   9.737  0.00  0.00    +0.000 A 
ATOM      8  C   UNL     1      45.216   1.645   9.163  0.00  0.00    +0.000 A 
ATOM      9  C   UNL     1      46.079   1.997   8.109  0.00  0.00    +0.000 A 
BRANCH   9  10
ATOM     10  C   UNL     1      47.004   0.972   7.531  0.00  0.00    +0.000 C 
ATOM     11  N   UNL     1      46.615  -0.337   7.602  0.00  0.00    +0.000 N 
ATOM     12  O   UNL     1      48.066   1.259   6.995  0.00  0.00    +0.000 OA
ATOM     13  H   UNL     1      45.679  -0.626   7.843  0.00  0.00    +0.000 HD
ATOM     14  H   UNL     1      47.210  -1.006   7.128  0.00  0.00    +0.000 HD
ENDBRANCH   9  10
ENDBRANCH   2   6
ENDBRANCH   1   2
BRANCH   1  15
ATOM     15  C   UNL     1      44.011   6.170  11.833  0.00  0.00    +0.000 C 
BRANCH  15  16
ATOM     16  C   UNL     1      45.298   6.108  12.635  0.00  0.00    +0.000 A 
ATOM     17  C   UNL     1      45.651   4.886  13.233  0.00  0.00    +0.000 A 
ATOM     18  C   UNL     1      46.835   4.759  13.957  0.00  0.00    +0.000 A 
ATOM     19  C   UNL     1      47.682   5.854  14.109  0.00  0.00    +0.000 A 
ATOM     20  C   UNL     1      47.351   7.081  13.531  0.00  0.00    +0.000 A 
ATOM     21  C   UNL     1      46.172   7.217  12.765  0.00  0.00    +0.000 A 
ATOM     22  C   UNL     1      45.843   8.529  12.099  0.00  0.00    +0.000 C 
BRANCH  20  23
ATOM     23  O   UNL     1      48.165   8.188  13.632  0.00  0.00    +0.000 OA
BRANCH  23  24
ATOM     24  C   UNL     1      49.497   8.138  13.073  0.00  0.00    +0.000 C 
ATOM     25  C   UNL     1      50.175   9.487  12.718  0.00  0.00    +0.000 C 
ATOM     26  C   UNL     1      50.666   8.845  11.409  0.00  0.00    +0.000 C 
ATOM     27  C   UNL     1      49.536   7.815  11.555  0.00  0.00    +0.000 C 
ENDBRANCH  23  24
ENDBRANCH  20  23
ENDBRANCH  15  16
ENDBRANCH   1  15
TORSDOF 7
ENDMDL
MODEL 4
REMARK VINA RESULT:    -6.871      3.638      8.921
REMARK INTER + INTRA:         -10.851
REMARK INTER:                 -10.068
REMARK INTRA:                  -0.783
REMARK UNBOUND:                -1.168
REMARK  Name = 
REMARK  9 active torsions:
REMARK  status: ('A' for Active; 'I' for Inactive)
REMARK    1  A    between atoms: C_1  and  C_2
REMARK    2  A    between atoms: C_4  and  O_5
REMARK    3  A    between atoms: O_5  and  C_6
REMARK    4  A    between atoms: C_6  and  C_7
REMARK    5  A    between atoms: C_7  and  C_8
REMARK    6  A    between atoms: C_12  and  O_13
REMARK    7  A    between atoms: O_13  and  C_14
REMARK    8  A    between atoms: C_18  and  C_19
REMARK    9  A    between atoms: C_22  and  C_23
REMARK                            x       y       z     vdW  Elec       q    Type
REMARK                         _______ _______ _______ _____ _____    ______ ____
ROOT
ATOM      1  C   UNL     1      47.139   4.802  13.842  0.00  0.00    +0.000 C 
ENDROOT
BRANCH   1   2
ATOM      2  O   UNL     1      46.816   3.982  14.972  0.00  0.00    +0.000 OA
BRANCH   2   6
ATOM      3  C   UNL     1      49.589   6.919  17.846  0.00  0.00    +0.000 C 
ATOM      4  C   UNL     1      48.905   5.598  17.616  0.00  0.00    +0.000 A 
ATOM      5  C   UNL     1      48.192   5.426  16.413  0.00  0.00    +0.000 A 
ATOM      6  C   UNL     1      47.536   4.230  16.115  0.00  0.00    +0.000 A 
ATOM      7  C   UNL     1      47.591   3.187  17.037  0.00  0.00    +0.000 A 
ATOM      8  C   UNL     1      48.289   3.337  18.244  0.00  0.00    +0.000 A 
ATOM      9  C   UNL     1      48.954   4.539  18.543  0.00  0.00    +0.000 A 
BRANCH   9  10
ATOM     10  C   UNL     1      49.669   4.688  19.851  0.00  0.00    +0.000 C 
ATOM     11  N   UNL     1      50.987   4.327  19.892  0.00  0.00    +0.000 N 
ATOM     12  O   UNL     1      49.129   5.126  20.859  0.00  0.00    +0.000 OA
ATOM     13  H   UNL     1      51.541   4.152  19.067  0.00  0.00    +0.000 HD
ATOM     14  H   UNL     1      51.475   4.517  20.759  0.00  0.00    +0.000 HD
ENDBRANCH   9  10
ENDBRANCH   2   6
ENDBRANCH   1   2
BRANCH   1  15
ATOM     15  C   UNL     1      45.891   5.538  13.353  0.00  0.00    +0.000 C 
BRANCH  15  16
ATOM     16  C   UNL     1      45.097   4.698  12.368  0.00  0.00    +0.000 A 
ATOM     17  C   UNL     1      44.245   3.704  12.878  0.00  0.00    +0.000 A 
ATOM     18  C   UNL     1      43.469   2.920  12.026  0.00  0.00    +0.000 A 
ATOM     19  C   UNL     1      43.540   3.107  10.647  0.00  0.00    +0.000 A 
ATOM     20  C   UNL     1      44.383   4.083  10.115  0.00  0.00    +0.000 A 
ATOM     21  C   UNL     1      45.150   4.908  10.968  0.00  0.00    +0.000 A 
ATOM     22  C   UNL     1      46.022   5.997  10.392  0.00  0.00    +0.000 C 
BRANCH  20  23
ATOM     23  O   UNL     1      44.473   4.324   8.762  0.00  0.00    +0.000 OA
BRANCH  23  24
ATOM     24  C   UNL     1      44.994   3.293   7.894  0.00  0.00    +0.000 C 
ATOM     25  C   UNL     1      45.765   2.121   8.556  0.00  0.00    +0.000 C 
ATOM     26  C   UNL     1      46.804   2.224   7.426  0.00  0.00    +0.000 C 
ATOM     27  C   UNL     1      46.329   3.667   7.196  0.00  0.00    +0.000 C 
ENDBRANCH  23  24
ENDBRANCH  20  23
ENDBRANCH  15  16
ENDBRANCH   1  15
TORSDOF 7
ENDMDL
MODEL 5
REMARK VINA RESULT:    -6.483      3.072      7.991
REMARK INTER + INTRA:         -10.304
REMARK INTER:                  -9.246
REMARK INTRA:                  -1.058
REMARK UNBOUND:                -1.168
REMARK  Name = 
REMARK  9 active torsions:
REMARK  status: ('A' for Active; 'I' for Inactive)
REMARK    1  A    between atoms: C_1  and  C_2
REMARK    2  A    between atoms: C_4  and  O_5
REMARK    3  A    between atoms: O_5  and  C_6
REMARK    4  A    between atoms: C_6  and  C_7
REMARK    5  A    between atoms: C_7  and  C_8
REMARK    6  A    between atoms: C_12  and  O_13
REMARK    7  A    between atoms: O_13  and  C_14
REMARK    8  A    between atoms: C_18  and  C_19
REMARK    9  A    between atoms: C_22  and  C_23
REMARK                            x       y       z     vdW  Elec       q    Type
REMARK                         _______ _______ _______ _____ _____    ______ ____
ROOT
ATOM      1  C   UNL     1      46.634   4.954  13.970  0.00  0.00    +0.000 C 
ENDROOT
BRANCH   1   2
ATOM      2  O   UNL     1      47.846   5.294  13.282  0.00  0.00    +0.000 OA
BRANCH   2   6
ATOM      3  C   UNL     1      49.081   9.728  11.439  0.00  0.00    +0.000 C 
ATOM      4  C   UNL     1      48.894   8.821  12.626  0.00  0.00    +0.000 A 
ATOM      5  C   UNL     1      48.461   7.501  12.386  0.00  0.00    +0.000 A 
ATOM      6  C   UNL     1      48.270   6.592  13.428  0.00  0.00    +0.000 A 
ATOM      7  C   UNL     1      48.516   7.008  14.735  0.00  0.00    +0.000 A 
ATOM      8  C   UNL     1      48.941   8.317  14.999  0.00  0.00    +0.000 A 
ATOM      9  C   UNL     1      49.139   9.233  13.950  0.00  0.00    +0.000 A 
BRANCH   9  10
ATOM     10  C   UNL     1      49.565  10.636  14.258  0.00  0.00    +0.000 C 
ATOM     11  N   UNL     1      48.582  11.542  14.549  0.00  0.00    +0.000 N 
ATOM     12  O   UNL     1      50.737  10.988  14.272  0.00  0.00    +0.000 OA
ATOM     13  H   UNL     1      47.629  11.281  14.751  0.00  0.00    +0.000 HD
ATOM     14  H   UNL     1      48.895  12.460  14.840  0.00  0.00    +0.000 HD
ENDBRANCH   9  10
ENDBRANCH   2   6
ENDBRANCH   1   2
BRANCH   1  15
ATOM     15  C   UNL     1      45.432   5.566  13.250  0.00  0.00    +0.000 C 
BRANCH  15  16
ATOM     16  C   UNL     1      44.912   4.652  12.155  0.00  0.00    +0.000 A 
ATOM     17  C   UNL     1      44.100   3.567  12.524  0.00  0.00    +0.000 A 
ATOM     18  C   UNL     1      43.570   2.710  11.561  0.00  0.00    +0.000 A 
ATOM     19  C   UNL     1      43.851   2.914  10.212  0.00  0.00    +0.000 A 
ATOM     20  C   UNL     1      44.661   3.981   9.820  0.00  0.00    +0.000 A 
ATOM     21  C   UNL     1      45.179   4.878  10.781  0.00  0.00    +0.000 A 
ATOM     22  C   UNL     1      46.010   6.060  10.349  0.00  0.00    +0.000 C 
BRANCH  20  23
ATOM     23  O   UNL     1      44.951   4.241   8.499  0.00  0.00    +0.000 OA
BRANCH  23  24
ATOM     24  C   UNL     1      45.346   3.152   7.635  0.00  0.00    +0.000 C 
ATOM     25  C   UNL     1      46.184   2.008   8.262  0.00  0.00    +0.000 C 
ATOM     26  C   UNL     1      47.069   2.026   7.004  0.00  0.00    +0.000 C 
ATOM     27  C   UNL     1      46.583   3.461   6.750  0.00  0.00    +0.000 C 
ENDBRANCH  23  24
ENDBRANCH  20  23
ENDBRANCH  15  16
ENDBRANCH   1  15
TORSDOF 7
ENDMDL
MODEL 6
REMARK VINA RESULT:    -6.371      3.850      8.438
REMARK INTER + INTRA:         -10.146
REMARK INTER:                  -9.728
REMARK INTRA:                  -0.418
REMARK UNBOUND:                -1.168
REMARK  Name = 
REMARK  9 active torsions:
REMARK  status: ('A' for Active; 'I' for Inactive)
REMARK    1  A    between atoms: C_1  and  C_2
REMARK    2  A    between atoms: C_4  and  O_5
REMARK    3  A    between atoms: O_5  and  C_6
REMARK    4  A    between atoms: C_6  and  C_7
REMARK    5  A    between atoms: C_7  and  C_8
REMARK    6  A    between atoms: C_12  and  O_13
REMARK    7  A    between atoms: O_13  and  C_14
REMARK    8  A    between atoms: C_18  and  C_19
REMARK    9  A    between atoms: C_22  and  C_23
REMARK                            x       y       z     vdW  Elec       q    Type
REMARK                         _______ _______ _______ _____ _____    ______ ____
ROOT
ATOM      1  C   UNL     1      47.003   3.774  14.500  0.00  0.00    +0.000 C 
ENDROOT
BRANCH   1   2
ATOM      2  O   UNL     1      47.031   3.454  15.897  0.00  0.00    +0.000 OA
BRANCH   2   6
ATOM      3  C   UNL     1      51.229   1.315  17.442  0.00  0.00    +0.000 C 
ATOM      4  C   UNL     1      50.379   2.548  17.290  0.00  0.00    +0.000 A 
ATOM      5  C   UNL     1      49.121   2.411  16.669  0.00  0.00    +0.000 A 
ATOM      6  C   UNL     1      48.266   3.500  16.495  0.00  0.00    +0.000 A 
ATOM      7  C   UNL     1      48.675   4.752  16.951  0.00  0.00    +0.000 A 
ATOM      8  C   UNL     1      49.924   4.916  17.566  0.00  0.00    +0.000 A 
ATOM      9  C   UNL     1      50.784   3.818  17.745  0.00  0.00    +0.000 A 
BRANCH   9  10
ATOM     10  C   UNL     1      52.127   4.021  18.378  0.00  0.00    +0.000 C 
ATOM     11  N   UNL     1      52.196   3.946  19.742  0.00  0.00    +0.000 N 
ATOM     12  O   UNL     1      53.144   4.232  17.731  0.00  0.00    +0.000 OA
ATOM     13  H   UNL     1      51.451   3.581  20.317  0.00  0.00    +0.000 HD
ATOM     14  H   UNL     1      53.124   3.998  20.145  0.00  0.00    +0.000 HD
ENDBRANCH   9  10
ENDBRANCH   2   6
ENDBRANCH   1   2
BRANCH   1  15
ATOM     15  C   UNL     1      45.784   4.641  14.184  0.00  0.00    +0.000 C 
BRANCH  15  16
ATOM     16  C   UNL     1      45.726   5.010  12.713  0.00  0.00    +0.000 A 
ATOM     17  C   UNL     1      46.610   5.994  12.240  0.00  0.00    +0.000 A 
ATOM     18  C   UNL     1      46.624   6.355  10.894  0.00  0.00    +0.000 A 
ATOM     19  C   UNL     1      45.746   5.750   9.998  0.00  0.00    +0.000 A 
ATOM     20  C   UNL     1      44.852   4.774  10.445  0.00  0.00    +0.000 A 
ATOM     21  C   UNL     1      44.850   4.373  11.800  0.00  0.00    +0.000 A 
ATOM     22  C   UNL     1      43.919   3.282  12.269  0.00  0.00    +0.000 C 
BRANCH  20  23
ATOM     23  O   UNL     1      43.980   4.129   9.597  0.00  0.00    +0.000 OA
BRANCH  23  24
ATOM     24  C   UNL     1      44.506   3.264   8.567  0.00  0.00    +0.000 C 
ATOM     25  C   UNL     1      45.324   2.026   9.018  0.00  0.00    +0.000 C 
ATOM     26  C   UNL     1      46.332   2.338   7.899  0.00  0.00    +0.000 C 
ATOM     27  C   UNL     1      45.814   3.784   7.910  0.00  0.00    +0.000 C 
ENDBRANCH  23  24
ENDBRANCH  20  23
ENDBRANCH  15  16
ENDBRANCH   1  15
TORSDOF 7
ENDMDL
MODEL 7
REMARK VINA RESULT:    -6.055      3.802      6.321
REMARK INTER + INTRA:          -9.701
REMARK INTER:                  -8.038
REMARK INTRA:                  -1.663
REMARK UNBOUND:                -1.168
REMARK  Name = 
REMARK  9 active torsions:
REMARK  status: ('A' for Active; 'I' for Inactive)
REMARK    1  A    between atoms: C_1  and  C_2
REMARK    2  A    between atoms: C_4  and  O_5
REMARK    3  A    between atoms: O_5  and  C_6
REMARK    4  A    between atoms: C_6  and  C_7
REMARK    5  A    between atoms: C_7  and  C_8
REMARK    6  A    between atoms: C_12  and  O_13
REMARK    7  A    between atoms: O_13  and  C_14
REMARK    8  A    between atoms: C_18  and  C_19
REMARK    9  A    between atoms: C_22  and  C_23
REMARK                            x       y       z     vdW  Elec       q    Type
REMARK                         _______ _______ _______ _____ _____    ______ ____
ROOT
ATOM      1  C   UNL     1      49.132   8.160  13.893  0.00  0.00    +0.000 C 
ENDROOT
BRANCH   1   2
ATOM      2  O   UNL     1      49.171   6.778  13.514  0.00  0.00    +0.000 OA
BRANCH   2   6
ATOM      3  C   UNL     1      45.114   5.975  10.780  0.00  0.00    +0.000 C 
ATOM      4  C   UNL     1      45.913   5.709  12.028  0.00  0.00    +0.000 A 
ATOM      5  C   UNL     1      47.152   6.366  12.171  0.00  0.00    +0.000 A 
ATOM      6  C   UNL     1      47.952   6.184  13.300  0.00  0.00    +0.000 A 
ATOM      7  C   UNL     1      47.507   5.329  14.307  0.00  0.00    +0.000 A 
ATOM      8  C   UNL     1      46.281   4.660  14.185  0.00  0.00    +0.000 A 
ATOM      9  C   UNL     1      45.472   4.845  13.050  0.00  0.00    +0.000 A 
BRANCH   9  10
ATOM     10  C   UNL     1      44.180   4.098  12.927  0.00  0.00    +0.000 C 
ATOM     11  N   UNL     1      44.247   2.786  12.545  0.00  0.00    +0.000 N 
ATOM     12  O   UNL     1      43.091   4.604  13.166  0.00  0.00    +0.000 OA
ATOM     13  H   UNL     1      45.105   2.256  12.528  0.00  0.00    +0.000 HD
ATOM     14  H   UNL     1      43.373   2.274  12.553  0.00  0.00    +0.000 HD
ENDBRANCH   9  10
ENDBRANCH   2   6
ENDBRANCH   1   2
BRANCH   1  15
ATOM     15  C   UNL     1      50.060   8.405  15.084  0.00  0.00    +0.000 C 
BRANCH  15  16
ATOM     16  C   UNL     1      49.367   8.111  16.402  0.00  0.00    +0.000 A 
ATOM     17  C   UNL     1      48.412   9.030  16.870  0.00  0.00    +0.000 A 
ATOM     18  C   UNL     1      47.722   8.801  18.059  0.00  0.00    +0.000 A 
ATOM     19  C   UNL     1      47.982   7.657  18.810  0.00  0.00    +0.000 A 
ATOM     20  C   UNL     1      48.932   6.732  18.370  0.00  0.00    +0.000 A 
ATOM     21  C   UNL     1      49.615   6.933  17.150  0.00  0.00    +0.000 A 
ATOM     22  C   UNL     1      50.602   5.907  16.652  0.00  0.00    +0.000 C 
BRANCH  20  23
ATOM     23  O   UNL     1      49.210   5.575  19.063  0.00  0.00    +0.000 OA
BRANCH  23  24
ATOM     24  C   UNL     1      48.301   4.457  18.964  0.00  0.00    +0.000 C 
ATOM     25  C   UNL     1      48.780   3.211  18.172  0.00  0.00    +0.000 C 
ATOM     26  C   UNL     1      47.384   3.137  17.529  0.00  0.00    +0.000 C 
ATOM     27  C   UNL     1      47.207   4.624  17.875  0.00  0.00    +0.000 C 
ENDBRANCH  23  24
ENDBRANCH  20  23
ENDBRANCH  15  16
ENDBRANCH   1  15
TORSDOF 7
ENDMDL
MODEL 8
REMARK VINA RESULT:    -5.949      3.633      9.091
REMARK INTER + INTRA:          -9.552
REMARK INTER:                  -8.587
REMARK INTRA:                  -0.965
REMARK UNBOUND:                -1.168
REMARK  Name = 
REMARK  9 active torsions:
REMARK  status: ('A' for Active; 'I' for Inactive)
REMARK    1  A    between atoms: C_1  and  C_2
REMARK    2  A    between atoms: C_4  and  O_5
REMARK    3  A    between atoms: O_5  and  C_6
REMARK    4  A    between atoms: C_6  and  C_7
REMARK    5  A    between atoms: C_7  and  C_8
REMARK    6  A    between atoms: C_12  and  O_13
REMARK    7  A    between atoms: O_13  and  C_14
REMARK    8  A    between atoms: C_18  and  C_19
REMARK    9  A    between atoms: C_22  and  C_23
REMARK                            x       y       z     vdW  Elec       q    Type
REMARK                         _______ _______ _______ _____ _____    ______ ____
ROOT
ATOM      1  C   UNL     1      48.670   7.071  14.167  0.00  0.00    +0.000 C 
ENDROOT
BRANCH   1   2
ATOM      2  O   UNL     1      48.744   7.767  15.419  0.00  0.00    +0.000 OA
BRANCH   2   6
ATOM      3  C   UNL     1      50.434   3.665  17.632  0.00  0.00    +0.000 C 
ATOM      4  C   UNL     1      49.743   5.000  17.723  0.00  0.00    +0.000 A 
ATOM      5  C   UNL     1      49.578   5.739  16.535  0.00  0.00    +0.000 A 
ATOM      6  C   UNL     1      48.941   6.981  16.527  0.00  0.00    +0.000 A 
ATOM      7  C   UNL     1      48.460   7.496  17.730  0.00  0.00    +0.000 A 
ATOM      8  C   UNL     1      48.619   6.782  18.926  0.00  0.00    +0.000 A 
ATOM      9  C   UNL     1      49.256   5.529  18.935  0.00  0.00    +0.000 A 
BRANCH   9  10
ATOM     10  C   UNL     1      49.441   4.797  20.229  0.00  0.00    +0.000 C 
ATOM     11  N   UNL     1      48.486   3.881  20.574  0.00  0.00    +0.000 N 
ATOM     12  O   UNL     1      50.404   4.975  20.964  0.00  0.00    +0.000 OA
ATOM     13  H   UNL     1      47.785   3.541  19.934  0.00  0.00    +0.000 HD
ATOM     14  H   UNL     1      48.673   3.334  21.407  0.00  0.00    +0.000 HD
ENDBRANCH   9  10
ENDBRANCH   2   6
ENDBRANCH   1   2
BRANCH   1  15
ATOM     15  C   UNL     1      47.311   7.316  13.510  0.00  0.00    +0.000 C 
BRANCH  15  16
ATOM     16  C   UNL     1      46.640   6.015  13.110  0.00  0.00    +0.000 A 
ATOM     17  C   UNL     1      47.118   4.820  13.675  0.00  0.00    +0.000 A 
ATOM     18  C   UNL     1      46.524   3.597  13.368  0.00  0.00    +0.000 A 
ATOM     19  C   UNL     1      45.451   3.543  12.482  0.00  0.00    +0.000 A 
ATOM     20  C   UNL     1      44.963   4.715  11.902  0.00  0.00    +0.000 A 
ATOM     21  C   UNL     1      45.531   5.966  12.229  0.00  0.00    +0.000 A 
ATOM     22  C   UNL     1      44.968   7.236  11.641  0.00  0.00    +0.000 C 
BRANCH  20  23
ATOM     23  O   UNL     1      43.890   4.720  11.037  0.00  0.00    +0.000 OA
BRANCH  23  24
ATOM     24  C   UNL     1      44.078   4.273   9.677  0.00  0.00    +0.000 C 
ATOM     25  C   UNL     1      44.460   2.786   9.456  0.00  0.00    +0.000 C 
ATOM     26  C   UNL     1      45.483   3.249   8.406  0.00  0.00    +0.000 C 
ATOM     27  C   UNL     1      45.466   4.631   9.078  0.00  0.00    +0.000 C 
ENDBRANCH  23  24
ENDBRANCH  20  23
ENDBRANCH  15  16
ENDBRANCH   1  15
TORSDOF 7
ENDMDL
MODEL 9
REMARK VINA RESULT:    -5.894      3.880      8.344
REMARK INTER + INTRA:          -9.475
REMARK INTER:                  -8.087
REMARK INTRA:                  -1.388
REMARK UNBOUND:                -1.168
REMARK  Name = 
REMARK  9 active torsions:
REMARK  status: ('A' for Active; 'I' for Inactive)
REMARK    1  A    between atoms: C_1  and  C_2
REMARK    2  A    between atoms: C_4  and  O_5
REMARK    3  A    between atoms: O_5  and  C_6
REMARK    4  A    between atoms: C_6  and  C_7
REMARK    5  A    between atoms: C_7  and  C_8
REMARK    6  A    between atoms: C_12  and  O_13
REMARK    7  A    between atoms: O_13  and  C_14
REMARK    8  A    between atoms: C_18  and  C_19
REMARK    9  A    between atoms: C_22  and  C_23
REMARK                            x       y       z     vdW  Elec       q    Type
REMARK                         _______ _______ _______ _____ _____    ______ ____
ROOT
ATOM      1  C   UNL     1      49.153   7.863  14.298  0.00  0.00    +0.000 C 
ENDROOT
BRANCH   1   2
ATOM      2  O   UNL     1      48.567   7.430  15.533  0.00  0.00    +0.000 OA
BRANCH   2   6
ATOM      3  C   UNL     1      48.738   3.144  18.019  0.00  0.00    +0.000 C 
ATOM      4  C   UNL     1      49.448   4.336  17.434  0.00  0.00    +0.000 A 
ATOM      5  C   UNL     1      48.672   5.304  16.767  0.00  0.00    +0.000 A 
ATOM      6  C   UNL     1      49.248   6.445  16.203  0.00  0.00    +0.000 A 
ATOM      7  C   UNL     1      50.626   6.621  16.308  0.00  0.00    +0.000 A 
ATOM      8  C   UNL     1      51.420   5.668  16.961  0.00  0.00    +0.000 A 
ATOM      9  C   UNL     1      50.841   4.522  17.534  0.00  0.00    +0.000 A 
BRANCH   9  10
ATOM     10  C   UNL     1      51.712   3.502  18.201  0.00  0.00    +0.000 C 
ATOM     11  N   UNL     1      52.120   3.765  19.480  0.00  0.00    +0.000 N 
ATOM     12  O   UNL     1      52.052   2.459  17.660  0.00  0.00    +0.000 OA
ATOM     13  H   UNL     1      51.721   4.495  20.051  0.00  0.00    +0.000 HD
ATOM     14  H   UNL     1      52.634   3.026  19.945  0.00  0.00    +0.000 HD
ENDBRANCH   9  10
ENDBRANCH   2   6
ENDBRANCH   1   2
BRANCH   1  15
ATOM     15  C   UNL     1      48.771   6.902  13.171  0.00  0.00    +0.000 C 
BRANCH  15  16
ATOM     16  C   UNL     1      47.301   7.015  12.814  0.00  0.00    +0.000 A 
ATOM     17  C   UNL     1      46.852   8.204  12.213  0.00  0.00    +0.000 A 
ATOM     18  C   UNL     1      45.519   8.355  11.836  0.00  0.00    +0.000 A 
ATOM     19  C   UNL     1      44.606   7.328  12.064  0.00  0.00    +0.000 A 
ATOM     20  C   UNL     1      45.025   6.140  12.666  0.00  0.00    +0.000 A 
ATOM     21  C   UNL     1      46.380   5.958  13.023  0.00  0.00    +0.000 A 
ATOM     22  C   UNL     1      46.840   4.654  13.625  0.00  0.00    +0.000 C 
BRANCH  20  23
ATOM     23  O   UNL     1      44.169   5.085  12.893  0.00  0.00    +0.000 OA
BRANCH  23  24
ATOM     24  C   UNL     1      43.598   4.385  11.767  0.00  0.00    +0.000 C 
ATOM     25  C   UNL     1      43.520   2.838  11.849  0.00  0.00    +0.000 C 
ATOM     26  C   UNL     1      43.996   2.779  10.388  0.00  0.00    +0.000 C 
ATOM     27  C   UNL     1      44.578   4.188  10.579  0.00  0.00    +0.000 C 
ENDBRANCH  23  24
ENDBRANCH  20  23
ENDBRANCH  15  16
ENDBRANCH   1  15
TORSDOF 7
ENDMDL
