MODEL 1
REMARK VINA RESULT:    -8.754      0.000      0.000
REMARK INTER + INTRA:         -12.653
REMARK INTER:                 -11.825
REMARK INTRA:                  -0.828
REMARK UNBOUND:                -0.828
REMARK  Name = 
REMARK  8 active torsions:
REMARK  status: ('A' for Active; 'I' for Inactive)
REMARK    1  A    between atoms: C_1  and  C_2
REMARK    2  A    between atoms: C_2  and  N_3
REMARK    3  A    between atoms: C_2  and  C_19
REMARK    4  A    between atoms: N_3  and  C_4
REMARK    5  A    between atoms: C_8  and  C_9
REMARK    6  A    between atoms: C_9  and  N_10
REMARK    7  A    between atoms: N_10  and  C_11
REMARK    8  A    between atoms: C_19  and  C_21
REMARK                            x       y       z     vdW  Elec       q    Type
REMARK                         _______ _______ _______ _____ _____    ______ ____
ROOT
ATOM      1  N   UNL     1      47.503   5.774  15.215  0.00  0.00    +0.000 N 
ATOM      2  H   UNL     1      48.469   5.839  15.546  0.00  0.00    +0.000 HD
ENDROOT
BRANCH   1   3
ATOM      3  C   UNL     1      47.481   6.275  13.905  0.00  0.00    +0.000 A 
ATOM      4  C   UNL     1      48.684   6.788  13.405  0.00  0.00    +0.000 A 
ATOM      5  C   UNL     1      48.761   7.324  12.122  0.00  0.00    +0.000 A 
ATOM      6  C   UNL     1      47.647   7.276  11.290  0.00  0.00    +0.000 A 
ATOM      7  C   UNL     1      46.470   6.639  11.709  0.00  0.00    +0.000 A 
ATOM      8  C   UNL     1      46.393   6.156  13.027  0.00  0.00    +0.000 A 
BRANCH   7   9
ATOM      9  C   UNL     1      45.371   6.373  10.693  0.00  0.00    +0.000 C 
BRANCH   9  10
ATOM     10  N   UNL     1      44.708   5.064  10.768  0.00  0.00    +0.000 N 
ATOM     11  C   UNL     1      43.245   5.028  10.839  0.00  0.00    +0.000 C 
ATOM     12  C   UNL     1      45.174   4.207   9.733  0.00  0.00    +0.000 A 
ATOM     13  C   UNL     1      45.018   2.824   9.864  0.00  0.00    +0.000 A 
ATOM     14  C   UNL     1      45.426   1.976   8.832  0.00  0.00    +0.000 A 
ATOM     15  C   UNL     1      45.976   2.520   7.681  0.00  0.00    +0.000 A 
ATOM     16  C   UNL     1      46.106   3.892   7.623  0.00  0.00    +0.000 A 
ATOM     17  N   UNL     1      45.731   4.729   8.617  0.00  0.00    +0.000 NA
ENDBRANCH   9  10
ENDBRANCH   7   9
ENDBRANCH   1   3
BRANCH   1  19
ATOM     18  C   UNL     1      47.237   3.436  14.354  0.00  0.00    +0.000 C 
ATOM     19  C   UNL     1      46.991   4.398  15.514  0.00  0.00    +0.000 C 
BRANCH  19  20
ATOM     20  C   UNL     1      47.469   3.895  16.891  0.00  0.00    +0.000 C 
ATOM     21  O   UNL     1      46.698   3.212  17.583  0.00  0.00    +0.000 OA
BRANCH  20  22
ATOM     22  C   UNL     1      48.835   4.117  17.419  0.00  0.00    +0.000 A 
ATOM     23  C   UNL     1      49.066   5.256  18.184  0.00  0.00    +0.000 A 
ATOM     24  S   UNL     1      50.608   5.305  18.900  0.00  0.00    +0.000 S 
ATOM     25  C   UNL     1      51.017   3.795  18.238  0.00  0.00    +0.000 A 
ATOM     26  N   UNL     1      52.196   3.199  18.566  0.00  0.00    +0.000 NA
ATOM     27  C   UNL     1      52.370   2.033  18.040  0.00  0.00    +0.000 A 
ATOM     28  N   UNL     1      51.491   1.432  17.181  0.00  0.00    +0.000 N 
ATOM     29  C   UNL     1      50.331   2.036  16.751  0.00  0.00    +0.000 A 
ATOM     30  O   UNL     1      49.659   1.530  15.862  0.00  0.00    +0.000 OA
ATOM     31  C   UNL     1      50.029   3.299  17.399  0.00  0.00    +0.000 A 
ATOM     32  H   UNL     1      51.717   0.548  16.749  0.00  0.00    +0.000 HD
ENDBRANCH  20  22
ENDBRANCH  19  20
ENDBRANCH   1  19
TORSDOF 6
ENDMDL
MODEL 2
REMARK VINA RESULT:    -8.747      2.527      3.977
REMARK INTER + INTRA:         -12.643
REMARK INTER:                 -11.467
REMARK INTRA:                  -1.176
REMARK UNBOUND:                -0.828
REMARK  Name = 
REMARK  8 active torsions:
REMARK  status: ('A' for Active; 'I' for Inactive)
REMARK    1  A    between atoms: C_1  and  C_2
REMARK    2  A    between atoms: C_2  and  N_3
REMARK    3  A    between atoms: C_2  and  C_19
REMARK    4  A    between atoms: N_3  and  C_4
REMARK    5  A    between atoms: C_8  and  C_9
REMARK    6  A    between atoms: C_9  and  N_10
REMARK    7  A    between atoms: N_10  and  C_11
REMARK    8  A    between atoms: C_19  and  C_21
REMARK                            x       y       z     vdW  Elec       q    Type
REMARK                         _______ _______ _______ _____ _____    ______ ____
ROOT
ATOM      1  N   UNL     1      45.778   6.863  13.363  0.00  0.00    +0.000 N 
ATOM      2  H   UNL     1      45.166   7.619  13.682  0.00  0.00    +0.000 HD
ENDROOT
BRANCH   1   3
ATOM      3  C   UNL     1      44.996   6.002  12.579  0.00  0.00    +0.000 A 
ATOM      4  C   UNL     1      43.679   5.783  13.001  0.00  0.00    +0.000 A 
ATOM      5  C   UNL     1      42.830   4.931  12.301  0.00  0.00    +0.000 A 
ATOM      6  C   UNL     1      43.265   4.352  11.114  0.00  0.00    +0.000 A 
ATOM      7  C   UNL     1      44.527   4.664  10.587  0.00  0.00    +0.000 A 
ATOM      8  C   UNL     1      45.391   5.479  11.338  0.00  0.00    +0.000 A 
BRANCH   7   9
ATOM      9  C   UNL     1      44.867   4.226   9.172  0.00  0.00    +0.000 C 
BRANCH   9  10
ATOM     10  N   UNL     1      45.322   2.840   9.003  0.00  0.00    +0.000 N 
ATOM     11  C   UNL     1      44.324   1.768   9.056  0.00  0.00    +0.000 C 
ATOM     12  C   UNL     1      46.121   2.714   7.833  0.00  0.00    +0.000 A 
ATOM     13  C   UNL     1      46.992   1.628   7.709  0.00  0.00    +0.000 A 
ATOM     14  C   UNL     1      47.744   1.466   6.544  0.00  0.00    +0.000 A 
ATOM     15  C   UNL     1      47.610   2.386   5.515  0.00  0.00    +0.000 A 
ATOM     16  C   UNL     1      46.737   3.437   5.708  0.00  0.00    +0.000 A 
ATOM     17  N   UNL     1      46.011   3.618   6.834  0.00  0.00    +0.000 NA
ENDBRANCH   9  10
ENDBRANCH   7   9
ENDBRANCH   1   3
BRANCH   1  19
ATOM     18  C   UNL     1      47.030   8.992  12.938  0.00  0.00    +0.000 C 
ATOM     19  C   UNL     1      47.031   7.470  12.811  0.00  0.00    +0.000 C 
BRANCH  19  20
ATOM     20  C   UNL     1      48.294   6.772  13.355  0.00  0.00    +0.000 C 
ATOM     21  O   UNL     1      49.206   6.478  12.566  0.00  0.00    +0.000 OA
BRANCH  20  22
ATOM     22  C   UNL     1      48.524   6.488  14.789  0.00  0.00    +0.000 A 
ATOM     23  C   UNL     1      49.191   7.442  15.550  0.00  0.00    +0.000 A 
ATOM     24  S   UNL     1      49.220   7.101  17.216  0.00  0.00    +0.000 S 
ATOM     25  C   UNL     1      48.320   5.678  16.990  0.00  0.00    +0.000 A 
ATOM     26  N   UNL     1      47.901   4.953  18.063  0.00  0.00    +0.000 NA
ATOM     27  C   UNL     1      47.184   3.922  17.765  0.00  0.00    +0.000 A 
ATOM     28  N   UNL     1      46.886   3.529  16.488  0.00  0.00    +0.000 N 
ATOM     29  C   UNL     1      47.363   4.179  15.373  0.00  0.00    +0.000 A 
ATOM     30  O   UNL     1      47.205   3.699  14.258  0.00  0.00    +0.000 OA
ATOM     31  C   UNL     1      48.080   5.411  15.649  0.00  0.00    +0.000 A 
ATOM     32  H   UNL     1      46.378   2.673  16.320  0.00  0.00    +0.000 HD
ENDBRANCH  20  22
ENDBRANCH  19  20
ENDBRANCH   1  19
TORSDOF 6
ENDMDL
MODEL 3
REMARK VINA RESULT:    -8.560      1.106      1.442
REMARK INTER + INTRA:         -12.391
REMARK INTER:                 -11.449
REMARK INTRA:                  -0.942
REMARK UNBOUND:                -0.828
REMARK  Name = 
REMARK  8 active torsions:
REMARK  status: ('A' for Active; 'I' for Inactive)
REMARK    1  A    between atoms: C_1  and  C_2
REMARK    2  A    between atoms: C_2  and  N_3
REMARK    3  A    between atoms: C_2  and  C_19
REMARK    4  A    between atoms: N_3  and  C_4
REMARK    5  A    between atoms: C_8  and  C_9
REMARK    6  A    between atoms: C_9  and  N_10
REMARK    7  A    between atoms: N_10  and  C_11
REMARK    8  A    between atoms: C_19  and  C_21
REMARK                            x       y       z     vdW  Elec       q    Type
REMARK                         _______ _______ _______ _____ _____    ______ ____
ROOT
ATOM      1  N   UNL     1      47.720   5.709  15.373  0.00  0.00    +0.000 N 
ATOM      2  H   UNL     1      46.832   5.949  15.821  0.00  0.00    +0.000 HD
ENDROOT
BRANCH   1   3
ATOM      3  C   UNL     1      47.686   6.244  14.076  0.00  0.00    +0.000 A 
ATOM      4  C   UNL     1      48.896   6.716  13.555  0.00  0.00    +0.000 A 
ATOM      5  C   UNL     1      48.962   7.281  12.284  0.00  0.00    +0.000 A 
ATOM      6  C   UNL     1      47.825   7.303  11.483  0.00  0.00    +0.000 A 
ATOM      7  C   UNL     1      46.633   6.708  11.919  0.00  0.00    +0.000 A 
ATOM      8  C   UNL     1      46.570   6.196  13.227  0.00  0.00    +0.000 A 
BRANCH   7   9
ATOM      9  C   UNL     1      45.496   6.517  10.928  0.00  0.00    +0.000 C 
BRANCH   9  10
ATOM     10  N   UNL     1      44.762   5.247  11.006  0.00  0.00    +0.000 N 
ATOM     11  C   UNL     1      43.301   5.293  11.107  0.00  0.00    +0.000 C 
ATOM     12  C   UNL     1      45.158   4.375   9.954  0.00  0.00    +0.000 A 
ATOM     13  C   UNL     1      44.927   3.002  10.076  0.00  0.00    +0.000 A 
ATOM     14  C   UNL     1      45.265   2.142   9.029  0.00  0.00    +0.000 A 
ATOM     15  C   UNL     1      45.821   2.665   7.872  0.00  0.00    +0.000 A 
ATOM     16  C   UNL     1      46.028   4.029   7.822  0.00  0.00    +0.000 A 
ATOM     17  N   UNL     1      45.720   4.875   8.831  0.00  0.00    +0.000 NA
ENDBRANCH   9  10
ENDBRANCH   7   9
ENDBRANCH   1   3
BRANCH   1  19
ATOM     18  C   UNL     1      48.628   7.427  16.955  0.00  0.00    +0.000 C 
ATOM     19  C   UNL     1      48.834   6.057  16.312  0.00  0.00    +0.000 C 
BRANCH  19  20
ATOM     20  C   UNL     1      49.130   4.911  17.301  0.00  0.00    +0.000 C 
ATOM     21  O   UNL     1      48.180   4.320  17.838  0.00  0.00    +0.000 OA
BRANCH  20  22
ATOM     22  C   UNL     1      50.492   4.416  17.602  0.00  0.00    +0.000 A 
ATOM     23  C   UNL     1      51.397   5.297  18.186  0.00  0.00    +0.000 A 
ATOM     24  S   UNL     1      52.857   4.568  18.669  0.00  0.00    +0.000 S 
ATOM     25  C   UNL     1      52.327   3.043  18.140  0.00  0.00    +0.000 A 
ATOM     26  N   UNL     1      53.085   1.936  18.368  0.00  0.00    +0.000 NA
ATOM     27  C   UNL     1      52.553   0.832  17.965  0.00  0.00    +0.000 A 
ATOM     28  N   UNL     1      51.352   0.742  17.316  0.00  0.00    +0.000 N 
ATOM     29  C   UNL     1      50.595   1.842  16.983  0.00  0.00    +0.000 A 
ATOM     30  O   UNL     1      49.612   1.728  16.264  0.00  0.00    +0.000 OA
ATOM     31  C   UNL     1      51.089   3.101  17.513  0.00  0.00    +0.000 A 
ATOM     32  H   UNL     1      51.023  -0.145  16.964  0.00  0.00    +0.000 HD
ENDBRANCH  20  22
ENDBRANCH  19  20
ENDBRANCH   1  19
TORSDOF 6
ENDMDL
MODEL 4
REMARK VINA RESULT:    -7.848      3.475      8.102
REMARK INTER + INTRA:         -11.429
REMARK INTER:                  -9.953
REMARK INTRA:                  -1.476
REMARK UNBOUND:                -0.828
REMARK  Name = 
REMARK  8 active torsions:
REMARK  status: ('A' for Active; 'I' for Inactive)
REMARK    1  A    between atoms: C_1  and  C_2
REMARK    2  A    between atoms: C_2  and  N_3
REMARK    3  A    between atoms: C_2  and  C_19
REMARK    4  A    between atoms: N_3  and  C_4
REMARK    5  A    between atoms: C_8  and  C_9
REMARK    6  A    between atoms: C_9  and  N_10
REMARK    7  A    between atoms: N_10  and  C_11
REMARK    8  A    between atoms: C_19  and  C_21
REMARK                            x       y       z     vdW  Elec       q    Type
REMARK                         _______ _______ _______ _____ _____    ______ ____
ROOT
ATOM      1  N   UNL     1      46.839   6.945  11.802  0.00  0.00    +0.000 N 
ATOM      2  H   UNL     1      47.013   7.335  10.872  0.00  0.00    +0.000 HD
ENDROOT
BRANCH   1   3
ATOM      3  C   UNL     1      47.992   7.177  12.568  0.00  0.00    +0.000 A 
ATOM      4  C   UNL     1      49.087   7.746  11.906  0.00  0.00    +0.000 A 
ATOM      5  C   UNL     1      50.282   7.998  12.574  0.00  0.00    +0.000 A 
ATOM      6  C   UNL     1      50.367   7.760  13.942  0.00  0.00    +0.000 A 
ATOM      7  C   UNL     1      49.244   7.326  14.662  0.00  0.00    +0.000 A 
ATOM      8  C   UNL     1      48.065   7.022  13.961  0.00  0.00    +0.000 A 
BRANCH   7   9
ATOM      9  C   UNL     1      49.295   7.327  16.182  0.00  0.00    +0.000 C 
BRANCH   9  10
ATOM     10  N   UNL     1      50.076   6.257  16.815  0.00  0.00    +0.000 N 
ATOM     11  C   UNL     1      50.865   6.582  18.006  0.00  0.00    +0.000 C 
ATOM     12  C   UNL     1      49.259   5.118  17.059  0.00  0.00    +0.000 A 
ATOM     13  C   UNL     1      49.857   3.869  17.245  0.00  0.00    +0.000 A 
ATOM     14  C   UNL     1      49.070   2.754  17.535  0.00  0.00    +0.000 A 
ATOM     15  C   UNL     1      47.695   2.902  17.645  0.00  0.00    +0.000 A 
ATOM     16  C   UNL     1      47.170   4.162  17.442  0.00  0.00    +0.000 A 
ATOM     17  N   UNL     1      47.916   5.250  17.147  0.00  0.00    +0.000 NA
ENDBRANCH   9  10
ENDBRANCH   7   9
ENDBRANCH   1   3
BRANCH   1  19
ATOM     18  C   UNL     1      45.401   8.947  12.250  0.00  0.00    +0.000 C 
ATOM     19  C   UNL     1      45.501   7.424  12.276  0.00  0.00    +0.000 C 
BRANCH  19  20
ATOM     20  C   UNL     1      44.346   6.683  11.573  0.00  0.00    +0.000 C 
ATOM     21  O   UNL     1      43.411   7.343  11.092  0.00  0.00    +0.000 OA
BRANCH  20  22
ATOM     22  C   UNL     1      44.312   5.217  11.369  0.00  0.00    +0.000 A 
ATOM     23  C   UNL     1      43.612   4.442  12.287  0.00  0.00    +0.000 A 
ATOM     24  S   UNL     1      43.473   2.805  11.845  0.00  0.00    +0.000 S 
ATOM     25  C   UNL     1      44.320   3.073  10.398  0.00  0.00    +0.000 A 
ATOM     26  N   UNL     1      44.455   2.072   9.486  0.00  0.00    +0.000 NA
ATOM     27  C   UNL     1      45.074   2.412   8.406  0.00  0.00    +0.000 A 
ATOM     28  N   UNL     1      45.607   3.651   8.176  0.00  0.00    +0.000 N 
ATOM     29  C   UNL     1      45.574   4.665   9.105  0.00  0.00    +0.000 A 
ATOM     30  O   UNL     1      46.201   5.700   8.921  0.00  0.00    +0.000 OA
ATOM     31  C   UNL     1      44.790   4.375  10.293  0.00  0.00    +0.000 A 
ATOM     32  H   UNL     1      46.140   3.834   7.339  0.00  0.00    +0.000 HD
ENDBRANCH  20  22
ENDBRANCH  19  20
ENDBRANCH   1  19
TORSDOF 6
ENDMDL
MODEL 5
REMARK VINA RESULT:    -7.725      2.124      3.026
REMARK INTER + INTRA:         -11.263
REMARK INTER:                 -10.645
REMARK INTRA:                  -0.618
REMARK UNBOUND:                -0.828
REMARK  Name = 
REMARK  8 active torsions:
REMARK  status: ('A' for Active; 'I' for Inactive)
REMARK    1  A    between atoms: C_1  and  C_2
REMARK    2  A    between atoms: C_2  and  N_3
REMARK    3  A    between atoms: C_2  and  C_19
REMARK    4  A    between atoms: N_3  and  C_4
REMARK    5  A    between atoms: C_8  and  C_9
REMARK    6  A    between atoms: C_9  and  N_10
REMARK    7  A    between atoms: N_10  and  C_11
REMARK    8  A    between atoms: C_19  and  C_21
REMARK                            x       y       z     vdW  Elec       q    Type
REMARK                         _______ _______ _______ _____ _____    ______ ____
ROOT
ATOM      1  N   UNL     1      46.956   3.787  14.312  0.00  0.00    +0.000 N 
ATOM      2  H   UNL     1      46.840   2.788  14.505  0.00  0.00    +0.000 HD
ENDROOT
BRANCH   1   3
ATOM      3  C   UNL     1      45.951   4.150  13.403  0.00  0.00    +0.000 A 
ATOM      4  C   UNL     1      45.291   5.361  13.641  0.00  0.00    +0.000 A 
ATOM      5  C   UNL     1      44.266   5.800  12.807  0.00  0.00    +0.000 A 
ATOM      6  C   UNL     1      43.948   5.068  11.668  0.00  0.00    +0.000 A 
ATOM      7  C   UNL     1      44.687   3.927  11.322  0.00  0.00    +0.000 A 
ATOM      8  C   UNL     1      45.677   3.468  12.207  0.00  0.00    +0.000 A 
BRANCH   7   9
ATOM      9  C   UNL     1      44.488   3.306   9.949  0.00  0.00    +0.000 C 
BRANCH   9  10
ATOM     10  N   UNL     1      45.099   4.010   8.814  0.00  0.00    +0.000 N 
ATOM     11  C   UNL     1      45.929   5.185   9.088  0.00  0.00    +0.000 C 
ATOM     12  C   UNL     1      45.796   3.097   7.975  0.00  0.00    +0.000 A 
ATOM     13  C   UNL     1      46.076   3.453   6.653  0.00  0.00    +0.000 A 
ATOM     14  C   UNL     1      46.804   2.587   5.835  0.00  0.00    +0.000 A 
ATOM     15  C   UNL     1      47.251   1.380   6.351  0.00  0.00    +0.000 A 
ATOM     16  C   UNL     1      46.934   1.089   7.663  0.00  0.00    +0.000 A 
ATOM     17  N   UNL     1      46.218   1.909   8.465  0.00  0.00    +0.000 NA
ENDBRANCH   9  10
ENDBRANCH   7   9
ENDBRANCH   1   3
BRANCH   1  19
ATOM     18  C   UNL     1      47.094   3.545  16.802  0.00  0.00    +0.000 C 
ATOM     19  C   UNL     1      47.101   4.508  15.617  0.00  0.00    +0.000 C 
BRANCH  19  20
ATOM     20  C   UNL     1      48.277   5.505  15.594  0.00  0.00    +0.000 C 
ATOM     21  O   UNL     1      48.704   5.907  14.500  0.00  0.00    +0.000 OA
BRANCH  20  22
ATOM     22  C   UNL     1      48.895   6.076  16.812  0.00  0.00    +0.000 A 
ATOM     23  C   UNL     1      48.509   7.352  17.208  0.00  0.00    +0.000 A 
ATOM     24  S   UNL     1      49.128   7.823  18.721  0.00  0.00    +0.000 S 
ATOM     25  C   UNL     1      49.916   6.331  18.918  0.00  0.00    +0.000 A 
ATOM     26  N   UNL     1      50.555   6.041  20.083  0.00  0.00    +0.000 NA
ATOM     27  C   UNL     1      51.071   4.859  20.130  0.00  0.00    +0.000 A 
ATOM     28  N   UNL     1      51.041   3.959  19.100  0.00  0.00    +0.000 N 
ATOM     29  C   UNL     1      50.486   4.243  17.873  0.00  0.00    +0.000 A 
ATOM     30  O   UNL     1      50.625   3.471  16.933  0.00  0.00    +0.000 OA
ATOM     31  C   UNL     1      49.791   5.515  17.801  0.00  0.00    +0.000 A 
ATOM     32  H   UNL     1      51.524   3.075  19.175  0.00  0.00    +0.000 HD
ENDBRANCH  20  22
ENDBRANCH  19  20
ENDBRANCH   1  19
TORSDOF 6
ENDMDL
MODEL 6
REMARK VINA RESULT:    -7.352      2.491      3.427
REMARK INTER + INTRA:         -10.759
REMARK INTER:                  -9.776
REMARK INTRA:                  -0.983
REMARK UNBOUND:                -0.828
REMARK  Name = 
REMARK  8 active torsions:
REMARK  status: ('A' for Active; 'I' for Inactive)
REMARK    1  A    between atoms: C_1  and  C_2
REMARK    2  A    between atoms: C_2  and  N_3
REMARK    3  A    between atoms: C_2  and  C_19
REMARK    4  A    between atoms: N_3  and  C_4
REMARK    5  A    between atoms: C_8  and  C_9
REMARK    6  A    between atoms: C_9  and  N_10
REMARK    7  A    between atoms: N_10  and  C_11
REMARK    8  A    between atoms: C_19  and  C_21
REMARK                            x       y       z     vdW  Elec       q    Type
REMARK                         _______ _______ _______ _____ _____    ______ ____
ROOT
ATOM      1  N   UNL     1      47.554   4.047  15.263  0.00  0.00    +0.000 N 
ATOM      2  H   UNL     1      47.010   3.210  15.037  0.00  0.00    +0.000 HD
ENDROOT
BRANCH   1   3
ATOM      3  C   UNL     1      47.209   5.029  14.323  0.00  0.00    +0.000 A 
ATOM      4  C   UNL     1      48.037   6.156  14.253  0.00  0.00    +0.000 A 
ATOM      5  C   UNL     1      47.768   7.195  13.366  0.00  0.00    +0.000 A 
ATOM      6  C   UNL     1      46.708   7.076  12.472  0.00  0.00    +0.000 A 
ATOM      7  C   UNL     1      45.948   5.899  12.418  0.00  0.00    +0.000 A 
ATOM      8  C   UNL     1      46.197   4.887  13.361  0.00  0.00    +0.000 A 
BRANCH   7   9
ATOM      9  C   UNL     1      44.976   5.699  11.266  0.00  0.00    +0.000 C 
BRANCH   9  10
ATOM     10  N   UNL     1      44.533   4.322  11.010  0.00  0.00    +0.000 N 
ATOM     11  C   UNL     1      43.097   4.036  11.041  0.00  0.00    +0.000 C 
ATOM     12  C   UNL     1      45.110   3.826   9.809  0.00  0.00    +0.000 A 
ATOM     13  C   UNL     1      45.181   2.446   9.599  0.00  0.00    +0.000 A 
ATOM     14  C   UNL     1      45.699   1.947   8.402  0.00  0.00    +0.000 A 
ATOM     15  C   UNL     1      46.132   2.834   7.427  0.00  0.00    +0.000 A 
ATOM     16  C   UNL     1      46.040   4.182   7.704  0.00  0.00    +0.000 A 
ATOM     17  N   UNL     1      45.554   4.683   8.862  0.00  0.00    +0.000 NA
ENDBRANCH   9  10
ENDBRANCH   7   9
ENDBRANCH   1   3
BRANCH   1  19
ATOM     18  C   UNL     1      47.027   3.060  17.506  0.00  0.00    +0.000 C 
ATOM     19  C   UNL     1      47.422   4.316  16.731  0.00  0.00    +0.000 C 
BRANCH  19  20
ATOM     20  C   UNL     1      48.648   5.067  17.289  0.00  0.00    +0.000 C 
ATOM     21  O   UNL     1      49.783   4.713  16.935  0.00  0.00    +0.000 OA
BRANCH  20  22
ATOM     22  C   UNL     1      48.555   6.247  18.179  0.00  0.00    +0.000 A 
ATOM     23  C   UNL     1      48.563   7.510  17.598  0.00  0.00    +0.000 A 
ATOM     24  S   UNL     1      48.250   8.776  18.691  0.00  0.00    +0.000 S 
ATOM     25  C   UNL     1      48.066   7.683  19.978  0.00  0.00    +0.000 A 
ATOM     26  N   UNL     1      47.673   8.126  21.203  0.00  0.00    +0.000 NA
ATOM     27  C   UNL     1      47.519   7.195  22.084  0.00  0.00    +0.000 A 
ATOM     28  N   UNL     1      47.767   5.868  21.861  0.00  0.00    +0.000 N 
ATOM     29  C   UNL     1      48.252   5.387  20.666  0.00  0.00    +0.000 A 
ATOM     30  O   UNL     1      48.610   4.221  20.564  0.00  0.00    +0.000 OA
ATOM     31  C   UNL     1      48.334   6.373  19.604  0.00  0.00    +0.000 A 
ATOM     32  H   UNL     1      47.694   5.198  22.612  0.00  0.00    +0.000 HD
ENDBRANCH  20  22
ENDBRANCH  19  20
ENDBRANCH   1  19
TORSDOF 6
ENDMDL
MODEL 7
REMARK VINA RESULT:    -7.117      2.306      3.238
REMARK INTER + INTRA:         -10.442
REMARK INTER:                  -9.167
REMARK INTRA:                  -1.275
REMARK UNBOUND:                -0.828
REMARK  Name = 
REMARK  8 active torsions:
REMARK  status: ('A' for Active; 'I' for Inactive)
REMARK    1  A    between atoms: C_1  and  C_2
REMARK    2  A    between atoms: C_2  and  N_3
REMARK    3  A    between atoms: C_2  and  C_19
REMARK    4  A    between atoms: N_3  and  C_4
REMARK    5  A    between atoms: C_8  and  C_9
REMARK    6  A    between atoms: C_9  and  N_10
REMARK    7  A    between atoms: N_10  and  C_11
REMARK    8  A    between atoms: C_19  and  C_21
REMARK                            x       y       z     vdW  Elec       q    Type
REMARK                         _______ _______ _______ _____ _____    ______ ____
ROOT
ATOM      1  N   UNL     1      50.034   7.004  15.522  0.00  0.00    +0.000 N 
ATOM      2  H   UNL     1      49.901   5.992  15.590  0.00  0.00    +0.000 HD
ENDROOT
BRANCH   1   3
ATOM      3  C   UNL     1      49.591   7.393  14.249  0.00  0.00    +0.000 A 
ATOM      4  C   UNL     1      50.436   8.234  13.515  0.00  0.00    +0.000 A 
ATOM      5  C   UNL     1      50.078   8.690  12.249  0.00  0.00    +0.000 A 
ATOM      6  C   UNL     1      48.899   8.237  11.665  0.00  0.00    +0.000 A 
ATOM      7  C   UNL     1      48.102   7.283  12.313  0.00  0.00    +0.000 A 
ATOM      8  C   UNL     1      48.450   6.880  13.614  0.00  0.00    +0.000 A 
BRANCH   7   9
ATOM      9  C   UNL     1      46.971   6.619  11.543  0.00  0.00    +0.000 C 
BRANCH   9  10
ATOM     10  N   UNL     1      45.618   6.784  12.089  0.00  0.00    +0.000 N 
ATOM     11  C   UNL     1      44.750   7.809  11.501  0.00  0.00    +0.000 C 
ATOM     12  C   UNL     1      44.942   5.534  12.139  0.00  0.00    +0.000 A 
ATOM     13  C   UNL     1      43.847   5.378  12.994  0.00  0.00    +0.000 A 
ATOM     14  C   UNL     1      43.144   4.171  13.015  0.00  0.00    +0.000 A 
ATOM     15  C   UNL     1      43.540   3.140  12.176  0.00  0.00    +0.000 A 
ATOM     16  C   UNL     1      44.633   3.360  11.364  0.00  0.00    +0.000 A 
ATOM     17  N   UNL     1      45.334   4.516  11.340  0.00  0.00    +0.000 NA
ENDBRANCH   9  10
ENDBRANCH   7   9
ENDBRANCH   1   3
BRANCH   1  19
ATOM     18  C   UNL     1      48.527   8.796  16.416  0.00  0.00    +0.000 C 
ATOM     19  C   UNL     1      49.466   7.640  16.754  0.00  0.00    +0.000 C 
BRANCH  19  20
ATOM     20  C   UNL     1      48.888   6.592  17.726  0.00  0.00    +0.000 C 
ATOM     21  O   UNL     1      48.409   6.973  18.806  0.00  0.00    +0.000 OA
BRANCH  20  22
ATOM     22  C   UNL     1      48.801   5.146  17.420  0.00  0.00    +0.000 A 
ATOM     23  C   UNL     1      47.689   4.688  16.721  0.00  0.00    +0.000 A 
ATOM     24  S   UNL     1      47.792   3.056  16.253  0.00  0.00    +0.000 S 
ATOM     25  C   UNL     1      49.337   2.905  16.943  0.00  0.00    +0.000 A 
ATOM     26  N   UNL     1      50.047   1.754  16.791  0.00  0.00    +0.000 NA
ATOM     27  C   UNL     1      51.225   1.779  17.316  0.00  0.00    +0.000 A 
ATOM     28  N   UNL     1      51.738   2.836  18.017  0.00  0.00    +0.000 N 
ATOM     29  C   UNL     1      51.023   3.984  18.273  0.00  0.00    +0.000 A 
ATOM     30  O   UNL     1      51.462   4.833  19.038  0.00  0.00    +0.000 OA
ATOM     31  C   UNL     1      49.734   4.056  17.609  0.00  0.00    +0.000 A 
ATOM     32  H   UNL     1      52.641   2.767  18.463  0.00  0.00    +0.000 HD
ENDBRANCH  20  22
ENDBRANCH  19  20
ENDBRANCH   1  19
TORSDOF 6
ENDMDL
MODEL 8
REMARK VINA RESULT:    -7.025      2.377      3.493
REMARK INTER + INTRA:         -10.317
REMARK INTER:                  -9.297
REMARK INTRA:                  -1.020
REMARK UNBOUND:                -0.828
REMARK  Name = 
REMARK  8 active torsions:
REMARK  status: ('A' for Active; 'I' for Inactive)
REMARK    1  A    between atoms: C_1  and  C_2
REMARK    2  A    between atoms: C_2  and  N_3
REMARK    3  A    between atoms: C_2  and  C_19
REMARK    4  A    between atoms: N_3  and  C_4
REMARK    5  A    between atoms: C_8  and  C_9
REMARK    6  A    between atoms: C_9  and  N_10
REMARK    7  A    between atoms: N_10  and  C_11
REMARK    8  A    between atoms: C_19  and  C_21
REMARK                            x       y       z     vdW  Elec       q    Type
REMARK                         _______ _______ _______ _____ _____    ______ ____
ROOT
ATOM      1  N   UNL     1      46.985   8.768  14.412  0.00  0.00    +0.000 N 
ATOM      2  H   UNL     1      46.613   9.596  14.886  0.00  0.00    +0.000 HD
ENDROOT
BRANCH   1   3
ATOM      3  C   UNL     1      46.178   8.539  13.288  0.00  0.00    +0.000 A 
ATOM      4  C   UNL     1      45.320   9.576  12.903  0.00  0.00    +0.000 A 
ATOM      5  C   UNL     1      44.467   9.439  11.812  0.00  0.00    +0.000 A 
ATOM      6  C   UNL     1      44.525   8.285  11.036  0.00  0.00    +0.000 A 
ATOM      7  C   UNL     1      45.474   7.289  11.308  0.00  0.00    +0.000 A 
ATOM      8  C   UNL     1      46.285   7.420  12.448  0.00  0.00    +0.000 A 
BRANCH   7   9
ATOM      9  C   UNL     1      45.687   6.175  10.296  0.00  0.00    +0.000 C 
BRANCH   9  10
ATOM     10  N   UNL     1      44.931   4.934  10.514  0.00  0.00    +0.000 N 
ATOM     11  C   UNL     1      43.477   5.023  10.668  0.00  0.00    +0.000 C 
ATOM     12  C   UNL     1      45.266   3.965   9.529  0.00  0.00    +0.000 A 
ATOM     13  C   UNL     1      45.012   2.614   9.780  0.00  0.00    +0.000 A 
ATOM     14  C   UNL     1      45.289   1.658   8.801  0.00  0.00    +0.000 A 
ATOM     15  C   UNL     1      45.808   2.064   7.581  0.00  0.00    +0.000 A 
ATOM     16  C   UNL     1      46.040   3.413   7.403  0.00  0.00    +0.000 A 
ATOM     17  N   UNL     1      45.791   4.351   8.344  0.00  0.00    +0.000 NA
ENDBRANCH   9  10
ENDBRANCH   7   9
ENDBRANCH   1   3
BRANCH   1  19
ATOM     18  C   UNL     1      48.991  10.116  15.077  0.00  0.00    +0.000 C 
ATOM     19  C   UNL     1      48.467   8.932  14.267  0.00  0.00    +0.000 C 
BRANCH  19  20
ATOM     20  C   UNL     1      49.216   7.603  14.496  0.00  0.00    +0.000 C 
ATOM     21  O   UNL     1      49.967   7.175  13.606  0.00  0.00    +0.000 OA
BRANCH  20  22
ATOM     22  C   UNL     1      49.150   6.829  15.756  0.00  0.00    +0.000 A 
ATOM     23  C   UNL     1      49.781   7.350  16.881  0.00  0.00    +0.000 A 
ATOM     24  S   UNL     1      49.473   6.481  18.310  0.00  0.00    +0.000 S 
ATOM     25  C   UNL     1      48.463   5.391  17.487  0.00  0.00    +0.000 A 
ATOM     26  N   UNL     1      47.776   4.439  18.175  0.00  0.00    +0.000 NA
ATOM     27  C   UNL     1      47.005   3.704  17.446  0.00  0.00    +0.000 A 
ATOM     28  N   UNL     1      46.893   3.809  16.087  0.00  0.00    +0.000 N 
ATOM     29  C   UNL     1      47.636   4.696  15.340  0.00  0.00    +0.000 A 
ATOM     30  O   UNL     1      47.622   4.644  14.117  0.00  0.00    +0.000 OA
ATOM     31  C   UNL     1      48.435   5.624  16.119  0.00  0.00    +0.000 A 
ATOM     32  H   UNL     1      46.324   3.159  15.566  0.00  0.00    +0.000 HD
ENDBRANCH  20  22
ENDBRANCH  19  20
ENDBRANCH   1  19
TORSDOF 6
ENDMDL
MODEL 9
REMARK VINA RESULT:    -6.902      2.420      3.270
REMARK INTER + INTRA:         -10.151
REMARK INTER:                  -8.839
REMARK INTRA:                  -1.312
REMARK UNBOUND:                -0.828
REMARK  Name = 
REMARK  8 active torsions:
REMARK  status: ('A' for Active; 'I' for Inactive)
REMARK    1  A    between atoms: C_1  and  C_2
REMARK    2  A    between atoms: C_2  and  N_3
REMARK    3  A    between atoms: C_2  and  C_19
REMARK    4  A    between atoms: N_3  and  C_4
REMARK    5  A    between atoms: C_8  and  C_9
REMARK    6  A    between atoms: C_9  and  N_10
REMARK    7  A    between atoms: N_10  and  C_11
REMARK    8  A    between atoms: C_19  and  C_21
REMARK                            x       y       z     vdW  Elec       q    Type
REMARK                         _______ _______ _______ _____ _____    ______ ____
ROOT
ATOM      1  N   UNL     1      48.721   7.947  14.453  0.00  0.00    +0.000 N 
ATOM      2  H   UNL     1      48.667   8.685  13.746  0.00  0.00    +0.000 HD
ENDROOT
BRANCH   1   3
ATOM      3  C   UNL     1      47.899   6.897  14.017  0.00  0.00    +0.000 A 
ATOM      4  C   UNL     1      47.813   5.775  14.850  0.00  0.00    +0.000 A 
ATOM      5  C   UNL     1      47.037   4.673  14.496  0.00  0.00    +0.000 A 
ATOM      6  C   UNL     1      46.267   4.719  13.339  0.00  0.00    +0.000 A 
ATOM      7  C   UNL     1      46.219   5.883  12.558  0.00  0.00    +0.000 A 
ATOM      8  C   UNL     1      47.053   6.962  12.899  0.00  0.00    +0.000 A 
BRANCH   7   9
ATOM      9  C   UNL     1      45.177   5.993  11.457  0.00  0.00    +0.000 C 
BRANCH   9  10
ATOM     10  N   UNL     1      44.363   4.797  11.200  0.00  0.00    +0.000 N 
ATOM     11  C   UNL     1      42.909   4.950  11.117  0.00  0.00    +0.000 C 
ATOM     12  C   UNL     1      44.852   4.093  10.065  0.00  0.00    +0.000 A 
ATOM     13  C   UNL     1      44.522   2.746   9.896  0.00  0.00    +0.000 A 
ATOM     14  C   UNL     1      44.954   2.058   8.761  0.00  0.00    +0.000 A 
ATOM     15  C   UNL     1      45.703   2.727   7.804  0.00  0.00    +0.000 A 
ATOM     16  C   UNL     1      45.997   4.055   8.037  0.00  0.00    +0.000 A 
ATOM     17  N   UNL     1      45.600   4.734   9.137  0.00  0.00    +0.000 NA
ENDBRANCH   9  10
ENDBRANCH   7   9
ENDBRANCH   1   3
BRANCH   1  19
ATOM     18  C   UNL     1      51.091   8.323  13.730  0.00  0.00    +0.000 C 
ATOM     19  C   UNL     1      50.164   7.703  14.774  0.00  0.00    +0.000 C 
BRANCH  19  20
ATOM     20  C   UNL     1      50.496   8.064  16.236  0.00  0.00    +0.000 C 
ATOM     21  O   UNL     1      51.415   8.865  16.464  0.00  0.00    +0.000 OA
BRANCH  20  22
ATOM     22  C   UNL     1      49.731   7.562  17.400  0.00  0.00    +0.000 A 
ATOM     23  C   UNL     1      48.914   8.456  18.084  0.00  0.00    +0.000 A 
ATOM     24  S   UNL     1      47.937   7.728  19.271  0.00  0.00    +0.000 S 
ATOM     25  C   UNL     1      48.548   6.187  18.900  0.00  0.00    +0.000 A 
ATOM     26  N   UNL     1      48.030   5.081  19.500  0.00  0.00    +0.000 NA
ATOM     27  C   UNL     1      48.542   3.967  19.098  0.00  0.00    +0.000 A 
ATOM     28  N   UNL     1      49.554   3.864  18.183  0.00  0.00    +0.000 N 
ATOM     29  C   UNL     1      50.169   4.958  17.619  0.00  0.00    +0.000 A 
ATOM     30  O   UNL     1      51.172   4.823  16.932  0.00  0.00    +0.000 OA
ATOM     31  C   UNL     1      49.557   6.234  17.948  0.00  0.00    +0.000 A 
ATOM     32  H   UNL     1      49.958   2.965  17.962  0.00  0.00    +0.000 HD
ENDBRANCH  20  22
ENDBRANCH  19  20
ENDBRANCH   1  19
TORSDOF 6
ENDMDL
