MODEL 1
REMARK VINA RESULT:    -8.138      0.000      0.000
REMARK INTER + INTRA:         -13.468
REMARK INTER:                 -11.944
REMARK INTRA:                  -1.524
REMARK UNBOUND:                -1.524
REMARK  Name = 
REMARK  8 active torsions:
REMARK  status: ('A' for Active; 'I' for Inactive)
REMARK    1  A    between atoms: C_2  and  C_3
REMARK    2  A    between atoms: C_10  and  C_11
REMARK    3  A    between atoms: N_13  and  C_14
REMARK    4  A    between atoms: C_14  and  C_15
REMARK    5  A    between atoms: C_18  and  N_19
REMARK    6  A    between atoms: N_19  and  C_20
REMARK    7  A    between atoms: C_20  and  C_21
REMARK    8  A    between atoms: C_21  and  C_22
REMARK                            x       y       z     vdW  Elec       q    Type
REMARK                         _______ _______ _______ _____ _____    ______ ____
ROOT
ATOM      1  C   UNL     1      47.006   8.248  13.095  0.00  0.00    +0.000 C 
ENDROOT
BRANCH   1   2
ATOM      2  C   UNL     1      46.176   7.208  12.394  0.00  0.00    +0.000 A 
ATOM      3  C   UNL     1      46.636   6.614  11.215  0.00  0.00    +0.000 A 
ATOM      4  C   UNL     1      45.898   5.598  10.594  0.00  0.00    +0.000 A 
ATOM      5  C   UNL     1      44.681   5.154  11.125  0.00  0.00    +0.000 A 
ATOM      6  C   UNL     1      44.198   5.803  12.269  0.00  0.00    +0.000 A 
ATOM      7  C   UNL     1      44.943   6.805  12.904  0.00  0.00    +0.000 A 
BRANCH   5   8
ATOM      8  N   UNL     1      43.951   4.086  10.615  0.00  0.00    +0.000 N 
ATOM      9  H   UNL     1      43.295   4.346   9.882  0.00  0.00    +0.000 HD
BRANCH   8  10
ATOM     10  C   UNL     1      44.552   2.758  10.541  0.00  0.00    +0.000 C 
BRANCH  10  11
ATOM     11  C   UNL     1      44.303   2.113   9.180  0.00  0.00    +0.000 C 
BRANCH  11  12
ATOM     12  C   UNL     1      45.531   2.199   8.310  0.00  0.00    +0.000 A 
ATOM     13  C   UNL     1      45.888   3.395   7.687  0.00  0.00    +0.000 A 
ATOM     14  C   UNL     1      47.032   3.422   6.892  0.00  0.00    +0.000 A 
ATOM     15  C   UNL     1      47.783   2.264   6.734  0.00  0.00    +0.000 A 
ATOM     16  C   UNL     1      47.352   1.118   7.376  0.00  0.00    +0.000 A 
ATOM     17  N   UNL     1      46.245   1.059   8.151  0.00  0.00    +0.000 NA
ENDBRANCH  11  12
ENDBRANCH  10  11
ENDBRANCH   8  10
ENDBRANCH   5   8
ENDBRANCH   1   2
BRANCH   1  20
ATOM     18  C   UNL     1      48.502   6.979  14.565  0.00  0.00    +0.000 C 
ATOM     19  O   UNL     1      49.186   6.585  13.634  0.00  0.00    +0.000 OA
ATOM     20  N   UNL     1      47.423   7.815  14.412  0.00  0.00    +0.000 N 
ATOM     21  H   UNL     1      46.803   7.996  15.183  0.00  0.00    +0.000 HD
BRANCH  18  29
ATOM     22  C   UNL     1      47.769   4.171  16.244  0.00  0.00    +0.000 A 
ATOM     23  N   UNL     1      47.630   3.147  17.124  0.00  0.00    +0.000 NA
ATOM     24  C   UNL     1      48.187   3.267  18.329  0.00  0.00    +0.000 A 
ATOM     25  N   UNL     1      48.883   4.306  18.781  0.00  0.00    +0.000 NA
ATOM     26  C   UNL     1      48.997   5.300  17.887  0.00  0.00    +0.000 A 
ATOM     27  S   UNL     1      49.854   6.705  18.311  0.00  0.00    +0.000 S 
ATOM     28  C   UNL     1      49.567   7.406  16.788  0.00  0.00    +0.000 A 
ATOM     29  C   UNL     1      48.817   6.598  15.947  0.00  0.00    +0.000 A 
ATOM     30  C   UNL     1      48.479   5.334  16.596  0.00  0.00    +0.000 A 
BRANCH  22  32
ATOM     31  N   UNL     1      46.620   3.761  13.955  0.00  0.00    +0.000 NA
ATOM     32  C   UNL     1      47.104   3.980  14.987  0.00  0.00    +0.000 C 
ENDBRANCH  22  32
ENDBRANCH  18  29
ENDBRANCH   1  20
TORSDOF 8
ENDMDL
MODEL 2
REMARK VINA RESULT:    -7.746      1.481      1.943
REMARK INTER + INTRA:         -12.893
REMARK INTER:                 -11.813
REMARK INTRA:                  -1.080
REMARK UNBOUND:                -1.524
REMARK  Name = 
REMARK  8 active torsions:
REMARK  status: ('A' for Active; 'I' for Inactive)
REMARK    1  A    between atoms: C_2  and  C_3
REMARK    2  A    between atoms: C_10  and  C_11
REMARK    3  A    between atoms: N_13  and  C_14
REMARK    4  A    between atoms: C_14  and  C_15
REMARK    5  A    between atoms: C_18  and  N_19
REMARK    6  A    between atoms: N_19  and  C_20
REMARK    7  A    between atoms: C_20  and  C_21
REMARK    8  A    between atoms: C_21  and  C_22
REMARK                            x       y       z     vdW  Elec       q    Type
REMARK                         _______ _______ _______ _____ _____    ______ ____
ROOT
ATOM      1  C   UNL     1      48.359   6.543  13.639  0.00  0.00    +0.000 C 
ENDROOT
BRANCH   1   2
ATOM      2  C   UNL     1      47.119   6.060  12.940  0.00  0.00    +0.000 A 
ATOM      3  C   UNL     1      46.726   6.631  11.725  0.00  0.00    +0.000 A 
ATOM      4  C   UNL     1      45.607   6.141  11.038  0.00  0.00    +0.000 A 
ATOM      5  C   UNL     1      44.848   5.080  11.545  0.00  0.00    +0.000 A 
ATOM      6  C   UNL     1      45.212   4.563  12.795  0.00  0.00    +0.000 A 
ATOM      7  C   UNL     1      46.341   5.035  13.476  0.00  0.00    +0.000 A 
BRANCH   5   8
ATOM      8  N   UNL     1      43.790   4.484  10.866  0.00  0.00    +0.000 N 
ATOM      9  H   UNL     1      42.884   4.901  11.067  0.00  0.00    +0.000 HD
BRANCH   8  10
ATOM     10  C   UNL     1      43.997   3.929   9.533  0.00  0.00    +0.000 C 
BRANCH  10  11
ATOM     11  C   UNL     1      44.711   2.580   9.601  0.00  0.00    +0.000 C 
BRANCH  11  12
ATOM     12  C   UNL     1      45.647   2.406   8.431  0.00  0.00    +0.000 A 
ATOM     13  C   UNL     1      45.878   3.449   7.535  0.00  0.00    +0.000 A 
ATOM     14  C   UNL     1      46.751   3.237   6.470  0.00  0.00    +0.000 A 
ATOM     15  C   UNL     1      47.362   1.998   6.323  0.00  0.00    +0.000 A 
ATOM     16  C   UNL     1      47.068   1.014   7.249  0.00  0.00    +0.000 A 
ATOM     17  N   UNL     1      46.223   1.188   8.290  0.00  0.00    +0.000 NA
ENDBRANCH  11  12
ENDBRANCH  10  11
ENDBRANCH   8  10
ENDBRANCH   5   8
ENDBRANCH   1   2
BRANCH   1  20
ATOM     18  C   UNL     1      49.143   6.777  15.951  0.00  0.00    +0.000 C 
ATOM     19  O   UNL     1      50.298   6.523  15.652  0.00  0.00    +0.000 OA
ATOM     20  N   UNL     1      48.118   6.834  15.038  0.00  0.00    +0.000 N 
ATOM     21  H   UNL     1      47.162   6.901  15.344  0.00  0.00    +0.000 HD
BRANCH  18  29
ATOM     22  C   UNL     1      48.896   4.739  18.601  0.00  0.00    +0.000 A 
ATOM     23  N   UNL     1      48.750   4.150  19.815  0.00  0.00    +0.000 NA
ATOM     24  C   UNL     1      48.435   4.918  20.859  0.00  0.00    +0.000 A 
ATOM     25  N   UNL     1      48.240   6.233  20.845  0.00  0.00    +0.000 NA
ATOM     26  C   UNL     1      48.388   6.781  19.629  0.00  0.00    +0.000 A 
ATOM     27  S   UNL     1      48.167   8.455  19.439  0.00  0.00    +0.000 S 
ATOM     28  C   UNL     1      48.500   8.366  17.774  0.00  0.00    +0.000 A 
ATOM     29  C   UNL     1      48.771   7.077  17.339  0.00  0.00    +0.000 A 
ATOM     30  C   UNL     1      48.713   6.126  18.445  0.00  0.00    +0.000 A 
BRANCH  22  32
ATOM     31  N   UNL     1      49.352   3.082  16.659  0.00  0.00    +0.000 NA
ATOM     32  C   UNL     1      49.193   3.838  17.526  0.00  0.00    +0.000 C 
ENDBRANCH  22  32
ENDBRANCH  18  29
ENDBRANCH   1  20
TORSDOF 8
ENDMDL
MODEL 3
REMARK VINA RESULT:    -7.314      2.056      2.973
REMARK INTER + INTRA:         -12.259
REMARK INTER:                 -11.259
REMARK INTRA:                  -1.000
REMARK UNBOUND:                -1.524
REMARK  Name = 
REMARK  8 active torsions:
REMARK  status: ('A' for Active; 'I' for Inactive)
REMARK    1  A    between atoms: C_2  and  C_3
REMARK    2  A    between atoms: C_10  and  C_11
REMARK    3  A    between atoms: N_13  and  C_14
REMARK    4  A    between atoms: C_14  and  C_15
REMARK    5  A    between atoms: C_18  and  N_19
REMARK    6  A    between atoms: N_19  and  C_20
REMARK    7  A    between atoms: C_20  and  C_21
REMARK    8  A    between atoms: C_21  and  C_22
REMARK                            x       y       z     vdW  Elec       q    Type
REMARK                         _______ _______ _______ _____ _____    ______ ____
ROOT
ATOM      1  C   UNL     1      48.332   6.724  14.277  0.00  0.00    +0.000 C 
ENDROOT
BRANCH   1   2
ATOM      2  C   UNL     1      47.192   6.139  13.491  0.00  0.00    +0.000 A 
ATOM      3  C   UNL     1      46.785   6.730  12.290  0.00  0.00    +0.000 A 
ATOM      4  C   UNL     1      45.767   6.153  11.521  0.00  0.00    +0.000 A 
ATOM      5  C   UNL     1      45.123   4.979  11.931  0.00  0.00    +0.000 A 
ATOM      6  C   UNL     1      45.492   4.435  13.167  0.00  0.00    +0.000 A 
ATOM      7  C   UNL     1      46.524   4.997  13.929  0.00  0.00    +0.000 A 
BRANCH   5   8
ATOM      8  N   UNL     1      44.177   4.303  11.167  0.00  0.00    +0.000 N 
ATOM      9  H   UNL     1      43.221   4.418  11.496  0.00  0.00    +0.000 HD
BRANCH   8  10
ATOM     10  C   UNL     1      44.381   4.133   9.733  0.00  0.00    +0.000 C 
BRANCH  10  11
ATOM     11  C   UNL     1      44.479   2.655   9.359  0.00  0.00    +0.000 C 
BRANCH  11  12
ATOM     12  C   UNL     1      45.526   2.437   8.295  0.00  0.00    +0.000 A 
ATOM     13  C   UNL     1      45.802   3.421   7.347  0.00  0.00    +0.000 A 
ATOM     14  C   UNL     1      46.778   3.170   6.384  0.00  0.00    +0.000 A 
ATOM     15  C   UNL     1      47.444   1.951   6.388  0.00  0.00    +0.000 A 
ATOM     16  C   UNL     1      47.100   1.026   7.356  0.00  0.00    +0.000 A 
ATOM     17  N   UNL     1      46.156   1.238   8.300  0.00  0.00    +0.000 NA
ENDBRANCH  11  12
ENDBRANCH  10  11
ENDBRANCH   8  10
ENDBRANCH   5   8
ENDBRANCH   1   2
BRANCH   1  20
ATOM     18  C   UNL     1      49.326   6.202  16.458  0.00  0.00    +0.000 C 
ATOM     19  O   UNL     1      50.463   6.227  16.015  0.00  0.00    +0.000 OA
ATOM     20  N   UNL     1      48.211   6.454  15.695  0.00  0.00    +0.000 N 
ATOM     21  H   UNL     1      47.291   6.280  16.062  0.00  0.00    +0.000 HD
BRANCH  18  29
ATOM     22  C   UNL     1      48.020   8.174  18.834  0.00  0.00    +0.000 A 
ATOM     23  N   UNL     1      47.505   8.742  19.954  0.00  0.00    +0.000 NA
ATOM     24  C   UNL     1      47.433   8.006  21.063  0.00  0.00    +0.000 A 
ATOM     25  N   UNL     1      47.820   6.741  21.201  0.00  0.00    +0.000 NA
ATOM     26  C   UNL     1      48.328   6.213  20.077  0.00  0.00    +0.000 A 
ATOM     27  S   UNL     1      48.875   4.604  20.087  0.00  0.00    +0.000 S 
ATOM     28  C   UNL     1      49.321   4.687  18.448  0.00  0.00    +0.000 A 
ATOM     29  C   UNL     1      49.074   5.926  17.877  0.00  0.00    +0.000 A 
ATOM     30  C   UNL     1      48.472   6.841  18.843  0.00  0.00    +0.000 A 
BRANCH  22  32
ATOM     31  N   UNL     1      48.137   9.688  16.731  0.00  0.00    +0.000 NA
ATOM     32  C   UNL     1      48.101   9.046  17.698  0.00  0.00    +0.000 C 
ENDBRANCH  22  32
ENDBRANCH  18  29
ENDBRANCH   1  20
TORSDOF 8
ENDMDL
MODEL 4
REMARK VINA RESULT:    -6.786      3.065      5.430
REMARK INTER + INTRA:         -11.484
REMARK INTER:                 -10.287
REMARK INTRA:                  -1.197
REMARK UNBOUND:                -1.524
REMARK  Name = 
REMARK  8 active torsions:
REMARK  status: ('A' for Active; 'I' for Inactive)
REMARK    1  A    between atoms: C_2  and  C_3
REMARK    2  A    between atoms: C_10  and  C_11
REMARK    3  A    between atoms: N_13  and  C_14
REMARK    4  A    between atoms: C_14  and  C_15
REMARK    5  A    between atoms: C_18  and  N_19
REMARK    6  A    between atoms: N_19  and  C_20
REMARK    7  A    between atoms: C_20  and  C_21
REMARK    8  A    between atoms: C_21  and  C_22
REMARK                            x       y       z     vdW  Elec       q    Type
REMARK                         _______ _______ _______ _____ _____    ______ ____
ROOT
ATOM      1  C   UNL     1      47.723   6.244  14.057  0.00  0.00    +0.000 C 
ENDROOT
BRANCH   1   2
ATOM      2  C   UNL     1      46.613   5.471  13.399  0.00  0.00    +0.000 A 
ATOM      3  C   UNL     1      45.522   6.141  12.837  0.00  0.00    +0.000 A 
ATOM      4  C   UNL     1      44.519   5.430  12.166  0.00  0.00    +0.000 A 
ATOM      5  C   UNL     1      44.571   4.036  12.045  0.00  0.00    +0.000 A 
ATOM      6  C   UNL     1      45.633   3.372  12.671  0.00  0.00    +0.000 A 
ATOM      7  C   UNL     1      46.649   4.079  13.325  0.00  0.00    +0.000 A 
BRANCH   5   8
ATOM      8  N   UNL     1      43.662   3.283  11.309  0.00  0.00    +0.000 N 
ATOM      9  H   UNL     1      42.716   3.658  11.314  0.00  0.00    +0.000 HD
BRANCH   8  10
ATOM     10  C   UNL     1      44.101   2.573  10.113  0.00  0.00    +0.000 C 
BRANCH  10  11
ATOM     11  C   UNL     1      44.676   3.537   9.077  0.00  0.00    +0.000 C 
BRANCH  11  12
ATOM     12  C   UNL     1      45.668   2.838   8.182  0.00  0.00    +0.000 A 
ATOM     13  C   UNL     1      46.211   3.481   7.071  0.00  0.00    +0.000 A 
ATOM     14  C   UNL     1      47.123   2.790   6.275  0.00  0.00    +0.000 A 
ATOM     15  C   UNL     1      47.463   1.483   6.601  0.00  0.00    +0.000 A 
ATOM     16  C   UNL     1      46.868   0.915   7.713  0.00  0.00    +0.000 A 
ATOM     17  N   UNL     1      45.978   1.558   8.502  0.00  0.00    +0.000 NA
ENDBRANCH  11  12
ENDBRANCH  10  11
ENDBRANCH   8  10
ENDBRANCH   5   8
ENDBRANCH   1   2
BRANCH   1  20
ATOM     18  C   UNL     1      48.245   8.553  13.418  0.00  0.00    +0.000 C 
ATOM     19  O   UNL     1      47.713   9.016  14.415  0.00  0.00    +0.000 OA
ATOM     20  N   UNL     1      48.324   7.207  13.158  0.00  0.00    +0.000 N 
ATOM     21  H   UNL     1      48.638   6.877  12.260  0.00  0.00    +0.000 HD
BRANCH  18  29
ATOM     22  C   UNL     1      46.868  10.783  11.327  0.00  0.00    +0.000 A 
ATOM     23  N   UNL     1      46.576  11.747  10.417  0.00  0.00    +0.000 NA
ATOM     24  C   UNL     1      47.582  12.324   9.760  0.00  0.00    +0.000 A 
ATOM     25  N   UNL     1      48.877  12.055   9.897  0.00  0.00    +0.000 NA
ATOM     26  C   UNL     1      49.129  11.095  10.800  0.00  0.00    +0.000 A 
ATOM     27  S   UNL     1      50.737  10.627  11.090  0.00  0.00    +0.000 S 
ATOM     28  C   UNL     1      50.253   9.481  12.249  0.00  0.00    +0.000 A 
ATOM     29  C   UNL     1      48.878   9.429  12.425  0.00  0.00    +0.000 A 
ATOM     30  C   UNL     1      48.201  10.396  11.567  0.00  0.00    +0.000 A 
BRANCH  22  32
ATOM     31  N   UNL     1      44.819   9.750  12.535  0.00  0.00    +0.000 NA
ATOM     32  C   UNL     1      45.729  10.183  11.958  0.00  0.00    +0.000 C 
ENDBRANCH  22  32
ENDBRANCH  18  29
ENDBRANCH   1  20
TORSDOF 8
ENDMDL
MODEL 5
REMARK VINA RESULT:    -6.503      2.247      3.666
REMARK INTER + INTRA:         -11.068
REMARK INTER:                  -9.953
REMARK INTRA:                  -1.115
REMARK UNBOUND:                -1.524
REMARK  Name = 
REMARK  8 active torsions:
REMARK  status: ('A' for Active; 'I' for Inactive)
REMARK    1  A    between atoms: C_2  and  C_3
REMARK    2  A    between atoms: C_10  and  C_11
REMARK    3  A    between atoms: N_13  and  C_14
REMARK    4  A    between atoms: C_14  and  C_15
REMARK    5  A    between atoms: C_18  and  N_19
REMARK    6  A    between atoms: N_19  and  C_20
REMARK    7  A    between atoms: C_20  and  C_21
REMARK    8  A    between atoms: C_21  and  C_22
REMARK                            x       y       z     vdW  Elec       q    Type
REMARK                         _______ _______ _______ _____ _____    ______ ____
ROOT
ATOM      1  C   UNL     1      47.646   4.238  15.649  0.00  0.00    +0.000 C 
ENDROOT
BRANCH   1   2
ATOM      2  C   UNL     1      46.903   4.482  14.365  0.00  0.00    +0.000 A 
ATOM      3  C   UNL     1      46.694   5.787  13.907  0.00  0.00    +0.000 A 
ATOM      4  C   UNL     1      46.060   6.018  12.680  0.00  0.00    +0.000 A 
ATOM      5  C   UNL     1      45.611   4.959  11.882  0.00  0.00    +0.000 A 
ATOM      6  C   UNL     1      45.765   3.660  12.383  0.00  0.00    +0.000 A 
ATOM      7  C   UNL     1      46.417   3.423  13.600  0.00  0.00    +0.000 A 
BRANCH   5   8
ATOM      8  N   UNL     1      45.065   5.116  10.612  0.00  0.00    +0.000 N 
ATOM      9  H   UNL     1      45.567   5.780  10.027  0.00  0.00    +0.000 HD
BRANCH   8  10
ATOM     10  C   UNL     1      44.415   3.990   9.951  0.00  0.00    +0.000 C 
BRANCH  10  11
ATOM     11  C   UNL     1      44.546   4.090   8.432  0.00  0.00    +0.000 C 
BRANCH  11  12
ATOM     12  C   UNL     1      45.597   3.138   7.919  0.00  0.00    +0.000 A 
ATOM     13  C   UNL     1      46.506   3.533   6.939  0.00  0.00    +0.000 A 
ATOM     14  C   UNL     1      47.458   2.615   6.498  0.00  0.00    +0.000 A 
ATOM     15  C   UNL     1      47.475   1.335   7.037  0.00  0.00    +0.000 A 
ATOM     16  C   UNL     1      46.529   1.022   7.996  0.00  0.00    +0.000 A 
ATOM     17  N   UNL     1      45.592   1.888   8.442  0.00  0.00    +0.000 NA
ENDBRANCH  11  12
ENDBRANCH  10  11
ENDBRANCH   8  10
ENDBRANCH   5   8
ENDBRANCH   1   2
BRANCH   1  20
ATOM     18  C   UNL     1      48.565   5.767  17.332  0.00  0.00    +0.000 C 
ATOM     19  O   UNL     1      49.687   5.294  17.239  0.00  0.00    +0.000 OA
ATOM     20  N   UNL     1      47.498   5.336  16.582  0.00  0.00    +0.000 N 
ATOM     21  H   UNL     1      46.565   5.649  16.793  0.00  0.00    +0.000 HD
BRANCH  18  29
ATOM     22  C   UNL     1      48.545   9.072  16.775  0.00  0.00    +0.000 A 
ATOM     23  N   UNL     1      48.443  10.426  16.812  0.00  0.00    +0.000 NA
ATOM     24  C   UNL     1      48.075  11.002  17.956  0.00  0.00    +0.000 A 
ATOM     25  N   UNL     1      47.787  10.386  19.099  0.00  0.00    +0.000 NA
ATOM     26  C   UNL     1      47.903   9.051  19.027  0.00  0.00    +0.000 A 
ATOM     27  S   UNL     1      47.576   8.112  20.406  0.00  0.00    +0.000 S 
ATOM     28  C   UNL     1      47.914   6.669  19.572  0.00  0.00    +0.000 A 
ATOM     29  C   UNL     1      48.286   6.875  18.252  0.00  0.00    +0.000 A 
ATOM     30  C   UNL     1      48.274   8.296  17.918  0.00  0.00    +0.000 A 
BRANCH  22  32
ATOM     31  N   UNL     1      49.272   8.124  14.473  0.00  0.00    +0.000 NA
ATOM     32  C   UNL     1      48.988   8.535  15.521  0.00  0.00    +0.000 C 
ENDBRANCH  22  32
ENDBRANCH  18  29
ENDBRANCH   1  20
TORSDOF 8
ENDMDL
MODEL 6
REMARK VINA RESULT:    -6.453      3.817      6.212
REMARK INTER + INTRA:         -10.995
REMARK INTER:                 -10.085
REMARK INTRA:                  -0.910
REMARK UNBOUND:                -1.524
REMARK  Name = 
REMARK  8 active torsions:
REMARK  status: ('A' for Active; 'I' for Inactive)
REMARK    1  A    between atoms: C_2  and  C_3
REMARK    2  A    between atoms: C_10  and  C_11
REMARK    3  A    between atoms: N_13  and  C_14
REMARK    4  A    between atoms: C_14  and  C_15
REMARK    5  A    between atoms: C_18  and  N_19
REMARK    6  A    between atoms: N_19  and  C_20
REMARK    7  A    between atoms: C_20  and  C_21
REMARK    8  A    between atoms: C_21  and  C_22
REMARK                            x       y       z     vdW  Elec       q    Type
REMARK                         _______ _______ _______ _____ _____    ______ ____
ROOT
ATOM      1  C   UNL     1      46.667   4.160  14.469  0.00  0.00    +0.000 C 
ENDROOT
BRANCH   1   2
ATOM      2  C   UNL     1      46.028   5.221  13.615  0.00  0.00    +0.000 A 
ATOM      3  C   UNL     1      46.734   6.382  13.285  0.00  0.00    +0.000 A 
ATOM      4  C   UNL     1      46.168   7.343  12.437  0.00  0.00    +0.000 A 
ATOM      5  C   UNL     1      44.884   7.176  11.904  0.00  0.00    +0.000 A 
ATOM      6  C   UNL     1      44.161   6.043  12.296  0.00  0.00    +0.000 A 
ATOM      7  C   UNL     1      44.731   5.070  13.127  0.00  0.00    +0.000 A 
BRANCH   5   8
ATOM      8  N   UNL     1      44.306   8.042  10.980  0.00  0.00    +0.000 N 
ATOM      9  H   UNL     1      43.582   7.612  10.408  0.00  0.00    +0.000 HD
BRANCH   8  10
ATOM     10  C   UNL     1      44.164   9.459  11.295  0.00  0.00    +0.000 C 
BRANCH  10  11
ATOM     11  C   UNL     1      43.181  10.141  10.346  0.00  0.00    +0.000 C 
BRANCH  11  12
ATOM     12  C   UNL     1      41.970  10.640  11.093  0.00  0.00    +0.000 A 
ATOM     13  C   UNL     1      40.717  10.062  10.898  0.00  0.00    +0.000 A 
ATOM     14  C   UNL     1      39.629  10.561  11.612  0.00  0.00    +0.000 A 
ATOM     15  C   UNL     1      39.816  11.621  12.491  0.00  0.00    +0.000 A 
ATOM     16  C   UNL     1      41.089  12.145  12.615  0.00  0.00    +0.000 A 
ATOM     17  N   UNL     1      42.163  11.685  11.934  0.00  0.00    +0.000 NA
ENDBRANCH  11  12
ENDBRANCH  10  11
ENDBRANCH   8  10
ENDBRANCH   5   8
ENDBRANCH   1   2
BRANCH   1  20
ATOM     18  C   UNL     1      47.225   4.219  16.856  0.00  0.00    +0.000 C 
ATOM     19  O   UNL     1      46.510   3.263  17.111  0.00  0.00    +0.000 OA
ATOM     20  N   UNL     1      47.389   4.726  15.589  0.00  0.00    +0.000 N 
ATOM     21  H   UNL     1      47.868   5.599  15.446  0.00  0.00    +0.000 HD
BRANCH  18  29
ATOM     22  C   UNL     1      50.351   3.643  17.923  0.00  0.00    +0.000 A 
ATOM     23  N   UNL     1      51.573   3.637  18.512  0.00  0.00    +0.000 NA
ATOM     24  C   UNL     1      51.830   4.549  19.450  0.00  0.00    +0.000 A 
ATOM     25  N   UNL     1      51.001   5.493  19.886  0.00  0.00    +0.000 NA
ATOM     26  C   UNL     1      49.801   5.467  19.286  0.00  0.00    +0.000 A 
ATOM     27  S   UNL     1      48.622   6.605  19.734  0.00  0.00    +0.000 S 
ATOM     28  C   UNL     1      47.503   5.967  18.624  0.00  0.00    +0.000 A 
ATOM     29  C   UNL     1      47.998   4.887  17.910  0.00  0.00    +0.000 A 
ATOM     30  C   UNL     1      49.374   4.587  18.295  0.00  0.00    +0.000 A 
BRANCH  22  32
ATOM     31  N   UNL     1      49.888   1.768  16.192  0.00  0.00    +0.000 NA
ATOM     32  C   UNL     1      50.141   2.604  16.957  0.00  0.00    +0.000 C 
ENDBRANCH  22  32
ENDBRANCH  18  29
ENDBRANCH   1  20
TORSDOF 8
ENDMDL
MODEL 7
REMARK VINA RESULT:    -5.910      3.983      9.740
REMARK INTER + INTRA:         -10.199
REMARK INTER:                  -8.343
REMARK INTRA:                  -1.856
REMARK UNBOUND:                -1.524
REMARK  Name = 
REMARK  8 active torsions:
REMARK  status: ('A' for Active; 'I' for Inactive)
REMARK    1  A    between atoms: C_2  and  C_3
REMARK    2  A    between atoms: C_10  and  C_11
REMARK    3  A    between atoms: N_13  and  C_14
REMARK    4  A    between atoms: C_14  and  C_15
REMARK    5  A    between atoms: C_18  and  N_19
REMARK    6  A    between atoms: N_19  and  C_20
REMARK    7  A    between atoms: C_20  and  C_21
REMARK    8  A    between atoms: C_21  and  C_22
REMARK                            x       y       z     vdW  Elec       q    Type
REMARK                         _______ _______ _______ _____ _____    ______ ____
ROOT
ATOM      1  C   UNL     1      47.715   3.284  16.500  0.00  0.00    +0.000 C 
ENDROOT
BRANCH   1   2
ATOM      2  C   UNL     1      48.770   4.080  17.216  0.00  0.00    +0.000 A 
ATOM      3  C   UNL     1      48.530   5.410  17.575  0.00  0.00    +0.000 A 
ATOM      4  C   UNL     1      49.485   6.136  18.299  0.00  0.00    +0.000 A 
ATOM      5  C   UNL     1      50.703   5.560  18.678  0.00  0.00    +0.000 A 
ATOM      6  C   UNL     1      50.959   4.249  18.255  0.00  0.00    +0.000 A 
ATOM      7  C   UNL     1      50.000   3.514  17.548  0.00  0.00    +0.000 A 
BRANCH   5   8
ATOM      8  N   UNL     1      51.647   6.191  19.481  0.00  0.00    +0.000 N 
ATOM      9  H   UNL     1      51.557   7.205  19.506  0.00  0.00    +0.000 HD
BRANCH   8  10
ATOM     10  C   UNL     1      52.148   5.529  20.681  0.00  0.00    +0.000 C 
BRANCH  10  11
ATOM     11  C   UNL     1      51.593   6.181  21.945  0.00  0.00    +0.000 C 
BRANCH  11  12
ATOM     12  C   UNL     1      50.095   6.328  21.862  0.00  0.00    +0.000 A 
ATOM     13  C   UNL     1      49.256   5.223  21.999  0.00  0.00    +0.000 A 
ATOM     14  C   UNL     1      47.877   5.412  21.913  0.00  0.00    +0.000 A 
ATOM     15  C   UNL     1      47.375   6.687  21.689  0.00  0.00    +0.000 A 
ATOM     16  C   UNL     1      48.277   7.726  21.551  0.00  0.00    +0.000 A 
ATOM     17  N   UNL     1      49.619   7.574  21.626  0.00  0.00    +0.000 NA
ENDBRANCH  11  12
ENDBRANCH  10  11
ENDBRANCH   8  10
ENDBRANCH   5   8
ENDBRANCH   1   2
BRANCH   1  20
ATOM     18  C   UNL     1      46.949   4.129  14.329  0.00  0.00    +0.000 C 
ATOM     19  O   UNL     1      47.724   3.419  13.708  0.00  0.00    +0.000 OA
ATOM     20  N   UNL     1      46.849   4.125  15.699  0.00  0.00    +0.000 N 
ATOM     21  H   UNL     1      46.306   4.826  16.174  0.00  0.00    +0.000 HD
BRANCH  18  29
ATOM     22  C   UNL     1      47.383   7.309  13.359  0.00  0.00    +0.000 A 
ATOM     23  N   UNL     1      47.309   8.564  12.846  0.00  0.00    +0.000 NA
ATOM     24  C   UNL     1      46.198   8.920  12.200  0.00  0.00    +0.000 A 
ATOM     25  N   UNL     1      45.122   8.165  11.996  0.00  0.00    +0.000 NA
ATOM     26  C   UNL     1      45.228   6.934  12.521  0.00  0.00    +0.000 A 
ATOM     27  S   UNL     1      43.935   5.844  12.353  0.00  0.00    +0.000 S 
ATOM     28  C   UNL     1      44.774   4.632  13.201  0.00  0.00    +0.000 A 
ATOM     29  C   UNL     1      46.030   5.034  13.629  0.00  0.00    +0.000 A 
ATOM     30  C   UNL     1      46.311   6.407  13.219  0.00  0.00    +0.000 A 
BRANCH  22  32
ATOM     31  N   UNL     1      49.606   6.855  14.615  0.00  0.00    +0.000 NA
ATOM     32  C   UNL     1      48.592   7.021  14.074  0.00  0.00    +0.000 C 
ENDBRANCH  22  32
ENDBRANCH  18  29
ENDBRANCH   1  20
TORSDOF 8
ENDMDL
MODEL 8
REMARK VINA RESULT:    -5.854      3.781      5.929
REMARK INTER + INTRA:         -10.116
REMARK INTER:                  -8.947
REMARK INTRA:                  -1.169
REMARK UNBOUND:                -1.524
REMARK  Name = 
REMARK  8 active torsions:
REMARK  status: ('A' for Active; 'I' for Inactive)
REMARK    1  A    between atoms: C_2  and  C_3
REMARK    2  A    between atoms: C_10  and  C_11
REMARK    3  A    between atoms: N_13  and  C_14
REMARK    4  A    between atoms: C_14  and  C_15
REMARK    5  A    between atoms: C_18  and  N_19
REMARK    6  A    between atoms: N_19  and  C_20
REMARK    7  A    between atoms: C_20  and  C_21
REMARK    8  A    between atoms: C_21  and  C_22
REMARK                            x       y       z     vdW  Elec       q    Type
REMARK                         _______ _______ _______ _____ _____    ______ ____
ROOT
ATOM      1  C   UNL     1      47.698   5.734  13.706  0.00  0.00    +0.000 C 
ENDROOT
BRANCH   1   2
ATOM      2  C   UNL     1      46.672   6.487  12.906  0.00  0.00    +0.000 A 
ATOM      3  C   UNL     1      45.876   5.819  11.970  0.00  0.00    +0.000 A 
ATOM      4  C   UNL     1      44.875   6.503  11.268  0.00  0.00    +0.000 A 
ATOM      5  C   UNL     1      44.645   7.868  11.474  0.00  0.00    +0.000 A 
ATOM      6  C   UNL     1      45.492   8.541  12.364  0.00  0.00    +0.000 A 
ATOM      7  C   UNL     1      46.481   7.857  13.082  0.00  0.00    +0.000 A 
BRANCH   5   8
ATOM      8  N   UNL     1      43.606   8.581  10.886  0.00  0.00    +0.000 N 
ATOM      9  H   UNL     1      42.724   8.074  10.854  0.00  0.00    +0.000 HD
BRANCH   8  10
ATOM     10  C   UNL     1      43.546  10.033  11.021  0.00  0.00    +0.000 C 
BRANCH  10  11
ATOM     11  C   UNL     1      42.813  10.668   9.841  0.00  0.00    +0.000 C 
BRANCH  11  12
ATOM     12  C   UNL     1      41.349  10.853  10.153  0.00  0.00    +0.000 A 
ATOM     13  C   UNL     1      40.586  11.805   9.480  0.00  0.00    +0.000 A 
ATOM     14  C   UNL     1      39.237  11.938   9.806  0.00  0.00    +0.000 A 
ATOM     15  C   UNL     1      38.690  11.127  10.792  0.00  0.00    +0.000 A 
ATOM     16  C   UNL     1      39.520  10.217  11.420  0.00  0.00    +0.000 A 
ATOM     17  N   UNL     1      40.832  10.068  11.129  0.00  0.00    +0.000 NA
ENDBRANCH  11  12
ENDBRANCH  10  11
ENDBRANCH   8  10
ENDBRANCH   5   8
ENDBRANCH   1   2
BRANCH   1  20
ATOM     18  C   UNL     1      48.835   6.512  15.735  0.00  0.00    +0.000 C 
ATOM     19  O   UNL     1      49.912   6.612  15.168  0.00  0.00    +0.000 OA
ATOM     20  N   UNL     1      47.682   6.112  15.104  0.00  0.00    +0.000 N 
ATOM     21  H   UNL     1      46.855   5.903  15.637  0.00  0.00    +0.000 HD
BRANCH  18  29
ATOM     22  C   UNL     1      48.790   4.520  18.430  0.00  0.00    +0.000 A 
ATOM     23  N   UNL     1      48.768   3.954  19.664  0.00  0.00    +0.000 NA
ATOM     24  C   UNL     1      48.676   4.754  20.727  0.00  0.00    +0.000 A 
ATOM     25  N   UNL     1      48.600   6.081  20.717  0.00  0.00    +0.000 NA
ATOM     26  C   UNL     1      48.620   6.606  19.482  0.00  0.00    +0.000 A 
ATOM     27  S   UNL     1      48.526   8.292  19.293  0.00  0.00    +0.000 S 
ATOM     28  C   UNL     1      48.606   8.163  17.600  0.00  0.00    +0.000 A 
ATOM     29  C   UNL     1      48.695   6.853  17.155  0.00  0.00    +0.000 A 
ATOM     30  C   UNL     1      48.712   5.917  18.276  0.00  0.00    +0.000 A 
BRANCH  22  32
ATOM     31  N   UNL     1      48.852   2.894  16.411  0.00  0.00    +0.000 NA
ATOM     32  C   UNL     1      48.847   3.590  17.341  0.00  0.00    +0.000 C 
ENDBRANCH  22  32
ENDBRANCH  18  29
ENDBRANCH   1  20
TORSDOF 8
ENDMDL
MODEL 9
REMARK VINA RESULT:    -5.836      3.949      9.284
REMARK INTER + INTRA:         -10.089
REMARK INTER:                  -8.018
REMARK INTRA:                  -2.071
REMARK UNBOUND:                -1.524
REMARK  Name = 
REMARK  8 active torsions:
REMARK  status: ('A' for Active; 'I' for Inactive)
REMARK    1  A    between atoms: C_2  and  C_3
REMARK    2  A    between atoms: C_10  and  C_11
REMARK    3  A    between atoms: N_13  and  C_14
REMARK    4  A    between atoms: C_14  and  C_15
REMARK    5  A    between atoms: C_18  and  N_19
REMARK    6  A    between atoms: N_19  and  C_20
REMARK    7  A    between atoms: C_20  and  C_21
REMARK    8  A    between atoms: C_21  and  C_22
REMARK                            x       y       z     vdW  Elec       q    Type
REMARK                         _______ _______ _______ _____ _____    ______ ____
ROOT
ATOM      1  C   UNL     1      47.376   3.444  16.826  0.00  0.00    +0.000 C 
ENDROOT
BRANCH   1   2
ATOM      2  C   UNL     1      48.301   4.232  17.712  0.00  0.00    +0.000 A 
ATOM      3  C   UNL     1      49.674   3.967  17.714  0.00  0.00    +0.000 A 
ATOM      4  C   UNL     1      50.547   4.741  18.488  0.00  0.00    +0.000 A 
ATOM      5  C   UNL     1      50.077   5.791  19.286  0.00  0.00    +0.000 A 
ATOM      6  C   UNL     1      48.693   6.003  19.328  0.00  0.00    +0.000 A 
ATOM      7  C   UNL     1      47.818   5.245  18.540  0.00  0.00    +0.000 A 
BRANCH   5   8
ATOM      8  N   UNL     1      50.899   6.658  19.999  0.00  0.00    +0.000 N 
ATOM      9  H   UNL     1      51.153   6.319  20.924  0.00  0.00    +0.000 HD
BRANCH   8  10
ATOM     10  C   UNL     1      51.870   7.489  19.295  0.00  0.00    +0.000 C 
BRANCH  10  11
ATOM     11  C   UNL     1      51.571   8.974  19.491  0.00  0.00    +0.000 C 
BRANCH  11  12
ATOM     12  C   UNL     1      50.103   9.259  19.297  0.00  0.00    +0.000 A 
ATOM     13  C   UNL     1      49.552   9.352  18.020  0.00  0.00    +0.000 A 
ATOM     14  C   UNL     1      48.190   9.618  17.894  0.00  0.00    +0.000 A 
ATOM     15  C   UNL     1      47.419   9.789  19.037  0.00  0.00    +0.000 A 
ATOM     16  C   UNL     1      48.047   9.693  20.265  0.00  0.00    +0.000 A 
ATOM     17  N   UNL     1      49.366   9.440  20.419  0.00  0.00    +0.000 NA
ENDBRANCH  11  12
ENDBRANCH  10  11
ENDBRANCH   8  10
ENDBRANCH   5   8
ENDBRANCH   1   2
BRANCH   1  20
ATOM     18  C   UNL     1      46.791   4.088  14.533  0.00  0.00    +0.000 C 
ATOM     19  O   UNL     1      47.452   3.185  14.044  0.00  0.00    +0.000 OA
ATOM     20  N   UNL     1      46.669   4.290  15.886  0.00  0.00    +0.000 N 
ATOM     21  H   UNL     1      46.239   5.127  16.242  0.00  0.00    +0.000 HD
BRANCH  18  29
ATOM     22  C   UNL     1      47.548   7.208  13.569  0.00  0.00    +0.000 A 
ATOM     23  N   UNL     1      47.624   8.448  13.022  0.00  0.00    +0.000 NA
ATOM     24  C   UNL     1      46.644   8.844  12.209  0.00  0.00    +0.000 A 
ATOM     25  N   UNL     1      45.569   8.142  11.863  0.00  0.00    +0.000 NA
ATOM     26  C   UNL     1      45.524   6.924  12.425  0.00  0.00    +0.000 A 
ATOM     27  S   UNL     1      44.209   5.901  12.089  0.00  0.00    +0.000 S 
ATOM     28  C   UNL     1      44.840   4.673  13.081  0.00  0.00    +0.000 A 
ATOM     29  C   UNL     1      46.040   5.019  13.684  0.00  0.00    +0.000 A 
ATOM     30  C   UNL     1      46.458   6.361  13.289  0.00  0.00    +0.000 A 
BRANCH  22  32
ATOM     31  N   UNL     1      49.461   6.674  15.236  0.00  0.00    +0.000 NA
ATOM     32  C   UNL     1      48.619   6.877  14.463  0.00  0.00    +0.000 C 
ENDBRANCH  22  32
ENDBRANCH  18  29
ENDBRANCH   1  20
TORSDOF 8
ENDMDL
