MODEL 1
REMARK VINA RESULT:    -8.058      0.000      0.000
REMARK INTER + INTRA:         -10.389
REMARK INTER:                 -10.414
REMARK INTRA:                   0.025
REMARK UNBOUND:                 0.025
REMARK  Name = 
REMARK  6 active torsions:
REMARK  status: ('A' for Active; 'I' for Inactive)
REMARK    1  A    between atoms: C_1  and  O_2
REMARK    2  A    between atoms: O_2  and  C_3
REMARK    3  A    between atoms: C_6  and  O_7
REMARK    4  A    between atoms: O_7  and  C_8
REMARK    5  A    between atoms: C_8  and  C_9
REMARK    6  A    between atoms: C_13  and  C_14
REMARK                            x       y       z     vdW  Elec       q    Type
REMARK                         _______ _______ _______ _____ _____    ______ ____
ROOT
ATOM      1  C   UNL     1      45.343   5.273  12.134  0.00  0.00    +0.000 A 
ATOM      2  C   UNL     1      46.041   6.289  11.463  0.00  0.00    +0.000 A 
ATOM      3  C   UNL     1      47.227   6.813  11.965  0.00  0.00    +0.000 A 
ATOM      4  C   UNL     1      47.731   6.343  13.175  0.00  0.00    +0.000 A 
ATOM      5  C   UNL     1      47.065   5.345  13.905  0.00  0.00    +0.000 A 
ATOM      6  C   UNL     1      45.886   4.806  13.348  0.00  0.00    +0.000 A 
ENDROOT
BRANCH   5   7
ATOM      7  C   UNL     1      47.543   4.940  15.245  0.00  0.00    +0.000 A 
ATOM      8  C   UNL     1      48.465   5.720  15.959  0.00  0.00    +0.000 A 
ATOM      9  N   UNL     1      48.934   5.451  17.204  0.00  0.00    +0.000 NA
ATOM     10  C   UNL     1      48.446   4.334  17.789  0.00  0.00    +0.000 A 
ATOM     11  C   UNL     1      47.540   3.490  17.183  0.00  0.00    +0.000 A 
ATOM     12  F   UNL     1      47.091   2.402  17.819  0.00  0.00    +0.000 F 
ATOM     13  C   UNL     1      47.086   3.788  15.901  0.00  0.00    +0.000 A 
ENDBRANCH   5   7
BRANCH   1  14
ATOM     14  C   UNL     1      44.006   4.802  11.593  0.00  0.00    +0.000 C 
ATOM     15  C   UNL     1      42.787   5.098  12.461  0.00  0.00    +0.000 C 
ATOM     16  C   UNL     1      42.918   5.741  11.119  0.00  0.00    +0.000 C 
BRANCH  14  17
ATOM     17  O   UNL     1      43.984   3.449  11.078  0.00  0.00    +0.000 OA
BRANCH  17  21
ATOM     18  C   UNL     1      46.004   3.151   7.576  0.00  0.00    +0.000 A 
ATOM     19  C   UNL     1      45.895   2.041   8.408  0.00  0.00    +0.000 A 
ATOM     20  N   UNL     1      45.207   2.058   9.577  0.00  0.00    +0.000 NA
ATOM     21  C   UNL     1      44.620   3.242   9.870  0.00  0.00    +0.000 A 
ATOM     22  C   UNL     1      44.700   4.339   9.021  0.00  0.00    +0.000 A 
ATOM     23  N   UNL     1      45.394   4.324   7.858  0.00  0.00    +0.000 NA
BRANCH  18  25
ATOM     24  C   UNL     1      47.848   2.095   6.616  0.00  0.00    +0.000 C 
ATOM     25  O   UNL     1      46.788   3.036   6.449  0.00  0.00    +0.000 OA
ENDBRANCH  18  25
ENDBRANCH  17  21
ENDBRANCH  14  17
ENDBRANCH   1  14
TORSDOF 5
ENDMDL
MODEL 2
REMARK VINA RESULT:    -7.751      2.845      3.954
REMARK INTER + INTRA:          -9.992
REMARK INTER:                  -9.703
REMARK INTRA:                  -0.288
REMARK UNBOUND:                 0.025
REMARK  Name = 
REMARK  6 active torsions:
REMARK  status: ('A' for Active; 'I' for Inactive)
REMARK    1  A    between atoms: C_1  and  O_2
REMARK    2  A    between atoms: O_2  and  C_3
REMARK    3  A    between atoms: C_6  and  O_7
REMARK    4  A    between atoms: O_7  and  C_8
REMARK    5  A    between atoms: C_8  and  C_9
REMARK    6  A    between atoms: C_13  and  C_14
REMARK                            x       y       z     vdW  Elec       q    Type
REMARK                         _______ _______ _______ _____ _____    ______ ____
ROOT
ATOM      1  C   UNL     1      45.141   5.082  12.234  0.00  0.00    +0.000 A 
ATOM      2  C   UNL     1      45.712   4.120  13.081  0.00  0.00    +0.000 A 
ATOM      3  C   UNL     1      46.958   4.314  13.668  0.00  0.00    +0.000 A 
ATOM      4  C   UNL     1      47.675   5.477  13.397  0.00  0.00    +0.000 A 
ATOM      5  C   UNL     1      47.167   6.465  12.539  0.00  0.00    +0.000 A 
ATOM      6  C   UNL     1      45.882   6.256  11.991  0.00  0.00    +0.000 A 
ENDROOT
BRANCH   5   7
ATOM      7  C   UNL     1      47.986   7.637  12.163  0.00  0.00    +0.000 A 
ATOM      8  C   UNL     1      47.452   8.934  12.172  0.00  0.00    +0.000 A 
ATOM      9  N   UNL     1      48.131  10.073  11.879  0.00  0.00    +0.000 NA
ATOM     10  C   UNL     1      49.437   9.916  11.565  0.00  0.00    +0.000 A 
ATOM     11  C   UNL     1      50.068   8.691  11.521  0.00  0.00    +0.000 A 
ATOM     12  F   UNL     1      51.366   8.604  11.209  0.00  0.00    +0.000 F 
ATOM     13  C   UNL     1      49.341   7.541  11.816  0.00  0.00    +0.000 A 
ENDBRANCH   5   7
BRANCH   1  14
ATOM     14  C   UNL     1      43.823   4.782  11.545  0.00  0.00    +0.000 C 
ATOM     15  C   UNL     1      42.560   5.144  12.321  0.00  0.00    +0.000 C 
ATOM     16  C   UNL     1      42.878   5.852  11.045  0.00  0.00    +0.000 C 
BRANCH  14  17
ATOM     17  O   UNL     1      43.722   3.473  10.935  0.00  0.00    +0.000 OA
BRANCH  17  21
ATOM     18  C   UNL     1      46.089   3.168   7.659  0.00  0.00    +0.000 A 
ATOM     19  C   UNL     1      45.809   2.035   8.417  0.00  0.00    +0.000 A 
ATOM     20  N   UNL     1      44.999   2.056   9.506  0.00  0.00    +0.000 NA
ATOM     21  C   UNL     1      44.471   3.268   9.794  0.00  0.00    +0.000 A 
ATOM     22  C   UNL     1      44.723   4.391   9.014  0.00  0.00    +0.000 A 
ATOM     23  N   UNL     1      45.538   4.371   7.933  0.00  0.00    +0.000 NA
BRANCH  18  25
ATOM     24  C   UNL     1      47.869   1.936   6.792  0.00  0.00    +0.000 C 
ATOM     25  O   UNL     1      46.983   3.040   6.618  0.00  0.00    +0.000 OA
ENDBRANCH  18  25
ENDBRANCH  17  21
ENDBRANCH  14  17
ENDBRANCH   1  14
TORSDOF 5
ENDMDL
MODEL 3
REMARK VINA RESULT:    -7.705      3.027      7.387
REMARK INTER + INTRA:          -9.932
REMARK INTER:                  -9.554
REMARK INTRA:                  -0.378
REMARK UNBOUND:                 0.025
REMARK  Name = 
REMARK  6 active torsions:
REMARK  status: ('A' for Active; 'I' for Inactive)
REMARK    1  A    between atoms: C_1  and  O_2
REMARK    2  A    between atoms: O_2  and  C_3
REMARK    3  A    between atoms: C_6  and  O_7
REMARK    4  A    between atoms: O_7  and  C_8
REMARK    5  A    between atoms: C_8  and  C_9
REMARK    6  A    between atoms: C_13  and  C_14
REMARK                            x       y       z     vdW  Elec       q    Type
REMARK                         _______ _______ _______ _____ _____    ______ ____
ROOT
ATOM      1  C   UNL     1      45.459   6.235  11.783  0.00  0.00    +0.000 A 
ATOM      2  C   UNL     1      44.073   6.342  11.972  0.00  0.00    +0.000 A 
ATOM      3  C   UNL     1      43.176   5.570  11.241  0.00  0.00    +0.000 A 
ATOM      4  C   UNL     1      43.653   4.683  10.280  0.00  0.00    +0.000 A 
ATOM      5  C   UNL     1      45.028   4.549  10.028  0.00  0.00    +0.000 A 
ATOM      6  C   UNL     1      45.914   5.318  10.814  0.00  0.00    +0.000 A 
ENDROOT
BRANCH   5   7
ATOM      7  C   UNL     1      45.516   3.695   8.924  0.00  0.00    +0.000 A 
ATOM      8  C   UNL     1      45.993   4.251   7.727  0.00  0.00    +0.000 A 
ATOM      9  N   UNL     1      46.494   3.555   6.675  0.00  0.00    +0.000 NA
ATOM     10  C   UNL     1      46.536   2.212   6.823  0.00  0.00    +0.000 A 
ATOM     11  C   UNL     1      46.093   1.555   7.951  0.00  0.00    +0.000 A 
ATOM     12  F   UNL     1      46.168   0.222   8.038  0.00  0.00    +0.000 F 
ATOM     13  C   UNL     1      45.575   2.297   9.009  0.00  0.00    +0.000 A 
ENDBRANCH   5   7
BRANCH   1  14
ATOM     14  C   UNL     1      46.390   7.166  12.536  0.00  0.00    +0.000 C 
ATOM     15  C   UNL     1      46.576   8.559  11.941  0.00  0.00    +0.000 C 
ATOM     16  C   UNL     1      45.920   8.401  13.274  0.00  0.00    +0.000 C 
BRANCH  14  17
ATOM     17  O   UNL     1      47.650   6.587  12.952  0.00  0.00    +0.000 OA
BRANCH  17  21
ATOM     18  C   UNL     1      47.658   4.303  16.302  0.00  0.00    +0.000 A 
ATOM     19  C   UNL     1      48.411   5.473  16.261  0.00  0.00    +0.000 A 
ATOM     20  N   UNL     1      48.430   6.302  15.187  0.00  0.00    +0.000 NA
ATOM     21  C   UNL     1      47.647   5.910  14.156  0.00  0.00    +0.000 A 
ATOM     22  C   UNL     1      46.867   4.760  14.212  0.00  0.00    +0.000 A 
ATOM     23  N   UNL     1      46.855   3.929  15.281  0.00  0.00    +0.000 NA
BRANCH  18  25
ATOM     24  C   UNL     1      49.025   2.822  17.473  0.00  0.00    +0.000 C 
ATOM     25  O   UNL     1      47.773   3.503  17.418  0.00  0.00    +0.000 OA
ENDBRANCH  18  25
ENDBRANCH  17  21
ENDBRANCH  14  17
ENDBRANCH   1  14
TORSDOF 5
ENDMDL
MODEL 4
REMARK VINA RESULT:    -7.221      2.544      3.056
REMARK INTER + INTRA:          -9.307
REMARK INTER:                  -8.958
REMARK INTRA:                  -0.349
REMARK UNBOUND:                 0.025
REMARK  Name = 
REMARK  6 active torsions:
REMARK  status: ('A' for Active; 'I' for Inactive)
REMARK    1  A    between atoms: C_1  and  O_2
REMARK    2  A    between atoms: O_2  and  C_3
REMARK    3  A    between atoms: C_6  and  O_7
REMARK    4  A    between atoms: O_7  and  C_8
REMARK    5  A    between atoms: C_8  and  C_9
REMARK    6  A    between atoms: C_13  and  C_14
REMARK                            x       y       z     vdW  Elec       q    Type
REMARK                         _______ _______ _______ _____ _____    ______ ____
ROOT
ATOM      1  C   UNL     1      44.861   6.634  12.078  0.00  0.00    +0.000 A 
ATOM      2  C   UNL     1      44.377   7.849  11.567  0.00  0.00    +0.000 A 
ATOM      3  C   UNL     1      45.049   9.047  11.778  0.00  0.00    +0.000 A 
ATOM      4  C   UNL     1      46.219   9.059  12.532  0.00  0.00    +0.000 A 
ATOM      5  C   UNL     1      46.740   7.880  13.090  0.00  0.00    +0.000 A 
ATOM      6  C   UNL     1      46.056   6.674  12.824  0.00  0.00    +0.000 A 
ENDROOT
BRANCH   5   7
ATOM      7  C   UNL     1      47.914   7.921  13.988  0.00  0.00    +0.000 A 
ATOM      8  C   UNL     1      48.521   6.743  14.450  0.00  0.00    +0.000 A 
ATOM      9  N   UNL     1      49.619   6.678  15.245  0.00  0.00    +0.000 NA
ATOM     10  C   UNL     1      50.163   7.865  15.599  0.00  0.00    +0.000 A 
ATOM     11  C   UNL     1      49.652   9.083  15.208  0.00  0.00    +0.000 A 
ATOM     12  F   UNL     1      50.240  10.223  15.588  0.00  0.00    +0.000 F 
ATOM     13  C   UNL     1      48.517   9.117  14.401  0.00  0.00    +0.000 A 
ENDBRANCH   5   7
BRANCH   1  14
ATOM     14  C   UNL     1      44.041   5.370  11.900  0.00  0.00    +0.000 C 
ATOM     15  C   UNL     1      42.939   5.133  12.928  0.00  0.00    +0.000 C 
ATOM     16  C   UNL     1      42.583   5.368  11.497  0.00  0.00    +0.000 C 
BRANCH  14  17
ATOM     17  O   UNL     1      44.802   4.165  11.640  0.00  0.00    +0.000 OA
BRANCH  17  21
ATOM     18  C   UNL     1      45.774   3.472   7.765  0.00  0.00    +0.000 A 
ATOM     19  C   UNL     1      45.294   2.431   8.555  0.00  0.00    +0.000 A 
ATOM     20  N   UNL     1      44.918   2.597   9.849  0.00  0.00    +0.000 NA
ATOM     21  C   UNL     1      45.035   3.863  10.313  0.00  0.00    +0.000 A 
ATOM     22  C   UNL     1      45.480   4.908   9.512  0.00  0.00    +0.000 A 
ATOM     23  N   UNL     1      45.863   4.740   8.225  0.00  0.00    +0.000 NA
BRANCH  18  25
ATOM     24  C   UNL     1      47.270   2.235   6.474  0.00  0.00    +0.000 C 
ATOM     25  O   UNL     1      46.193   3.170   6.488  0.00  0.00    +0.000 OA
ENDBRANCH  18  25
ENDBRANCH  17  21
ENDBRANCH  14  17
ENDBRANCH   1  14
TORSDOF 5
ENDMDL
MODEL 5
REMARK VINA RESULT:    -7.147      4.345      7.344
REMARK INTER + INTRA:          -9.212
REMARK INTER:                  -8.617
REMARK INTRA:                  -0.595
REMARK UNBOUND:                 0.025
REMARK  Name = 
REMARK  6 active torsions:
REMARK  status: ('A' for Active; 'I' for Inactive)
REMARK    1  A    between atoms: C_1  and  O_2
REMARK    2  A    between atoms: O_2  and  C_3
REMARK    3  A    between atoms: C_6  and  O_7
REMARK    4  A    between atoms: O_7  and  C_8
REMARK    5  A    between atoms: C_8  and  C_9
REMARK    6  A    between atoms: C_13  and  C_14
REMARK                            x       y       z     vdW  Elec       q    Type
REMARK                         _______ _______ _______ _____ _____    ______ ____
ROOT
ATOM      1  C   UNL     1      45.204   6.418  11.900  0.00  0.00    +0.000 A 
ATOM      2  C   UNL     1      43.912   6.150  12.379  0.00  0.00    +0.000 A 
ATOM      3  C   UNL     1      43.154   5.096  11.881  0.00  0.00    +0.000 A 
ATOM      4  C   UNL     1      43.670   4.294  10.866  0.00  0.00    +0.000 A 
ATOM      5  C   UNL     1      44.946   4.528  10.329  0.00  0.00    +0.000 A 
ATOM      6  C   UNL     1      45.706   5.580  10.884  0.00  0.00    +0.000 A 
ENDROOT
BRANCH   5   7
ATOM      7  C   UNL     1      45.435   3.749   9.171  0.00  0.00    +0.000 A 
ATOM      8  C   UNL     1      45.903   4.382   8.010  0.00  0.00    +0.000 A 
ATOM      9  N   UNL     1      46.403   3.758   6.913  0.00  0.00    +0.000 NA
ATOM     10  C   UNL     1      46.454   2.407   6.976  0.00  0.00    +0.000 A 
ATOM     11  C   UNL     1      46.021   1.678   8.062  0.00  0.00    +0.000 A 
ATOM     12  F   UNL     1      46.104   0.343   8.064  0.00  0.00    +0.000 F 
ATOM     13  C   UNL     1      45.502   2.349   9.167  0.00  0.00    +0.000 A 
ENDBRANCH   5   7
BRANCH   1  14
ATOM     14  C   UNL     1      45.952   7.635  12.410  0.00  0.00    +0.000 C 
ATOM     15  C   UNL     1      47.066   7.367  13.417  0.00  0.00    +0.000 C 
ATOM     16  C   UNL     1      47.397   7.930  12.074  0.00  0.00    +0.000 C 
BRANCH  14  17
ATOM     17  O   UNL     1      45.123   8.754  12.809  0.00  0.00    +0.000 OA
BRANCH  17  21
ATOM     18  C   UNL     1      44.526  11.463   9.853  0.00  0.00    +0.000 A 
ATOM     19  C   UNL     1      43.714  10.334   9.931  0.00  0.00    +0.000 A 
ATOM     20  N   UNL     1      43.836   9.404  10.912  0.00  0.00    +0.000 NA
ATOM     21  C   UNL     1      44.804   9.664  11.821  0.00  0.00    +0.000 A 
ATOM     22  C   UNL     1      45.588  10.809  11.762  0.00  0.00    +0.000 A 
ATOM     23  N   UNL     1      45.473  11.733  10.779  0.00  0.00    +0.000 NA
BRANCH  18  25
ATOM     24  C   UNL     1      43.329  11.856   7.891  0.00  0.00    +0.000 C 
ATOM     25  O   UNL     1      44.358  12.301   8.772  0.00  0.00    +0.000 OA
ENDBRANCH  18  25
ENDBRANCH  17  21
ENDBRANCH  14  17
ENDBRANCH   1  14
TORSDOF 5
ENDMDL
MODEL 6
REMARK VINA RESULT:    -6.935      3.452      7.925
REMARK INTER + INTRA:          -8.937
REMARK INTER:                  -8.397
REMARK INTRA:                  -0.540
REMARK UNBOUND:                 0.025
REMARK  Name = 
REMARK  6 active torsions:
REMARK  status: ('A' for Active; 'I' for Inactive)
REMARK    1  A    between atoms: C_1  and  O_2
REMARK    2  A    between atoms: O_2  and  C_3
REMARK    3  A    between atoms: C_6  and  O_7
REMARK    4  A    between atoms: O_7  and  C_8
REMARK    5  A    between atoms: C_8  and  C_9
REMARK    6  A    between atoms: C_13  and  C_14
REMARK                            x       y       z     vdW  Elec       q    Type
REMARK                         _______ _______ _______ _____ _____    ______ ____
ROOT
ATOM      1  C   UNL     1      46.950   7.319  12.707  0.00  0.00    +0.000 A 
ATOM      2  C   UNL     1      46.003   8.355  12.741  0.00  0.00    +0.000 A 
ATOM      3  C   UNL     1      44.777   8.243  12.096  0.00  0.00    +0.000 A 
ATOM      4  C   UNL     1      44.478   7.088  11.378  0.00  0.00    +0.000 A 
ATOM      5  C   UNL     1      45.394   6.028  11.286  0.00  0.00    +0.000 A 
ATOM      6  C   UNL     1      46.613   6.156  11.985  0.00  0.00    +0.000 A 
ENDROOT
BRANCH   5   7
ATOM      7  C   UNL     1      45.117   4.860  10.422  0.00  0.00    +0.000 A 
ATOM      8  C   UNL     1      44.370   3.768  10.888  0.00  0.00    +0.000 A 
ATOM      9  N   UNL     1      44.034   2.670  10.162  0.00  0.00    +0.000 NA
ATOM     10  C   UNL     1      44.461   2.659   8.879  0.00  0.00    +0.000 A 
ATOM     11  C   UNL     1      45.204   3.673   8.314  0.00  0.00    +0.000 A 
ATOM     12  F   UNL     1      45.590   3.605   7.035  0.00  0.00    +0.000 F 
ATOM     13  C   UNL     1      45.541   4.781   9.088  0.00  0.00    +0.000 A 
ENDBRANCH   5   7
BRANCH   1  14
ATOM     14  C   UNL     1      48.309   7.528  13.347  0.00  0.00    +0.000 C 
ATOM     15  C   UNL     1      49.326   8.313  12.524  0.00  0.00    +0.000 C 
ATOM     16  C   UNL     1      48.817   8.876  13.810  0.00  0.00    +0.000 C 
BRANCH  14  17
ATOM     17  O   UNL     1      48.900   6.354  13.955  0.00  0.00    +0.000 OA
BRANCH  17  21
ATOM     18  C   UNL     1      47.895   5.257  17.726  0.00  0.00    +0.000 A 
ATOM     19  C   UNL     1      48.721   6.359  17.523  0.00  0.00    +0.000 A 
ATOM     20  N   UNL     1      49.071   6.803  16.289  0.00  0.00    +0.000 NA
ATOM     21  C   UNL     1      48.544   6.095  15.263  0.00  0.00    +0.000 A 
ATOM     22  C   UNL     1      47.690   5.017  15.467  0.00  0.00    +0.000 A 
ATOM     23  N   UNL     1      47.348   4.570  16.698  0.00  0.00    +0.000 NA
BRANCH  18  25
ATOM     24  C   UNL     1      48.779   5.111  19.878  0.00  0.00    +0.000 C 
ATOM     25  O   UNL     1      47.665   4.855  19.024  0.00  0.00    +0.000 OA
ENDBRANCH  18  25
ENDBRANCH  17  21
ENDBRANCH  14  17
ENDBRANCH   1  14
TORSDOF 5
ENDMDL
MODEL 7
REMARK VINA RESULT:    -6.883      4.055      5.659
REMARK INTER + INTRA:          -8.870
REMARK INTER:                  -9.693
REMARK INTRA:                   0.822
REMARK UNBOUND:                 0.025
REMARK  Name = 
REMARK  6 active torsions:
REMARK  status: ('A' for Active; 'I' for Inactive)
REMARK    1  A    between atoms: C_1  and  O_2
REMARK    2  A    between atoms: O_2  and  C_3
REMARK    3  A    between atoms: C_6  and  O_7
REMARK    4  A    between atoms: O_7  and  C_8
REMARK    5  A    between atoms: C_8  and  C_9
REMARK    6  A    between atoms: C_13  and  C_14
REMARK                            x       y       z     vdW  Elec       q    Type
REMARK                         _______ _______ _______ _____ _____    ______ ____
ROOT
ATOM      1  C   UNL     1      44.941   5.746  11.710  0.00  0.00    +0.000 A 
ATOM      2  C   UNL     1      46.302   5.778  12.050  0.00  0.00    +0.000 A 
ATOM      3  C   UNL     1      46.993   6.978  12.179  0.00  0.00    +0.000 A 
ATOM      4  C   UNL     1      46.333   8.182  11.948  0.00  0.00    +0.000 A 
ATOM      5  C   UNL     1      44.978   8.214  11.582  0.00  0.00    +0.000 A 
ATOM      6  C   UNL     1      44.296   6.981  11.497  0.00  0.00    +0.000 A 
ENDROOT
BRANCH   5   7
ATOM      7  C   UNL     1      44.320   9.488  11.220  0.00  0.00    +0.000 A 
ATOM      8  C   UNL     1      44.927  10.725  11.485  0.00  0.00    +0.000 A 
ATOM      9  N   UNL     1      44.421  11.942  11.160  0.00  0.00    +0.000 NA
ATOM     10  C   UNL     1      43.232  11.932  10.515  0.00  0.00    +0.000 A 
ATOM     11  C   UNL     1      42.542  10.780  10.204  0.00  0.00    +0.000 A 
ATOM     12  F   UNL     1      41.372  10.839   9.559  0.00  0.00    +0.000 F 
ATOM     13  C   UNL     1      43.084   9.547  10.561  0.00  0.00    +0.000 A 
ENDBRANCH   5   7
BRANCH   1  14
ATOM     14  C   UNL     1      44.258   4.410  11.489  0.00  0.00    +0.000 C 
ATOM     15  C   UNL     1      44.919   3.200  12.142  0.00  0.00    +0.000 C 
ATOM     16  C   UNL     1      43.561   3.635  12.585  0.00  0.00    +0.000 C 
BRANCH  14  17
ATOM     17  O   UNL     1      43.857   4.132  10.125  0.00  0.00    +0.000 OA
BRANCH  17  21
ATOM     18  C   UNL     1      46.549   2.518   7.558  0.00  0.00    +0.000 A 
ATOM     19  C   UNL     1      46.344   3.896   7.571  0.00  0.00    +0.000 A 
ATOM     20  N   UNL     1      45.485   4.507   8.424  0.00  0.00    +0.000 NA
ATOM     21  C   UNL     1      44.846   3.673   9.277  0.00  0.00    +0.000 A 
ATOM     22  C   UNL     1      45.078   2.303   9.288  0.00  0.00    +0.000 A 
ATOM     23  N   UNL     1      45.928   1.692   8.430  0.00  0.00    +0.000 NA
BRANCH  18  25
ATOM     24  C   UNL     1      47.337   2.733   5.375  0.00  0.00    +0.000 C 
ATOM     25  O   UNL     1      47.392   2.002   6.599  0.00  0.00    +0.000 OA
ENDBRANCH  18  25
ENDBRANCH  17  21
ENDBRANCH  14  17
ENDBRANCH   1  14
TORSDOF 5
ENDMDL
MODEL 8
REMARK VINA RESULT:    -6.747      3.262      7.987
REMARK INTER + INTRA:          -8.695
REMARK INTER:                  -8.192
REMARK INTRA:                  -0.503
REMARK UNBOUND:                 0.025
REMARK  Name = 
REMARK  6 active torsions:
REMARK  status: ('A' for Active; 'I' for Inactive)
REMARK    1  A    between atoms: C_1  and  O_2
REMARK    2  A    between atoms: O_2  and  C_3
REMARK    3  A    between atoms: C_6  and  O_7
REMARK    4  A    between atoms: O_7  and  C_8
REMARK    5  A    between atoms: C_8  and  C_9
REMARK    6  A    between atoms: C_13  and  C_14
REMARK                            x       y       z     vdW  Elec       q    Type
REMARK                         _______ _______ _______ _____ _____    ______ ____
ROOT
ATOM      1  C   UNL     1      47.451   7.376  13.310  0.00  0.00    +0.000 A 
ATOM      2  C   UNL     1      46.721   8.575  13.307  0.00  0.00    +0.000 A 
ATOM      3  C   UNL     1      45.482   8.672  12.684  0.00  0.00    +0.000 A 
ATOM      4  C   UNL     1      44.952   7.565  12.026  0.00  0.00    +0.000 A 
ATOM      5  C   UNL     1      45.645   6.345  11.974  0.00  0.00    +0.000 A 
ATOM      6  C   UNL     1      46.882   6.268  12.650  0.00  0.00    +0.000 A 
ENDROOT
BRANCH   5   7
ATOM      7  C   UNL     1      45.131   5.215  11.171  0.00  0.00    +0.000 A 
ATOM      8  C   UNL     1      45.447   5.082   9.811  0.00  0.00    +0.000 A 
ATOM      9  N   UNL     1      45.054   4.065   9.002  0.00  0.00    +0.000 NA
ATOM     10  C   UNL     1      44.304   3.103   9.586  0.00  0.00    +0.000 A 
ATOM     11  C   UNL     1      43.930   3.129  10.912  0.00  0.00    +0.000 A 
ATOM     12  F   UNL     1      43.191   2.142  11.432  0.00  0.00    +0.000 F 
ATOM     13  C   UNL     1      44.340   4.192  11.713  0.00  0.00    +0.000 A 
ENDBRANCH   5   7
BRANCH   1  14
ATOM     14  C   UNL     1      48.839   7.348  13.921  0.00  0.00    +0.000 C 
ATOM     15  C   UNL     1      49.990   7.719  12.992  0.00  0.00    +0.000 C 
ATOM     16  C   UNL     1      49.671   8.588  14.164  0.00  0.00    +0.000 C 
BRANCH  14  17
ATOM     17  O   UNL     1      49.147   6.178  14.717  0.00  0.00    +0.000 OA
BRANCH  17  21
ATOM     18  C   UNL     1      47.791   5.808  18.520  0.00  0.00    +0.000 A 
ATOM     19  C   UNL     1      48.459   6.967  18.133  0.00  0.00    +0.000 A 
ATOM     20  N   UNL     1      48.911   7.173  16.871  0.00  0.00    +0.000 NA
ATOM     21  C   UNL     1      48.650   6.165  16.006  0.00  0.00    +0.000 A 
ATOM     22  C   UNL     1      47.952   5.025  16.385  0.00  0.00    +0.000 A 
ATOM     23  N   UNL     1      47.509   4.816  17.647  0.00  0.00    +0.000 NA
BRANCH  18  25
ATOM     24  C   UNL     1      48.471   5.068  20.624  0.00  0.00    +0.000 C 
ATOM     25  O   UNL     1      47.443   5.679  19.847  0.00  0.00    +0.000 OA
ENDBRANCH  18  25
ENDBRANCH  17  21
ENDBRANCH  14  17
ENDBRANCH   1  14
TORSDOF 5
ENDMDL
MODEL 9
REMARK VINA RESULT:    -6.608      3.807      7.933
REMARK INTER + INTRA:          -8.515
REMARK INTER:                  -7.764
REMARK INTRA:                  -0.751
REMARK UNBOUND:                 0.025
REMARK  Name = 
REMARK  6 active torsions:
REMARK  status: ('A' for Active; 'I' for Inactive)
REMARK    1  A    between atoms: C_1  and  O_2
REMARK    2  A    between atoms: O_2  and  C_3
REMARK    3  A    between atoms: C_6  and  O_7
REMARK    4  A    between atoms: O_7  and  C_8
REMARK    5  A    between atoms: C_8  and  C_9
REMARK    6  A    between atoms: C_13  and  C_14
REMARK                            x       y       z     vdW  Elec       q    Type
REMARK                         _______ _______ _______ _____ _____    ______ ____
ROOT
ATOM      1  C   UNL     1      47.706   7.655  12.618  0.00  0.00    +0.000 A 
ATOM      2  C   UNL     1      46.961   8.838  12.494  0.00  0.00    +0.000 A 
ATOM      3  C   UNL     1      45.591   8.816  12.255  0.00  0.00    +0.000 A 
ATOM      4  C   UNL     1      44.936   7.595  12.112  0.00  0.00    +0.000 A 
ATOM      5  C   UNL     1      45.631   6.378  12.202  0.00  0.00    +0.000 A 
ATOM      6  C   UNL     1      47.013   6.435  12.485  0.00  0.00    +0.000 A 
ENDROOT
BRANCH   5   7
ATOM      7  C   UNL     1      44.950   5.095  11.928  0.00  0.00    +0.000 A 
ATOM      8  C   UNL     1      44.332   4.363  12.954  0.00  0.00    +0.000 A 
ATOM      9  N   UNL     1      43.655   3.197  12.797  0.00  0.00    +0.000 NA
ATOM     10  C   UNL     1      43.572   2.728  11.531  0.00  0.00    +0.000 A 
ATOM     11  C   UNL     1      44.141   3.360  10.446  0.00  0.00    +0.000 A 
ATOM     12  F   UNL     1      44.018   2.847   9.217  0.00  0.00    +0.000 F 
ATOM     13  C   UNL     1      44.840   4.549  10.642  0.00  0.00    +0.000 A 
ENDBRANCH   5   7
BRANCH   1  14
ATOM     14  C   UNL     1      49.211   7.734  12.784  0.00  0.00    +0.000 C 
ATOM     15  C   UNL     1      50.036   7.602  11.508  0.00  0.00    +0.000 C 
ATOM     16  C   UNL     1      50.050   8.885  12.272  0.00  0.00    +0.000 C 
BRANCH  14  17
ATOM     17  O   UNL     1      49.763   6.944  13.864  0.00  0.00    +0.000 OA
BRANCH  17  21
ATOM     18  C   UNL     1      48.617   7.550  17.706  0.00  0.00    +0.000 A 
ATOM     19  C   UNL     1      49.079   8.620  16.945  0.00  0.00    +0.000 A 
ATOM     20  N   UNL     1      49.447   8.497  15.644  0.00  0.00    +0.000 NA
ATOM     21  C   UNL     1      49.320   7.250  15.136  0.00  0.00    +0.000 A 
ATOM     22  C   UNL     1      48.825   6.190  15.887  0.00  0.00    +0.000 A 
ATOM     23  N   UNL     1      48.466   6.310  17.186  0.00  0.00    +0.000 NA
BRANCH  18  25
ATOM     24  C   UNL     1      49.428   7.422  19.888  0.00  0.00    +0.000 C 
ATOM     25  O   UNL     1      48.340   7.778  19.036  0.00  0.00    +0.000 OA
ENDBRANCH  18  25
ENDBRANCH  17  21
ENDBRANCH  14  17
ENDBRANCH   1  14
TORSDOF 5
ENDMDL
