MODEL 1
REMARK VINA RESULT:    -7.838      0.000      0.000
REMARK INTER + INTRA:         -11.507
REMARK INTER:                 -10.587
REMARK INTRA:                  -0.920
REMARK UNBOUND:                -0.920
REMARK  Name = 
REMARK  7 active torsions:
REMARK  status: ('A' for Active; 'I' for Inactive)
REMARK    1  A    between atoms: C_1  and  O_2
REMARK    2  A    between atoms: O_2  and  C_3
REMARK    3  A    between atoms: C_8  and  C_9
REMARK    4  A    between atoms: C_9  and  C_10
REMARK    5  A    between atoms: C_13  and  C_14
REMARK    6  A    between atoms: C_14  and  N_15
REMARK    7  A    between atoms: C_16  and  C_18
REMARK                            x       y       z     vdW  Elec       q    Type
REMARK                         _______ _______ _______ _____ _____    ______ ____
ROOT
ATOM      1  C   UNL     1      47.459   8.608  13.835  0.00  0.00    +0.000 C 
ENDROOT
BRANCH   1   5
ATOM      2  C   UNL     1      45.032   6.447  11.072  0.00  0.00    +0.000 A 
ATOM      3  C   UNL     1      46.313   5.969  11.346  0.00  0.00    +0.000 A 
ATOM      4  C   UNL     1      47.141   6.691  12.207  0.00  0.00    +0.000 A 
ATOM      5  C   UNL     1      46.673   7.868  12.794  0.00  0.00    +0.000 A 
ATOM      6  C   UNL     1      45.416   8.311  12.403  0.00  0.00    +0.000 A 
ATOM      7  N   UNL     1      44.592   7.631  11.573  0.00  0.00    +0.000 NA
BRANCH   2   8
ATOM      8  C   UNL     1      43.997   5.581  10.386  0.00  0.00    +0.000 C 
BRANCH   8  14
ATOM      9  C   UNL     1      44.166   3.077   9.955  0.00  0.00    +0.000 A 
ATOM     10  C   UNL     1      44.744   2.036   9.223  0.00  0.00    +0.000 A 
ATOM     11  C   UNL     1      45.637   2.321   8.194  0.00  0.00    +0.000 A 
ATOM     12  C   UNL     1      45.918   3.643   7.917  0.00  0.00    +0.000 A 
ATOM     13  N   UNL     1      45.375   4.678   8.590  0.00  0.00    +0.000 NA
ATOM     14  C   UNL     1      44.503   4.391   9.602  0.00  0.00    +0.000 A 
BRANCH   9  16
ATOM     15  C   UNL     1      43.855   2.791  12.293  0.00  0.00    +0.000 C 
ATOM     16  O   UNL     1      43.290   2.894  10.990  0.00  0.00    +0.000 OA
ENDBRANCH   9  16
ENDBRANCH   8  14
ENDBRANCH   2   8
ENDBRANCH   1   5
BRANCH   1  17
ATOM     17  N   UNL     1      47.787   7.784  14.967  0.00  0.00    +0.000 N 
ATOM     18  C   UNL     1      49.038   7.227  15.081  0.00  0.00    +0.000 C 
ATOM     19  O   UNL     1      49.928   7.457  14.268  0.00  0.00    +0.000 OA
ATOM     20  H   UNL     1      47.017   7.395  15.503  0.00  0.00    +0.000 HD
BRANCH  18  21
ATOM     21  C   UNL     1      49.276   6.386  16.261  0.00  0.00    +0.000 A 
ATOM     22  C   UNL     1      50.291   6.722  17.148  0.00  0.00    +0.000 A 
ATOM     23  S   UNL     1      50.396   5.674  18.490  0.00  0.00    +0.000 S 
ATOM     24  C   UNL     1      49.128   4.704  17.901  0.00  0.00    +0.000 A 
ATOM     25  N   UNL     1      48.724   3.596  18.573  0.00  0.00    +0.000 NA
ATOM     26  C   UNL     1      47.778   2.934  17.996  0.00  0.00    +0.000 A 
ATOM     27  N   UNL     1      47.196   3.284  16.806  0.00  0.00    +0.000 N 
ATOM     28  C   UNL     1      47.549   4.412  16.105  0.00  0.00    +0.000 A 
ATOM     29  O   UNL     1      46.978   4.727  15.067  0.00  0.00    +0.000 OA
ATOM     30  C   UNL     1      48.618   5.184  16.708  0.00  0.00    +0.000 A 
ATOM     31  H   UNL     1      46.454   2.727  16.408  0.00  0.00    +0.000 HD
ENDBRANCH  18  21
ENDBRANCH   1  17
TORSDOF 6
ENDMDL
MODEL 2
REMARK VINA RESULT:    -7.206      1.912      2.276
REMARK INTER + INTRA:         -10.654
REMARK INTER:                  -9.979
REMARK INTRA:                  -0.674
REMARK UNBOUND:                -0.920
REMARK  Name = 
REMARK  7 active torsions:
REMARK  status: ('A' for Active; 'I' for Inactive)
REMARK    1  A    between atoms: C_1  and  O_2
REMARK    2  A    between atoms: O_2  and  C_3
REMARK    3  A    between atoms: C_8  and  C_9
REMARK    4  A    between atoms: C_9  and  C_10
REMARK    5  A    between atoms: C_13  and  C_14
REMARK    6  A    between atoms: C_14  and  N_15
REMARK    7  A    between atoms: C_16  and  C_18
REMARK                            x       y       z     vdW  Elec       q    Type
REMARK                         _______ _______ _______ _____ _____    ______ ____
ROOT
ATOM      1  C   UNL     1      48.588   7.034  14.163  0.00  0.00    +0.000 C 
ENDROOT
BRANCH   1   5
ATOM      2  C   UNL     1      45.162   6.161  11.777  0.00  0.00    +0.000 A 
ATOM      3  C   UNL     1      45.524   7.496  11.956  0.00  0.00    +0.000 A 
ATOM      4  C   UNL     1      46.610   7.805  12.777  0.00  0.00    +0.000 A 
ATOM      5  C   UNL     1      47.330   6.777  13.390  0.00  0.00    +0.000 A 
ATOM      6  C   UNL     1      46.852   5.484  13.220  0.00  0.00    +0.000 A 
ATOM      7  N   UNL     1      45.803   5.156  12.430  0.00  0.00    +0.000 NA
BRANCH   2   8
ATOM      8  C   UNL     1      44.191   5.747  10.693  0.00  0.00    +0.000 C 
BRANCH   8  14
ATOM      9  C   UNL     1      44.097   3.282  10.060  0.00  0.00    +0.000 A 
ATOM     10  C   UNL     1      44.578   2.246   9.256  0.00  0.00    +0.000 A 
ATOM     11  C   UNL     1      45.525   2.510   8.271  0.00  0.00    +0.000 A 
ATOM     12  C   UNL     1      45.957   3.811   8.109  0.00  0.00    +0.000 A 
ATOM     13  N   UNL     1      45.511   4.843   8.855  0.00  0.00    +0.000 NA
ATOM     14  C   UNL     1      44.585   4.575   9.823  0.00  0.00    +0.000 A 
BRANCH   9  16
ATOM     15  C   UNL     1      43.606   2.385  12.204  0.00  0.00    +0.000 C 
ATOM     16  O   UNL     1      43.177   3.116  11.059  0.00  0.00    +0.000 OA
ENDBRANCH   9  16
ENDBRANCH   8  14
ENDBRANCH   2   8
ENDBRANCH   1   5
BRANCH   1  17
ATOM     17  N   UNL     1      48.342   7.233  15.566  0.00  0.00    +0.000 N 
ATOM     18  C   UNL     1      49.120   6.597  16.505  0.00  0.00    +0.000 C 
ATOM     19  O   UNL     1      50.078   5.897  16.188  0.00  0.00    +0.000 OA
ATOM     20  H   UNL     1      47.434   7.597  15.837  0.00  0.00    +0.000 HD
BRANCH  18  21
ATOM     21  C   UNL     1      48.784   6.845  17.912  0.00  0.00    +0.000 A 
ATOM     22  C   UNL     1      48.550   8.145  18.343  0.00  0.00    +0.000 A 
ATOM     23  S   UNL     1      48.119   8.249  19.989  0.00  0.00    +0.000 S 
ATOM     24  C   UNL     1      48.287   6.569  20.197  0.00  0.00    +0.000 A 
ATOM     25  N   UNL     1      48.085   5.990  21.407  0.00  0.00    +0.000 NA
ATOM     26  C   UNL     1      48.281   4.713  21.430  0.00  0.00    +0.000 A 
ATOM     27  N   UNL     1      48.658   3.964  20.347  0.00  0.00    +0.000 N 
ATOM     28  C   UNL     1      48.844   4.500  19.095  0.00  0.00    +0.000 A 
ATOM     29  O   UNL     1      49.135   3.798  18.134  0.00  0.00    +0.000 OA
ATOM     30  C   UNL     1      48.647   5.934  19.021  0.00  0.00    +0.000 A 
ATOM     31  H   UNL     1      48.790   2.966  20.428  0.00  0.00    +0.000 HD
ENDBRANCH  18  21
ENDBRANCH   1  17
TORSDOF 6
ENDMDL
MODEL 3
REMARK VINA RESULT:    -7.092      2.294      2.810
REMARK INTER + INTRA:         -10.499
REMARK INTER:                  -9.533
REMARK INTRA:                  -0.966
REMARK UNBOUND:                -0.920
REMARK  Name = 
REMARK  7 active torsions:
REMARK  status: ('A' for Active; 'I' for Inactive)
REMARK    1  A    between atoms: C_1  and  O_2
REMARK    2  A    between atoms: O_2  and  C_3
REMARK    3  A    between atoms: C_8  and  C_9
REMARK    4  A    between atoms: C_9  and  C_10
REMARK    5  A    between atoms: C_13  and  C_14
REMARK    6  A    between atoms: C_14  and  N_15
REMARK    7  A    between atoms: C_16  and  C_18
REMARK                            x       y       z     vdW  Elec       q    Type
REMARK                         _______ _______ _______ _____ _____    ______ ____
ROOT
ATOM      1  C   UNL     1      48.524   6.892  14.401  0.00  0.00    +0.000 C 
ENDROOT
BRANCH   1   5
ATOM      2  C   UNL     1      45.204   6.136  11.831  0.00  0.00    +0.000 A 
ATOM      3  C   UNL     1      45.479   7.456  12.190  0.00  0.00    +0.000 A 
ATOM      4  C   UNL     1      46.528   7.718  13.073  0.00  0.00    +0.000 A 
ATOM      5  C   UNL     1      47.298   6.664  13.568  0.00  0.00    +0.000 A 
ATOM      6  C   UNL     1      46.904   5.378  13.220  0.00  0.00    +0.000 A 
ATOM      7  N   UNL     1      45.893   5.095  12.366  0.00  0.00    +0.000 NA
BRANCH   2   8
ATOM      8  C   UNL     1      44.281   5.810  10.677  0.00  0.00    +0.000 C 
BRANCH   8  14
ATOM      9  C   UNL     1      44.116   3.356  10.016  0.00  0.00    +0.000 A 
ATOM     10  C   UNL     1      44.580   2.311   9.212  0.00  0.00    +0.000 A 
ATOM     11  C   UNL     1      45.560   2.552   8.254  0.00  0.00    +0.000 A 
ATOM     12  C   UNL     1      46.041   3.838   8.117  0.00  0.00    +0.000 A 
ATOM     13  N   UNL     1      45.614   4.877   8.862  0.00  0.00    +0.000 NA
ATOM     14  C   UNL     1      44.655   4.633   9.804  0.00  0.00    +0.000 A 
BRANCH   9  16
ATOM     15  C   UNL     1      43.538   2.450  12.134  0.00  0.00    +0.000 C 
ATOM     16  O   UNL     1      43.166   3.213  10.990  0.00  0.00    +0.000 OA
ENDBRANCH   9  16
ENDBRANCH   8  14
ENDBRANCH   2   8
ENDBRANCH   1   5
BRANCH   1  17
ATOM     17  N   UNL     1      48.283   6.684  15.803  0.00  0.00    +0.000 N 
ATOM     18  C   UNL     1      49.289   6.229  16.621  0.00  0.00    +0.000 C 
ATOM     19  O   UNL     1      50.430   6.046  16.207  0.00  0.00    +0.000 OA
ATOM     20  H   UNL     1      47.317   6.596  16.106  0.00  0.00    +0.000 HD
BRANCH  18  21
ATOM     21  C   UNL     1      48.946   6.029  18.034  0.00  0.00    +0.000 A 
ATOM     22  C   UNL     1      49.176   4.794  18.628  0.00  0.00    +0.000 A 
ATOM     23  S   UNL     1      48.773   4.749  20.284  0.00  0.00    +0.000 S 
ATOM     24  C   UNL     1      48.224   6.360  20.250  0.00  0.00    +0.000 A 
ATOM     25  N   UNL     1      47.711   6.947  21.361  0.00  0.00    +0.000 NA
ATOM     26  C   UNL     1      47.300   8.159  21.185  0.00  0.00    +0.000 A 
ATOM     27  N   UNL     1      47.361   8.837  19.996  0.00  0.00    +0.000 N 
ATOM     28  C   UNL     1      47.900   8.296  18.854  0.00  0.00    +0.000 A 
ATOM     29  O   UNL     1      47.985   8.942  17.816  0.00  0.00    +0.000 OA
ATOM     30  C   UNL     1      48.365   6.930  18.998  0.00  0.00    +0.000 A 
ATOM     31  H   UNL     1      47.028   9.788  19.923  0.00  0.00    +0.000 HD
ENDBRANCH  18  21
ENDBRANCH   1  17
TORSDOF 6
ENDMDL
MODEL 4
REMARK VINA RESULT:    -6.984      2.764      7.808
REMARK INTER + INTRA:         -10.354
REMARK INTER:                  -9.172
REMARK INTRA:                  -1.182
REMARK UNBOUND:                -0.920
REMARK  Name = 
REMARK  7 active torsions:
REMARK  status: ('A' for Active; 'I' for Inactive)
REMARK    1  A    between atoms: C_1  and  O_2
REMARK    2  A    between atoms: O_2  and  C_3
REMARK    3  A    between atoms: C_8  and  C_9
REMARK    4  A    between atoms: C_9  and  C_10
REMARK    5  A    between atoms: C_13  and  C_14
REMARK    6  A    between atoms: C_14  and  N_15
REMARK    7  A    between atoms: C_16  and  C_18
REMARK                            x       y       z     vdW  Elec       q    Type
REMARK                         _______ _______ _______ _____ _____    ______ ____
ROOT
ATOM      1  C   UNL     1      47.409   7.893  12.013  0.00  0.00    +0.000 C 
ENDROOT
BRANCH   1   5
ATOM      2  C   UNL     1      49.359   7.574  15.794  0.00  0.00    +0.000 A 
ATOM      3  C   UNL     1      48.423   8.592  15.613  0.00  0.00    +0.000 A 
ATOM      4  C   UNL     1      47.813   8.745  14.366  0.00  0.00    +0.000 A 
ATOM      5  C   UNL     1      48.133   7.871  13.326  0.00  0.00    +0.000 A 
ATOM      6  C   UNL     1      49.132   6.938  13.572  0.00  0.00    +0.000 A 
ATOM      7  N   UNL     1      49.738   6.766  14.769  0.00  0.00    +0.000 NA
BRANCH   2   8
ATOM      8  C   UNL     1      49.837   7.179  17.174  0.00  0.00    +0.000 C 
BRANCH   8  14
ATOM      9  C   UNL     1      49.485   4.681  17.526  0.00  0.00    +0.000 A 
ATOM     10  C   UNL     1      50.052   3.426  17.759  0.00  0.00    +0.000 A 
ATOM     11  C   UNL     1      51.435   3.288  17.830  0.00  0.00    +0.000 A 
ATOM     12  C   UNL     1      52.216   4.412  17.651  0.00  0.00    +0.000 A 
ATOM     13  N   UNL     1      51.712   5.640  17.412  0.00  0.00    +0.000 NA
ATOM     14  C   UNL     1      50.353   5.768  17.349  0.00  0.00    +0.000 A 
BRANCH   9  16
ATOM     15  C   UNL     1      47.458   4.365  16.329  0.00  0.00    +0.000 C 
ATOM     16  O   UNL     1      48.139   4.915  17.453  0.00  0.00    +0.000 OA
ENDBRANCH   9  16
ENDBRANCH   8  14
ENDBRANCH   2   8
ENDBRANCH   1   5
BRANCH   1  17
ATOM     17  N   UNL     1      46.777   6.638  11.711  0.00  0.00    +0.000 N 
ATOM     18  C   UNL     1      45.443   6.448  11.984  0.00  0.00    +0.000 C 
ATOM     19  O   UNL     1      44.737   7.348  12.430  0.00  0.00    +0.000 OA
ATOM     20  H   UNL     1      47.377   5.830  11.577  0.00  0.00    +0.000 HD
BRANCH  18  21
ATOM     21  C   UNL     1      44.888   5.128  11.658  0.00  0.00    +0.000 A 
ATOM     22  C   UNL     1      44.195   4.417  12.630  0.00  0.00    +0.000 A 
ATOM     23  S   UNL     1      43.571   2.932  12.070  0.00  0.00    +0.000 S 
ATOM     24  C   UNL     1      44.256   3.162  10.529  0.00  0.00    +0.000 A 
ATOM     25  N   UNL     1      44.119   2.226   9.556  0.00  0.00    +0.000 NA
ATOM     26  C   UNL     1      44.718   2.512   8.449  0.00  0.00    +0.000 A 
ATOM     27  N   UNL     1      45.439   3.656   8.227  0.00  0.00    +0.000 N 
ATOM     28  C   UNL     1      45.579   4.646   9.169  0.00  0.00    +0.000 A 
ATOM     29  O   UNL     1      46.190   5.681   8.927  0.00  0.00    +0.000 OA
ATOM     30  C   UNL     1      44.934   4.364  10.437  0.00  0.00    +0.000 A 
ATOM     31  H   UNL     1      45.881   3.826   7.334  0.00  0.00    +0.000 HD
ENDBRANCH  18  21
ENDBRANCH   1  17
TORSDOF 6
ENDMDL
MODEL 5
REMARK VINA RESULT:    -6.942      1.305      2.061
REMARK INTER + INTRA:         -10.297
REMARK INTER:                  -8.957
REMARK INTRA:                  -1.339
REMARK UNBOUND:                -0.920
REMARK  Name = 
REMARK  7 active torsions:
REMARK  status: ('A' for Active; 'I' for Inactive)
REMARK    1  A    between atoms: C_1  and  O_2
REMARK    2  A    between atoms: O_2  and  C_3
REMARK    3  A    between atoms: C_8  and  C_9
REMARK    4  A    between atoms: C_9  and  C_10
REMARK    5  A    between atoms: C_13  and  C_14
REMARK    6  A    between atoms: C_14  and  N_15
REMARK    7  A    between atoms: C_16  and  C_18
REMARK                            x       y       z     vdW  Elec       q    Type
REMARK                         _______ _______ _______ _____ _____    ______ ____
ROOT
ATOM      1  C   UNL     1      48.505   8.666  14.552  0.00  0.00    +0.000 C 
ENDROOT
BRANCH   1   5
ATOM      2  C   UNL     1      45.716   7.346  11.606  0.00  0.00    +0.000 A 
ATOM      3  C   UNL     1      46.989   6.776  11.618  0.00  0.00    +0.000 A 
ATOM      4  C   UNL     1      47.932   7.232  12.541  0.00  0.00    +0.000 A 
ATOM      5  C   UNL     1      47.586   8.236  13.447  0.00  0.00    +0.000 A 
ATOM      6  C   UNL     1      46.325   8.801  13.311  0.00  0.00    +0.000 A 
ATOM      7  N   UNL     1      45.391   8.378  12.428  0.00  0.00    +0.000 NA
BRANCH   2   8
ATOM      8  C   UNL     1      44.576   6.712  10.838  0.00  0.00    +0.000 C 
BRANCH   8  14
ATOM      9  C   UNL     1      44.382   4.251  10.212  0.00  0.00    +0.000 A 
ATOM     10  C   UNL     1      43.972   2.965  10.573  0.00  0.00    +0.000 A 
ATOM     11  C   UNL     1      43.428   2.736  11.833  0.00  0.00    +0.000 A 
ATOM     12  C   UNL     1      43.319   3.801  12.705  0.00  0.00    +0.000 A 
ATOM     13  N   UNL     1      43.712   5.055  12.402  0.00  0.00    +0.000 NA
ATOM     14  C   UNL     1      44.241   5.274  11.161  0.00  0.00    +0.000 A 
BRANCH   9  16
ATOM     15  C   UNL     1      45.155   3.493   8.098  0.00  0.00    +0.000 C 
ATOM     16  O   UNL     1      44.915   4.574   8.994  0.00  0.00    +0.000 OA
ENDBRANCH   9  16
ENDBRANCH   8  14
ENDBRANCH   2   8
ENDBRANCH   1   5
BRANCH   1  17
ATOM     17  N   UNL     1      48.562   7.709  15.624  0.00  0.00    +0.000 N 
ATOM     18  C   UNL     1      49.669   6.911  15.784  0.00  0.00    +0.000 C 
ATOM     19  O   UNL     1      50.661   7.024  15.070  0.00  0.00    +0.000 OA
ATOM     20  H   UNL     1      47.685   7.438  16.058  0.00  0.00    +0.000 HD
BRANCH  18  21
ATOM     21  C   UNL     1      49.631   5.952  16.895  0.00  0.00    +0.000 A 
ATOM     22  C   UNL     1      50.527   6.086  17.948  0.00  0.00    +0.000 A 
ATOM     23  S   UNL     1      50.310   4.925  19.178  0.00  0.00    +0.000 S 
ATOM     24  C   UNL     1      49.051   4.169  18.319  0.00  0.00    +0.000 A 
ATOM     25  N   UNL     1      48.431   3.067  18.811  0.00  0.00    +0.000 NA
ATOM     26  C   UNL     1      47.519   2.575  18.041  0.00  0.00    +0.000 A 
ATOM     27  N   UNL     1      47.169   3.092  16.821  0.00  0.00    +0.000 N 
ATOM     28  C   UNL     1      47.745   4.223  16.295  0.00  0.00    +0.000 A 
ATOM     29  O   UNL     1      47.378   4.690  15.223  0.00  0.00    +0.000 OA
ATOM     30  C   UNL     1      48.786   4.805  17.119  0.00  0.00    +0.000 A 
ATOM     31  H   UNL     1      46.441   2.664  16.266  0.00  0.00    +0.000 HD
ENDBRANCH  18  21
ENDBRANCH   1  17
TORSDOF 6
ENDMDL
MODEL 6
REMARK VINA RESULT:    -6.935      3.978      9.464
REMARK INTER + INTRA:         -10.287
REMARK INTER:                  -9.318
REMARK INTRA:                  -0.969
REMARK UNBOUND:                -0.920
REMARK  Name = 
REMARK  7 active torsions:
REMARK  status: ('A' for Active; 'I' for Inactive)
REMARK    1  A    between atoms: C_1  and  O_2
REMARK    2  A    between atoms: O_2  and  C_3
REMARK    3  A    between atoms: C_8  and  C_9
REMARK    4  A    between atoms: C_9  and  C_10
REMARK    5  A    between atoms: C_13  and  C_14
REMARK    6  A    between atoms: C_14  and  N_15
REMARK    7  A    between atoms: C_16  and  C_18
REMARK                            x       y       z     vdW  Elec       q    Type
REMARK                         _______ _______ _______ _____ _____    ______ ____
ROOT
ATOM      1  C   UNL     1      47.165   3.400  16.977  0.00  0.00    +0.000 C 
ENDROOT
BRANCH   1   5
ATOM      2  C   UNL     1      51.322   3.705  17.883  0.00  0.00    +0.000 A 
ATOM      3  C   UNL     1      50.837   2.494  17.388  0.00  0.00    +0.000 A 
ATOM      4  C   UNL     1      49.471   2.358  17.136  0.00  0.00    +0.000 A 
ATOM      5  C   UNL     1      48.613   3.436  17.363  0.00  0.00    +0.000 A 
ATOM      6  C   UNL     1      49.170   4.576  17.930  0.00  0.00    +0.000 A 
ATOM      7  N   UNL     1      50.489   4.735  18.184  0.00  0.00    +0.000 NA
BRANCH   2   8
ATOM      8  C   UNL     1      52.805   4.008  17.907  0.00  0.00    +0.000 C 
BRANCH   8  14
ATOM      9  C   UNL     1      54.435   2.239  18.742  0.00  0.00    +0.000 A 
ATOM     10  C   UNL     1      55.096   1.653  19.824  0.00  0.00    +0.000 A 
ATOM     11  C   UNL     1      54.924   2.166  21.106  0.00  0.00    +0.000 A 
ATOM     12  C   UNL     1      54.103   3.264  21.269  0.00  0.00    +0.000 A 
ATOM     13  N   UNL     1      53.456   3.868  20.252  0.00  0.00    +0.000 NA
ATOM     14  C   UNL     1      53.625   3.356  18.996  0.00  0.00    +0.000 A 
BRANCH   9  16
ATOM     15  C   UNL     1      53.991   0.509  17.176  0.00  0.00    +0.000 C 
ATOM     16  O   UNL     1      54.533   1.797  17.450  0.00  0.00    +0.000 OA
ENDBRANCH   9  16
ENDBRANCH   8  14
ENDBRANCH   2   8
ENDBRANCH   1   5
BRANCH   1  17
ATOM     17  N   UNL     1      46.829   4.405  16.005  0.00  0.00    +0.000 N 
ATOM     18  C   UNL     1      46.988   4.155  14.663  0.00  0.00    +0.000 C 
ATOM     19  O   UNL     1      47.357   3.060  14.246  0.00  0.00    +0.000 OA
ATOM     20  H   UNL     1      46.760   5.365  16.327  0.00  0.00    +0.000 HD
BRANCH  18  21
ATOM     21  C   UNL     1      46.636   5.245  13.746  0.00  0.00    +0.000 A 
ATOM     22  C   UNL     1      47.548   6.268  13.514  0.00  0.00    +0.000 A 
ATOM     23  S   UNL     1      47.003   7.421  12.383  0.00  0.00    +0.000 S 
ATOM     24  C   UNL     1      45.509   6.626  12.208  0.00  0.00    +0.000 A 
ATOM     25  N   UNL     1      44.545   7.118  11.389  0.00  0.00    +0.000 NA
ATOM     26  C   UNL     1      43.450   6.435  11.379  0.00  0.00    +0.000 A 
ATOM     27  N   UNL     1      43.233   5.299  12.114  0.00  0.00    +0.000 N 
ATOM     28  C   UNL     1      44.188   4.745  12.932  0.00  0.00    +0.000 A 
ATOM     29  O   UNL     1      43.984   3.702  13.541  0.00  0.00    +0.000 OA
ATOM     30  C   UNL     1      45.434   5.485  12.987  0.00  0.00    +0.000 A 
ATOM     31  H   UNL     1      42.354   4.805  12.058  0.00  0.00    +0.000 HD
ENDBRANCH  18  21
ENDBRANCH   1  17
TORSDOF 6
ENDMDL
MODEL 7
REMARK VINA RESULT:    -6.834      3.024      7.493
REMARK INTER + INTRA:         -10.151
REMARK INTER:                  -9.018
REMARK INTRA:                  -1.133
REMARK UNBOUND:                -0.920
REMARK  Name = 
REMARK  7 active torsions:
REMARK  status: ('A' for Active; 'I' for Inactive)
REMARK    1  A    between atoms: C_1  and  O_2
REMARK    2  A    between atoms: O_2  and  C_3
REMARK    3  A    between atoms: C_8  and  C_9
REMARK    4  A    between atoms: C_9  and  C_10
REMARK    5  A    between atoms: C_13  and  C_14
REMARK    6  A    between atoms: C_14  and  N_15
REMARK    7  A    between atoms: C_16  and  C_18
REMARK                            x       y       z     vdW  Elec       q    Type
REMARK                         _______ _______ _______ _____ _____    ______ ____
ROOT
ATOM      1  C   UNL     1      47.934   8.334  12.013  0.00  0.00    +0.000 C 
ENDROOT
BRANCH   1   5
ATOM      2  C   UNL     1      49.136   7.302  15.974  0.00  0.00    +0.000 A 
ATOM      3  C   UNL     1      48.421   8.484  15.784  0.00  0.00    +0.000 A 
ATOM      4  C   UNL     1      48.066   8.866  14.489  0.00  0.00    +0.000 A 
ATOM      5  C   UNL     1      48.411   8.054  13.407  0.00  0.00    +0.000 A 
ATOM      6  C   UNL     1      49.189   6.936  13.681  0.00  0.00    +0.000 A 
ATOM      7  N   UNL     1      49.548   6.542  14.925  0.00  0.00    +0.000 NA
BRANCH   2   8
ATOM      8  C   UNL     1      49.302   6.694  17.350  0.00  0.00    +0.000 C 
BRANCH   8  14
ATOM      9  C   UNL     1      49.871   4.237  17.707  0.00  0.00    +0.000 A 
ATOM     10  C   UNL     1      49.425   2.915  17.770  0.00  0.00    +0.000 A 
ATOM     11  C   UNL     1      48.071   2.628  17.626  0.00  0.00    +0.000 A 
ATOM     12  C   UNL     1      47.195   3.678  17.435  0.00  0.00    +0.000 A 
ATOM     13  N   UNL     1      47.580   4.969  17.379  0.00  0.00    +0.000 NA
ATOM     14  C   UNL     1      48.911   5.243  17.516  0.00  0.00    +0.000 A 
BRANCH   9  16
ATOM     15  C   UNL     1      52.147   3.566  17.815  0.00  0.00    +0.000 C 
ATOM     16  O   UNL     1      51.181   4.613  17.824  0.00  0.00    +0.000 OA
ENDBRANCH   9  16
ENDBRANCH   8  14
ENDBRANCH   2   8
ENDBRANCH   1   5
BRANCH   1  17
ATOM     17  N   UNL     1      47.352   7.177  11.388  0.00  0.00    +0.000 N 
ATOM     18  C   UNL     1      45.990   6.995  11.396  0.00  0.00    +0.000 C 
ATOM     19  O   UNL     1      45.226   7.829  11.875  0.00  0.00    +0.000 OA
ATOM     20  H   UNL     1      47.959   6.383  11.211  0.00  0.00    +0.000 HD
BRANCH  18  21
ATOM     21  C   UNL     1      45.487   5.777  10.749  0.00  0.00    +0.000 A 
ATOM     22  C   UNL     1      45.711   5.579   9.392  0.00  0.00    +0.000 A 
ATOM     23  S   UNL     1      45.110   4.092   8.813  0.00  0.00    +0.000 S 
ATOM     24  C   UNL     1      44.480   3.689  10.342  0.00  0.00    +0.000 A 
ATOM     25  N   UNL     1      43.801   2.529  10.535  0.00  0.00    +0.000 NA
ATOM     26  C   UNL     1      43.348   2.367  11.733  0.00  0.00    +0.000 A 
ATOM     27  N   UNL     1      43.517   3.261  12.758  0.00  0.00    +0.000 N 
ATOM     28  C   UNL     1      44.222   4.432  12.619  0.00  0.00    +0.000 A 
ATOM     29  O   UNL     1      44.398   5.191  13.565  0.00  0.00    +0.000 OA
ATOM     30  C   UNL     1      44.741   4.666  11.285  0.00  0.00    +0.000 A 
ATOM     31  H   UNL     1      43.142   3.074  13.677  0.00  0.00    +0.000 HD
ENDBRANCH  18  21
ENDBRANCH   1  17
TORSDOF 6
ENDMDL
MODEL 8
REMARK VINA RESULT:    -6.776      2.266      3.125
REMARK INTER + INTRA:         -10.073
REMARK INTER:                  -9.191
REMARK INTRA:                  -0.882
REMARK UNBOUND:                -0.920
REMARK  Name = 
REMARK  7 active torsions:
REMARK  status: ('A' for Active; 'I' for Inactive)
REMARK    1  A    between atoms: C_1  and  O_2
REMARK    2  A    between atoms: O_2  and  C_3
REMARK    3  A    between atoms: C_8  and  C_9
REMARK    4  A    between atoms: C_9  and  C_10
REMARK    5  A    between atoms: C_13  and  C_14
REMARK    6  A    between atoms: C_14  and  N_15
REMARK    7  A    between atoms: C_16  and  C_18
REMARK                            x       y       z     vdW  Elec       q    Type
REMARK                         _______ _______ _______ _____ _____    ______ ____
ROOT
ATOM      1  C   UNL     1      48.849   7.919  15.821  0.00  0.00    +0.000 C 
ENDROOT
BRANCH   1   5
ATOM      2  C   UNL     1      46.594   6.961  12.329  0.00  0.00    +0.000 A 
ATOM      3  C   UNL     1      47.369   5.960  12.914  0.00  0.00    +0.000 A 
ATOM      4  C   UNL     1      48.155   6.268  14.026  0.00  0.00    +0.000 A 
ATOM      5  C   UNL     1      48.141   7.563  14.547  0.00  0.00    +0.000 A 
ATOM      6  C   UNL     1      47.402   8.513  13.855  0.00  0.00    +0.000 A 
ATOM      7  N   UNL     1      46.631   8.243  12.776  0.00  0.00    +0.000 NA
BRANCH   2   8
ATOM      8  C   UNL     1      45.518   6.633  11.315  0.00  0.00    +0.000 C 
BRANCH   8  14
ATOM      9  C   UNL     1      44.814   4.360  10.409  0.00  0.00    +0.000 A 
ATOM     10  C   UNL     1      44.080   3.185  10.596  0.00  0.00    +0.000 A 
ATOM     11  C   UNL     1      43.376   2.984  11.779  0.00  0.00    +0.000 A 
ATOM     12  C   UNL     1      43.435   3.961  12.752  0.00  0.00    +0.000 A 
ATOM     13  N   UNL     1      44.139   5.103  12.619  0.00  0.00    +0.000 NA
ATOM     14  C   UNL     1      44.824   5.297  11.453  0.00  0.00    +0.000 A 
BRANCH   9  16
ATOM     15  C   UNL     1      45.263   3.839   8.136  0.00  0.00    +0.000 C 
ATOM     16  O   UNL     1      45.525   4.650   9.277  0.00  0.00    +0.000 OA
ENDBRANCH   9  16
ENDBRANCH   8  14
ENDBRANCH   2   8
ENDBRANCH   1   5
BRANCH   1  17
ATOM     17  N   UNL     1      49.879   6.974  16.161  0.00  0.00    +0.000 N 
ATOM     18  C   UNL     1      49.767   6.202  17.293  0.00  0.00    +0.000 C 
ATOM     19  O   UNL     1      48.772   6.243  18.011  0.00  0.00    +0.000 OA
ATOM     20  H   UNL     1      50.790   7.098  15.731  0.00  0.00    +0.000 HD
BRANCH  18  21
ATOM     21  C   UNL     1      50.874   5.279  17.569  0.00  0.00    +0.000 A 
ATOM     22  C   UNL     1      52.100   5.784  17.987  0.00  0.00    +0.000 A 
ATOM     23  S   UNL     1      53.256   4.575  18.317  0.00  0.00    +0.000 S 
ATOM     24  C   UNL     1      52.179   3.341  17.856  0.00  0.00    +0.000 A 
ATOM     25  N   UNL     1      52.558   2.038  17.876  0.00  0.00    +0.000 NA
ATOM     26  C   UNL     1      51.654   1.211  17.468  0.00  0.00    +0.000 A 
ATOM     27  N   UNL     1      50.402   1.572  17.045  0.00  0.00    +0.000 N 
ATOM     28  C   UNL     1      49.962   2.873  17.037  0.00  0.00    +0.000 A 
ATOM     29  O   UNL     1      48.820   3.162  16.699  0.00  0.00    +0.000 OA
ATOM     30  C   UNL     1      50.947   3.843  17.475  0.00  0.00    +0.000 A 
ATOM     31  H   UNL     1      49.736   0.875  16.743  0.00  0.00    +0.000 HD
ENDBRANCH  18  21
ENDBRANCH   1  17
TORSDOF 6
ENDMDL
MODEL 9
REMARK VINA RESULT:    -6.665      3.620      9.290
REMARK INTER + INTRA:          -9.922
REMARK INTER:                  -9.078
REMARK INTRA:                  -0.844
REMARK UNBOUND:                -0.920
REMARK  Name = 
REMARK  7 active torsions:
REMARK  status: ('A' for Active; 'I' for Inactive)
REMARK    1  A    between atoms: C_1  and  O_2
REMARK    2  A    between atoms: O_2  and  C_3
REMARK    3  A    between atoms: C_8  and  C_9
REMARK    4  A    between atoms: C_9  and  C_10
REMARK    5  A    between atoms: C_13  and  C_14
REMARK    6  A    between atoms: C_14  and  N_15
REMARK    7  A    between atoms: C_16  and  C_18
REMARK                            x       y       z     vdW  Elec       q    Type
REMARK                         _______ _______ _______ _____ _____    ______ ____
ROOT
ATOM      1  C   UNL     1      47.698   3.684  16.340  0.00  0.00    +0.000 C 
ENDROOT
BRANCH   1   5
ATOM      2  C   UNL     1      48.473   5.590  20.077  0.00  0.00    +0.000 A 
ATOM      3  C   UNL     1      49.416   4.688  19.582  0.00  0.00    +0.000 A 
ATOM      4  C   UNL     1      49.156   4.015  18.387  0.00  0.00    +0.000 A 
ATOM      5  C   UNL     1      47.969   4.265  17.696  0.00  0.00    +0.000 A 
ATOM      6  C   UNL     1      47.054   5.116  18.300  0.00  0.00    +0.000 A 
ATOM      7  N   UNL     1      47.280   5.783  19.456  0.00  0.00    +0.000 NA
BRANCH   2   8
ATOM      8  C   UNL     1      48.812   6.549  21.197  0.00  0.00    +0.000 C 
BRANCH   8  14
ATOM      9  C   UNL     1      48.518   8.924  20.327  0.00  0.00    +0.000 A 
ATOM     10  C   UNL     1      47.873  10.158  20.444  0.00  0.00    +0.000 A 
ATOM     11  C   UNL     1      46.883  10.338  21.406  0.00  0.00    +0.000 A 
ATOM     12  C   UNL     1      46.556   9.271  22.218  0.00  0.00    +0.000 A 
ATOM     13  N   UNL     1      47.144   8.061  22.132  0.00  0.00    +0.000 NA
ATOM     14  C   UNL     1      48.118   7.893  21.189  0.00  0.00    +0.000 A 
BRANCH   9  16
ATOM     15  C   UNL     1      49.131   8.645  18.049  0.00  0.00    +0.000 C 
ATOM     16  O   UNL     1      49.509   8.659  19.422  0.00  0.00    +0.000 OA
ENDBRANCH   9  16
ENDBRANCH   8  14
ENDBRANCH   2   8
ENDBRANCH   1   5
BRANCH   1  17
ATOM     17  N   UNL     1      47.043   4.617  15.463  0.00  0.00    +0.000 N 
ATOM     18  C   UNL     1      46.757   4.267  14.165  0.00  0.00    +0.000 C 
ATOM     19  O   UNL     1      46.990   3.142  13.729  0.00  0.00    +0.000 OA
ATOM     20  H   UNL     1      47.065   5.599  15.720  0.00  0.00    +0.000 HD
BRANCH  18  21
ATOM     21  C   UNL     1      46.103   5.289  13.338  0.00  0.00    +0.000 A 
ATOM     22  C   UNL     1      46.774   6.471  13.052  0.00  0.00    +0.000 A 
ATOM     23  S   UNL     1      45.895   7.523  12.037  0.00  0.00    +0.000 S 
ATOM     24  C   UNL     1      44.567   6.460  11.994  0.00  0.00    +0.000 A 
ATOM     25  N   UNL     1      43.440   6.776  11.306  0.00  0.00    +0.000 NA
ATOM     26  C   UNL     1      42.498   5.897  11.388  0.00  0.00    +0.000 A 
ATOM     27  N   UNL     1      42.585   4.725  12.093  0.00  0.00    +0.000 N 
ATOM     28  C   UNL     1      43.715   4.347  12.778  0.00  0.00    +0.000 A 
ATOM     29  O   UNL     1      43.782   3.271  13.360  0.00  0.00    +0.000 OA
ATOM     30  C   UNL     1      44.798   5.310  12.727  0.00  0.00    +0.000 A 
ATOM     31  H   UNL     1      41.814   4.073  12.113  0.00  0.00    +0.000 HD
ENDBRANCH  18  21
ENDBRANCH   1  17
TORSDOF 6
ENDMDL
