MODEL 1
REMARK VINA RESULT:    -8.636      0.000      0.000
REMARK INTER + INTRA:         -13.835
REMARK INTER:                 -12.674
REMARK INTRA:                  -1.161
REMARK UNBOUND:                -1.161
REMARK  Name = 
REMARK  8 active torsions:
REMARK  status: ('A' for Active; 'I' for Inactive)
REMARK    1  A    between atoms: C_2  and  C_3
REMARK    2  A    between atoms: C_3  and  C_4
REMARK    3  A    between atoms: C_3  and  N_11
REMARK    4  A    between atoms: C_4  and  C_5
REMARK    5  A    between atoms: N_11  and  C_12
REMARK    6  A    between atoms: C_15  and  C_16
REMARK    7  A    between atoms: C_16  and  N_17
REMARK    8  A    between atoms: C_18  and  C_20
REMARK                            x       y       z     vdW  Elec       q    Type
REMARK                         _______ _______ _______ _____ _____    ______ ____
ROOT
ATOM      1  C   UNL     1      45.070   6.308  11.189  0.00  0.00    +0.000 A 
ATOM      2  C   UNL     1      44.659   7.569  11.633  0.00  0.00    +0.000 A 
ATOM      3  C   UNL     1      45.440   8.328  12.515  0.00  0.00    +0.000 A 
ATOM      4  C   UNL     1      46.659   7.842  12.994  0.00  0.00    +0.000 A 
ATOM      5  C   UNL     1      47.051   6.556  12.611  0.00  0.00    +0.000 A 
ATOM      6  C   UNL     1      46.260   5.799  11.732  0.00  0.00    +0.000 A 
ENDROOT
BRANCH   1   7
ATOM      7  N   UNL     1      44.301   5.496  10.346  0.00  0.00    +0.000 N 
ATOM      8  H   UNL     1      43.305   5.602  10.537  0.00  0.00    +0.000 HD
BRANCH   7   9
ATOM      9  C   UNL     1      44.680   4.078  10.117  0.00  0.00    +0.000 C 
BRANCH   9  11
ATOM     10  N   UNL     1      43.042   2.387  11.597  0.00  0.00    +0.000 NA
ATOM     11  C   UNL     1      43.785   3.154  10.926  0.00  0.00    +0.000 C 
ENDBRANCH   9  11
BRANCH   9  12
ATOM     12  C   UNL     1      44.501   3.712   8.621  0.00  0.00    +0.000 C 
BRANCH  12  13
ATOM     13  C   UNL     1      45.648   2.969   7.961  0.00  0.00    +0.000 A 
ATOM     14  C   UNL     1      45.920   1.642   8.330  0.00  0.00    +0.000 A 
ATOM     15  C   UNL     1      46.899   0.900   7.665  0.00  0.00    +0.000 A 
ATOM     16  C   UNL     1      47.625   1.477   6.628  0.00  0.00    +0.000 A 
ATOM     17  C   UNL     1      47.385   2.802   6.267  0.00  0.00    +0.000 A 
ATOM     18  C   UNL     1      46.401   3.546   6.928  0.00  0.00    +0.000 A 
ENDBRANCH  12  13
ENDBRANCH   9  12
ENDBRANCH   7   9
ENDBRANCH   1   7
BRANCH   4  19
ATOM     19  C   UNL     1      47.501   8.674  13.926  0.00  0.00    +0.000 C 
BRANCH  19  20
ATOM     20  N   UNL     1      47.798   7.975  15.151  0.00  0.00    +0.000 N 
ATOM     21  C   UNL     1      49.064   7.511  15.406  0.00  0.00    +0.000 C 
ATOM     22  O   UNL     1      49.993   7.705  14.626  0.00  0.00    +0.000 OA
ATOM     23  H   UNL     1      47.014   7.622  15.692  0.00  0.00    +0.000 HD
BRANCH  21  24
ATOM     24  C   UNL     1      49.277   6.817  16.684  0.00  0.00    +0.000 A 
ATOM     25  C   UNL     1      50.034   7.427  17.676  0.00  0.00    +0.000 A 
ATOM     26  S   UNL     1      50.178   6.498  19.097  0.00  0.00    +0.000 S 
ATOM     27  C   UNL     1      49.272   5.227  18.425  0.00  0.00    +0.000 A 
ATOM     28  N   UNL     1      49.052   4.080  19.121  0.00  0.00    +0.000 NA
ATOM     29  C   UNL     1      48.374   3.191  18.476  0.00  0.00    +0.000 A 
ATOM     30  N   UNL     1      47.881   3.344  17.210  0.00  0.00    +0.000 N 
ATOM     31  C   UNL     1      48.052   4.497  16.482  0.00  0.00    +0.000 A 
ATOM     32  O   UNL     1      47.561   4.627  15.364  0.00  0.00    +0.000 OA
ATOM     33  C   UNL     1      48.834   5.522  17.144  0.00  0.00    +0.000 A 
ATOM     34  H   UNL     1      47.345   2.613  16.773  0.00  0.00    +0.000 HD
ENDBRANCH  21  24
ENDBRANCH  19  20
ENDBRANCH   4  19
TORSDOF 8
ENDMDL
MODEL 2
REMARK VINA RESULT:    -8.191      1.733      2.089
REMARK INTER + INTRA:         -13.183
REMARK INTER:                 -12.177
REMARK INTRA:                  -1.006
REMARK UNBOUND:                -1.161
REMARK  Name = 
REMARK  8 active torsions:
REMARK  status: ('A' for Active; 'I' for Inactive)
REMARK    1  A    between atoms: C_2  and  C_3
REMARK    2  A    between atoms: C_3  and  C_4
REMARK    3  A    between atoms: C_3  and  N_11
REMARK    4  A    between atoms: C_4  and  C_5
REMARK    5  A    between atoms: N_11  and  C_12
REMARK    6  A    between atoms: C_15  and  C_16
REMARK    7  A    between atoms: C_16  and  N_17
REMARK    8  A    between atoms: C_18  and  C_20
REMARK                            x       y       z     vdW  Elec       q    Type
REMARK                         _______ _______ _______ _____ _____    ______ ____
ROOT
ATOM      1  C   UNL     1      45.239   6.456  11.322  0.00  0.00    +0.000 A 
ATOM      2  C   UNL     1      46.577   6.146  11.582  0.00  0.00    +0.000 A 
ATOM      3  C   UNL     1      47.387   6.981  12.364  0.00  0.00    +0.000 A 
ATOM      4  C   UNL     1      46.883   8.167  12.904  0.00  0.00    +0.000 A 
ATOM      5  C   UNL     1      45.566   8.523  12.597  0.00  0.00    +0.000 A 
ATOM      6  C   UNL     1      44.764   7.684  11.808  0.00  0.00    +0.000 A 
ENDROOT
BRANCH   1   7
ATOM      7  N   UNL     1      44.407   5.676  10.508  0.00  0.00    +0.000 N 
ATOM      8  H   UNL     1      43.428   5.777  10.773  0.00  0.00    +0.000 HD
BRANCH   7   9
ATOM      9  C   UNL     1      44.762   4.267  10.202  0.00  0.00    +0.000 C 
BRANCH   9  11
ATOM     10  N   UNL     1      43.069   2.526  11.558  0.00  0.00    +0.000 NA
ATOM     11  C   UNL     1      43.837   3.315  10.943  0.00  0.00    +0.000 C 
ENDBRANCH   9  11
BRANCH   9  12
ATOM     12  C   UNL     1      44.598   3.991   8.685  0.00  0.00    +0.000 C 
BRANCH  12  13
ATOM     13  C   UNL     1      45.666   3.136   8.030  0.00  0.00    +0.000 A 
ATOM     14  C   UNL     1      45.830   1.800   8.431  0.00  0.00    +0.000 A 
ATOM     15  C   UNL     1      46.732   0.960   7.774  0.00  0.00    +0.000 A 
ATOM     16  C   UNL     1      47.488   1.446   6.711  0.00  0.00    +0.000 A 
ATOM     17  C   UNL     1      47.355   2.776   6.317  0.00  0.00    +0.000 A 
ATOM     18  C   UNL     1      46.450   3.619   6.971  0.00  0.00    +0.000 A 
ENDBRANCH  12  13
ENDBRANCH   9  12
ENDBRANCH   7   9
ENDBRANCH   1   7
BRANCH   4  19
ATOM     19  C   UNL     1      47.755   9.048  13.761  0.00  0.00    +0.000 C 
BRANCH  19  20
ATOM     20  N   UNL     1      47.563   8.790  15.166  0.00  0.00    +0.000 N 
ATOM     21  C   UNL     1      48.328   9.430  16.109  0.00  0.00    +0.000 C 
ATOM     22  O   UNL     1      49.172  10.267  15.798  0.00  0.00    +0.000 OA
ATOM     23  H   UNL     1      47.036   7.961  15.423  0.00  0.00    +0.000 HD
BRANCH  21  24
ATOM     24  C   UNL     1      48.056   9.112  17.518  0.00  0.00    +0.000 A 
ATOM     25  C   UNL     1      47.736  10.136  18.400  0.00  0.00    +0.000 A 
ATOM     26  S   UNL     1      47.441   9.602  19.992  0.00  0.00    +0.000 S 
ATOM     27  C   UNL     1      47.773   7.989  19.571  0.00  0.00    +0.000 A 
ATOM     28  N   UNL     1      47.740   7.001  20.505  0.00  0.00    +0.000 NA
ATOM     29  C   UNL     1      48.042   5.832  20.051  0.00  0.00    +0.000 A 
ATOM     30  N   UNL     1      48.358   5.552  18.750  0.00  0.00    +0.000 N 
ATOM     31  C   UNL     1      48.373   6.512  17.767  0.00  0.00    +0.000 A 
ATOM     32  O   UNL     1      48.616   6.227  16.597  0.00  0.00    +0.000 OA
ATOM     33  C   UNL     1      48.071   7.854  18.225  0.00  0.00    +0.000 A 
ATOM     34  H   UNL     1      48.568   4.611  18.461  0.00  0.00    +0.000 HD
ENDBRANCH  21  24
ENDBRANCH  19  20
ENDBRANCH   4  19
TORSDOF 8
ENDMDL
MODEL 3
REMARK VINA RESULT:    -7.952      1.531      2.102
REMARK INTER + INTRA:         -12.831
REMARK INTER:                 -11.743
REMARK INTRA:                  -1.088
REMARK UNBOUND:                -1.161
REMARK  Name = 
REMARK  8 active torsions:
REMARK  status: ('A' for Active; 'I' for Inactive)
REMARK    1  A    between atoms: C_2  and  C_3
REMARK    2  A    between atoms: C_3  and  C_4
REMARK    3  A    between atoms: C_3  and  N_11
REMARK    4  A    between atoms: C_4  and  C_5
REMARK    5  A    between atoms: N_11  and  C_12
REMARK    6  A    between atoms: C_15  and  C_16
REMARK    7  A    between atoms: C_16  and  N_17
REMARK    8  A    between atoms: C_18  and  C_20
REMARK                            x       y       z     vdW  Elec       q    Type
REMARK                         _______ _______ _______ _____ _____    ______ ____
ROOT
ATOM      1  C   UNL     1      45.402   6.315  11.405  0.00  0.00    +0.000 A 
ATOM      2  C   UNL     1      46.585   5.798  11.941  0.00  0.00    +0.000 A 
ATOM      3  C   UNL     1      47.349   6.518  12.868  0.00  0.00    +0.000 A 
ATOM      4  C   UNL     1      46.957   7.794  13.282  0.00  0.00    +0.000 A 
ATOM      5  C   UNL     1      45.812   8.351  12.705  0.00  0.00    +0.000 A 
ATOM      6  C   UNL     1      45.056   7.625  11.772  0.00  0.00    +0.000 A 
ENDROOT
BRANCH   1   7
ATOM      7  N   UNL     1      44.632   5.649  10.441  0.00  0.00    +0.000 N 
ATOM      8  H   UNL     1      43.645   5.889  10.525  0.00  0.00    +0.000 HD
BRANCH   7   9
ATOM      9  C   UNL     1      44.838   4.202  10.184  0.00  0.00    +0.000 C 
BRANCH   9  11
ATOM     10  N   UNL     1      43.021   2.690  11.650  0.00  0.00    +0.000 NA
ATOM     11  C   UNL     1      43.845   3.376  10.985  0.00  0.00    +0.000 C 
ENDBRANCH   9  11
BRANCH   9  12
ATOM     12  C   UNL     1      44.604   3.887   8.683  0.00  0.00    +0.000 C 
BRANCH  12  13
ATOM     13  C   UNL     1      45.651   3.029   7.998  0.00  0.00    +0.000 A 
ATOM     14  C   UNL     1      45.863   1.711   8.433  0.00  0.00    +0.000 A 
ATOM     15  C   UNL     1      46.744   0.865   7.753  0.00  0.00    +0.000 A 
ATOM     16  C   UNL     1      47.430   1.328   6.635  0.00  0.00    +0.000 A 
ATOM     17  C   UNL     1      47.250   2.642   6.206  0.00  0.00    +0.000 A 
ATOM     18  C   UNL     1      46.366   3.490   6.882  0.00  0.00    +0.000 A 
ENDBRANCH  12  13
ENDBRANCH   9  12
ENDBRANCH   7   9
ENDBRANCH   1   7
BRANCH   4  19
ATOM     19  C   UNL     1      47.774   8.554  14.296  0.00  0.00    +0.000 C 
BRANCH  19  20
ATOM     20  N   UNL     1      47.982   7.788  15.500  0.00  0.00    +0.000 N 
ATOM     21  C   UNL     1      49.249   7.452  15.909  0.00  0.00    +0.000 C 
ATOM     22  O   UNL     1      50.246   7.820  15.293  0.00  0.00    +0.000 OA
ATOM     23  H   UNL     1      47.181   7.302  15.891  0.00  0.00    +0.000 HD
BRANCH  21  24
ATOM     24  C   UNL     1      49.366   6.679  17.153  0.00  0.00    +0.000 A 
ATOM     25  C   UNL     1      50.122   5.514  17.164  0.00  0.00    +0.000 A 
ATOM     26  S   UNL     1      50.165   4.740  18.682  0.00  0.00    +0.000 S 
ATOM     27  C   UNL     1      49.141   5.908  19.369  0.00  0.00    +0.000 A 
ATOM     28  N   UNL     1      48.738   5.812  20.664  0.00  0.00    +0.000 NA
ATOM     29  C   UNL     1      47.938   6.751  21.042  0.00  0.00    +0.000 A 
ATOM     30  N   UNL     1      47.515   7.787  20.256  0.00  0.00    +0.000 N 
ATOM     31  C   UNL     1      47.920   7.942  18.952  0.00  0.00    +0.000 A 
ATOM     32  O   UNL     1      47.562   8.905  18.280  0.00  0.00    +0.000 OA
ATOM     33  C   UNL     1      48.797   6.896  18.461  0.00  0.00    +0.000 A 
ATOM     34  H   UNL     1      46.902   8.496  20.621  0.00  0.00    +0.000 HD
ENDBRANCH  21  24
ENDBRANCH  19  20
ENDBRANCH   4  19
TORSDOF 8
ENDMDL
MODEL 4
REMARK VINA RESULT:    -7.035      4.219      5.589
REMARK INTER + INTRA:         -11.485
REMARK INTER:                 -10.287
REMARK INTRA:                  -1.198
REMARK UNBOUND:                -1.161
REMARK  Name = 
REMARK  8 active torsions:
REMARK  status: ('A' for Active; 'I' for Inactive)
REMARK    1  A    between atoms: C_2  and  C_3
REMARK    2  A    between atoms: C_3  and  C_4
REMARK    3  A    between atoms: C_3  and  N_11
REMARK    4  A    between atoms: C_4  and  C_5
REMARK    5  A    between atoms: N_11  and  C_12
REMARK    6  A    between atoms: C_15  and  C_16
REMARK    7  A    between atoms: C_16  and  N_17
REMARK    8  A    between atoms: C_18  and  C_20
REMARK                            x       y       z     vdW  Elec       q    Type
REMARK                         _______ _______ _______ _____ _____    ______ ____
ROOT
ATOM      1  C   UNL     1      45.269   6.801  11.471  0.00  0.00    +0.000 A 
ATOM      2  C   UNL     1      46.630   6.531  11.641  0.00  0.00    +0.000 A 
ATOM      3  C   UNL     1      47.535   7.526  12.032  0.00  0.00    +0.000 A 
ATOM      4  C   UNL     1      47.105   8.837  12.254  0.00  0.00    +0.000 A 
ATOM      5  C   UNL     1      45.760   9.138  12.023  0.00  0.00    +0.000 A 
ATOM      6  C   UNL     1      44.861   8.135  11.626  0.00  0.00    +0.000 A 
ENDROOT
BRANCH   1   7
ATOM      7  N   UNL     1      44.338   5.848  11.037  0.00  0.00    +0.000 N 
ATOM      8  H   UNL     1      43.480   5.891  11.586  0.00  0.00    +0.000 HD
BRANCH   7   9
ATOM      9  C   UNL     1      44.762   4.451  10.767  0.00  0.00    +0.000 C 
BRANCH   9  11
ATOM     10  N   UNL     1      43.565   2.710  12.576  0.00  0.00    +0.000 NA
ATOM     11  C   UNL     1      44.108   3.499  11.756  0.00  0.00    +0.000 C 
ENDBRANCH   9  11
BRANCH   9  12
ATOM     12  C   UNL     1      44.321   4.023   9.344  0.00  0.00    +0.000 C 
BRANCH  12  13
ATOM     13  C   UNL     1      45.339   3.258   8.518  0.00  0.00    +0.000 A 
ATOM     14  C   UNL     1      45.534   1.888   8.751  0.00  0.00    +0.000 A 
ATOM     15  C   UNL     1      46.386   1.137   7.936  0.00  0.00    +0.000 A 
ATOM     16  C   UNL     1      47.059   1.748   6.883  0.00  0.00    +0.000 A 
ATOM     17  C   UNL     1      46.896   3.113   6.655  0.00  0.00    +0.000 A 
ATOM     18  C   UNL     1      46.040   3.867   7.467  0.00  0.00    +0.000 A 
ENDBRANCH  12  13
ENDBRANCH   9  12
ENDBRANCH   7   9
ENDBRANCH   1   7
BRANCH   4  19
ATOM     19  C   UNL     1      48.082   9.897  12.694  0.00  0.00    +0.000 C 
BRANCH  19  20
ATOM     20  N   UNL     1      49.251   9.935  11.850  0.00  0.00    +0.000 N 
ATOM     21  C   UNL     1      50.487  10.223  12.373  0.00  0.00    +0.000 C 
ATOM     22  O   UNL     1      50.650  10.421  13.574  0.00  0.00    +0.000 OA
ATOM     23  H   UNL     1      49.103   9.989  10.846  0.00  0.00    +0.000 HD
BRANCH  21  24
ATOM     24  C   UNL     1      51.622  10.231  11.440  0.00  0.00    +0.000 A 
ATOM     25  C   UNL     1      52.372  11.389  11.286  0.00  0.00    +0.000 A 
ATOM     26  S   UNL     1      53.656  11.231  10.176  0.00  0.00    +0.000 S 
ATOM     27  C   UNL     1      53.231   9.623   9.828  0.00  0.00    +0.000 A 
ATOM     28  N   UNL     1      53.918   8.901   8.903  0.00  0.00    +0.000 NA
ATOM     29  C   UNL     1      53.467   7.707   8.720  0.00  0.00    +0.000 A 
ATOM     30  N   UNL     1      52.404   7.158   9.382  0.00  0.00    +0.000 N 
ATOM     31  C   UNL     1      51.700   7.838  10.347  0.00  0.00    +0.000 A 
ATOM     32  O   UNL     1      50.778   7.308  10.961  0.00  0.00    +0.000 OA
ATOM     33  C   UNL     1      52.143   9.200  10.574  0.00  0.00    +0.000 A 
ATOM     34  H   UNL     1      52.115   6.211   9.201  0.00  0.00    +0.000 HD
ENDBRANCH  21  24
ENDBRANCH  19  20
ENDBRANCH   4  19
TORSDOF 8
ENDMDL
MODEL 5
REMARK VINA RESULT:    -7.021      3.120      8.475
REMARK INTER + INTRA:         -11.465
REMARK INTER:                  -9.768
REMARK INTRA:                  -1.697
REMARK UNBOUND:                -1.161
REMARK  Name = 
REMARK  8 active torsions:
REMARK  status: ('A' for Active; 'I' for Inactive)
REMARK    1  A    between atoms: C_2  and  C_3
REMARK    2  A    between atoms: C_3  and  C_4
REMARK    3  A    between atoms: C_3  and  N_11
REMARK    4  A    between atoms: C_4  and  C_5
REMARK    5  A    between atoms: N_11  and  C_12
REMARK    6  A    between atoms: C_15  and  C_16
REMARK    7  A    between atoms: C_16  and  N_17
REMARK    8  A    between atoms: C_18  and  C_20
REMARK                            x       y       z     vdW  Elec       q    Type
REMARK                         _______ _______ _______ _____ _____    ______ ____
ROOT
ATOM      1  C   UNL     1      49.264   8.259  16.136  0.00  0.00    +0.000 A 
ATOM      2  C   UNL     1      48.175   8.985  15.646  0.00  0.00    +0.000 A 
ATOM      3  C   UNL     1      47.735   8.849  14.323  0.00  0.00    +0.000 A 
ATOM      4  C   UNL     1      48.385   7.986  13.437  0.00  0.00    +0.000 A 
ATOM      5  C   UNL     1      49.516   7.304  13.893  0.00  0.00    +0.000 A 
ATOM      6  C   UNL     1      49.953   7.450  15.219  0.00  0.00    +0.000 A 
ENDROOT
BRANCH   1   7
ATOM      7  N   UNL     1      49.767   8.398  17.437  0.00  0.00    +0.000 N 
ATOM      8  H   UNL     1      50.588   9.003  17.454  0.00  0.00    +0.000 HD
BRANCH   7   9
ATOM      9  C   UNL     1      49.927   7.210  18.312  0.00  0.00    +0.000 C 
BRANCH   9  11
ATOM     10  N   UNL     1      50.404   7.997  20.937  0.00  0.00    +0.000 NA
ATOM     11  C   UNL     1      50.188   7.640  19.746  0.00  0.00    +0.000 C 
ENDBRANCH   9  11
BRANCH   9  12
ATOM     12  C   UNL     1      48.629   6.362  18.306  0.00  0.00    +0.000 C 
BRANCH  12  13
ATOM     13  C   UNL     1      48.715   4.990  17.664  0.00  0.00    +0.000 A 
ATOM     14  C   UNL     1      49.837   4.181  17.903  0.00  0.00    +0.000 A 
ATOM     15  C   UNL     1      49.895   2.874  17.412  0.00  0.00    +0.000 A 
ATOM     16  C   UNL     1      48.835   2.362  16.670  0.00  0.00    +0.000 A 
ATOM     17  C   UNL     1      47.726   3.161  16.403  0.00  0.00    +0.000 A 
ATOM     18  C   UNL     1      47.663   4.469  16.896  0.00  0.00    +0.000 A 
ENDBRANCH  12  13
ENDBRANCH   9  12
ENDBRANCH   7   9
ENDBRANCH   1   7
BRANCH   4  19
ATOM     19  C   UNL     1      47.892   7.831  12.022  0.00  0.00    +0.000 C 
BRANCH  19  20
ATOM     20  N   UNL     1      47.128   6.621  11.848  0.00  0.00    +0.000 N 
ATOM     21  C   UNL     1      45.756   6.648  11.859  0.00  0.00    +0.000 C 
ATOM     22  O   UNL     1      45.131   7.699  11.976  0.00  0.00    +0.000 OA
ATOM     23  H   UNL     1      47.615   5.738  11.967  0.00  0.00    +0.000 HD
BRANCH  21  24
ATOM     24  C   UNL     1      45.061   5.368  11.666  0.00  0.00    +0.000 A 
ATOM     25  C   UNL     1      44.351   4.810  12.721  0.00  0.00    +0.000 A 
ATOM     26  S   UNL     1      43.596   3.332  12.333  0.00  0.00    +0.000 S 
ATOM     27  C   UNL     1      44.225   3.360  10.755  0.00  0.00    +0.000 A 
ATOM     28  N   UNL     1      43.987   2.341   9.888  0.00  0.00    +0.000 NA
ATOM     29  C   UNL     1      44.551   2.482   8.736  0.00  0.00    +0.000 A 
ATOM     30  N   UNL     1      45.317   3.551   8.362  0.00  0.00    +0.000 N 
ATOM     31  C   UNL     1      45.558   4.618   9.193  0.00  0.00    +0.000 A 
ATOM     32  O   UNL     1      46.211   5.588   8.818  0.00  0.00    +0.000 OA
ATOM     33  C   UNL     1      44.974   4.501  10.515  0.00  0.00    +0.000 A 
ATOM     34  H   UNL     1      45.714   3.604   7.439  0.00  0.00    +0.000 HD
ENDBRANCH  21  24
ENDBRANCH  19  20
ENDBRANCH   4  19
TORSDOF 8
ENDMDL
MODEL 6
REMARK VINA RESULT:    -6.971      3.158      5.595
REMARK INTER + INTRA:         -11.391
REMARK INTER:                  -9.762
REMARK INTRA:                  -1.629
REMARK UNBOUND:                -1.161
REMARK  Name = 
REMARK  8 active torsions:
REMARK  status: ('A' for Active; 'I' for Inactive)
REMARK    1  A    between atoms: C_2  and  C_3
REMARK    2  A    between atoms: C_3  and  C_4
REMARK    3  A    between atoms: C_3  and  N_11
REMARK    4  A    between atoms: C_4  and  C_5
REMARK    5  A    between atoms: N_11  and  C_12
REMARK    6  A    between atoms: C_15  and  C_16
REMARK    7  A    between atoms: C_16  and  N_17
REMARK    8  A    between atoms: C_18  and  C_20
REMARK                            x       y       z     vdW  Elec       q    Type
REMARK                         _______ _______ _______ _____ _____    ______ ____
ROOT
ATOM      1  C   UNL     1      47.487   5.797  13.858  0.00  0.00    +0.000 A 
ATOM      2  C   UNL     1      48.083   6.254  15.037  0.00  0.00    +0.000 A 
ATOM      3  C   UNL     1      48.210   5.432  16.164  0.00  0.00    +0.000 A 
ATOM      4  C   UNL     1      47.728   4.120  16.152  0.00  0.00    +0.000 A 
ATOM      5  C   UNL     1      47.069   3.671  15.003  0.00  0.00    +0.000 A 
ATOM      6  C   UNL     1      46.942   4.503  13.881  0.00  0.00    +0.000 A 
ENDROOT
BRANCH   1   7
ATOM      7  N   UNL     1      47.298   6.599  12.724  0.00  0.00    +0.000 N 
ATOM      8  H   UNL     1      48.176   7.015  12.414  0.00  0.00    +0.000 HD
BRANCH   7   9
ATOM      9  C   UNL     1      46.169   7.561  12.664  0.00  0.00    +0.000 C 
BRANCH   9  11
ATOM     10  N   UNL     1      47.108  10.122  12.122  0.00  0.00    +0.000 NA
ATOM     11  C   UNL     1      46.682   8.961  12.368  0.00  0.00    +0.000 C 
ENDBRANCH   9  11
BRANCH   9  12
ATOM     12  C   UNL     1      45.192   7.170  11.524  0.00  0.00    +0.000 C 
BRANCH  12  13
ATOM     13  C   UNL     1      44.531   5.809  11.632  0.00  0.00    +0.000 A 
ATOM     14  C   UNL     1      44.782   4.835  10.652  0.00  0.00    +0.000 A 
ATOM     15  C   UNL     1      44.272   3.541  10.782  0.00  0.00    +0.000 A 
ATOM     16  C   UNL     1      43.499   3.205  11.889  0.00  0.00    +0.000 A 
ATOM     17  C   UNL     1      43.220   4.167  12.857  0.00  0.00    +0.000 A 
ATOM     18  C   UNL     1      43.732   5.464  12.732  0.00  0.00    +0.000 A 
ENDBRANCH  12  13
ENDBRANCH   9  12
ENDBRANCH   7   9
ENDBRANCH   1   7
BRANCH   4  19
ATOM     19  C   UNL     1      47.886   3.236  17.362  0.00  0.00    +0.000 C 
BRANCH  19  20
ATOM     20  N   UNL     1      49.271   3.062  17.723  0.00  0.00    +0.000 N 
ATOM     21  C   UNL     1      50.082   2.216  17.009  0.00  0.00    +0.000 C 
ATOM     22  O   UNL     1      49.674   1.610  16.021  0.00  0.00    +0.000 OA
ATOM     23  H   UNL     1      49.559   3.378  18.644  0.00  0.00    +0.000 HD
BRANCH  21  24
ATOM     24  C   UNL     1      51.482   2.108  17.443  0.00  0.00    +0.000 A 
ATOM     25  C   UNL     1      52.036   0.853  17.658  0.00  0.00    +0.000 A 
ATOM     26  S   UNL     1      53.668   0.898  18.148  0.00  0.00    +0.000 S 
ATOM     27  C   UNL     1      53.682   2.598  18.133  0.00  0.00    +0.000 A 
ATOM     28  N   UNL     1      54.792   3.291  18.502  0.00  0.00    +0.000 NA
ATOM     29  C   UNL     1      54.650   4.573  18.472  0.00  0.00    +0.000 A 
ATOM     30  N   UNL     1      53.511   5.229  18.093  0.00  0.00    +0.000 N 
ATOM     31  C   UNL     1      52.377   4.570  17.683  0.00  0.00    +0.000 A 
ATOM     32  O   UNL     1      51.382   5.182  17.304  0.00  0.00    +0.000 OA
ATOM     33  C   UNL     1      52.467   3.124  17.726  0.00  0.00    +0.000 A 
ATOM     34  H   UNL     1      53.475   6.235  18.077  0.00  0.00    +0.000 HD
ENDBRANCH  21  24
ENDBRANCH  19  20
ENDBRANCH   4  19
TORSDOF 8
ENDMDL
MODEL 7
REMARK VINA RESULT:    -6.733      3.458      8.499
REMARK INTER + INTRA:         -11.042
REMARK INTER:                  -9.447
REMARK INTRA:                  -1.596
REMARK UNBOUND:                -1.161
REMARK  Name = 
REMARK  8 active torsions:
REMARK  status: ('A' for Active; 'I' for Inactive)
REMARK    1  A    between atoms: C_2  and  C_3
REMARK    2  A    between atoms: C_3  and  C_4
REMARK    3  A    between atoms: C_3  and  N_11
REMARK    4  A    between atoms: C_4  and  C_5
REMARK    5  A    between atoms: N_11  and  C_12
REMARK    6  A    between atoms: C_15  and  C_16
REMARK    7  A    between atoms: C_16  and  N_17
REMARK    8  A    between atoms: C_18  and  C_20
REMARK                            x       y       z     vdW  Elec       q    Type
REMARK                         _______ _______ _______ _____ _____    ______ ____
ROOT
ATOM      1  C   UNL     1      50.378   7.069  15.790  0.00  0.00    +0.000 A 
ATOM      2  C   UNL     1      51.033   7.745  14.755  0.00  0.00    +0.000 A 
ATOM      3  C   UNL     1      50.380   8.066  13.558  0.00  0.00    +0.000 A 
ATOM      4  C   UNL     1      49.045   7.708  13.351  0.00  0.00    +0.000 A 
ATOM      5  C   UNL     1      48.398   6.975  14.349  0.00  0.00    +0.000 A 
ATOM      6  C   UNL     1      49.061   6.652  15.543  0.00  0.00    +0.000 A 
ENDROOT
BRANCH   1   7
ATOM      7  N   UNL     1      51.005   6.687  16.983  0.00  0.00    +0.000 N 
ATOM      8  H   UNL     1      51.426   7.488  17.454  0.00  0.00    +0.000 HD
BRANCH   7   9
ATOM      9  C   UNL     1      51.883   5.490  17.021  0.00  0.00    +0.000 C 
BRANCH   9  11
ATOM     10  N   UNL     1      54.476   6.212  17.719  0.00  0.00    +0.000 NA
ATOM     11  C   UNL     1      53.300   5.884  17.402  0.00  0.00    +0.000 C 
ENDBRANCH   9  11
BRANCH   9  12
ATOM     12  C   UNL     1      51.373   4.486  18.088  0.00  0.00    +0.000 C 
BRANCH  12  13
ATOM     13  C   UNL     1      49.984   3.913  17.875  0.00  0.00    +0.000 A 
ATOM     14  C   UNL     1      48.883   4.505  18.513  0.00  0.00    +0.000 A 
ATOM     15  C   UNL     1      47.583   4.066  18.252  0.00  0.00    +0.000 A 
ATOM     16  C   UNL     1      47.367   3.024  17.356  0.00  0.00    +0.000 A 
ATOM     17  C   UNL     1      48.452   2.409  16.733  0.00  0.00    +0.000 A 
ATOM     18  C   UNL     1      49.755   2.850  16.990  0.00  0.00    +0.000 A 
ENDBRANCH  12  13
ENDBRANCH   9  12
ENDBRANCH   7   9
ENDBRANCH   1   7
BRANCH   4  19
ATOM     19  C   UNL     1      48.345   8.077  12.068  0.00  0.00    +0.000 C 
BRANCH  19  20
ATOM     20  N   UNL     1      47.659   6.949  11.488  0.00  0.00    +0.000 N 
ATOM     21  C   UNL     1      46.288   6.899  11.460  0.00  0.00    +0.000 C 
ATOM     22  O   UNL     1      45.599   7.821  11.888  0.00  0.00    +0.000 OA
ATOM     23  H   UNL     1      48.198   6.102  11.332  0.00  0.00    +0.000 HD
BRANCH  21  24
ATOM     24  C   UNL     1      45.675   5.715  10.841  0.00  0.00    +0.000 A 
ATOM     25  C   UNL     1      45.806   5.514   9.473  0.00  0.00    +0.000 A 
ATOM     26  S   UNL     1      45.047   4.094   8.913  0.00  0.00    +0.000 S 
ATOM     27  C   UNL     1      44.479   3.718  10.470  0.00  0.00    +0.000 A 
ATOM     28  N   UNL     1      43.704   2.622  10.687  0.00  0.00    +0.000 NA
ATOM     29  C   UNL     1      43.321   2.477  11.910  0.00  0.00    +0.000 A 
ATOM     30  N   UNL     1      43.649   3.313  12.941  0.00  0.00    +0.000 N 
ATOM     31  C   UNL     1      44.454   4.415  12.775  0.00  0.00    +0.000 A 
ATOM     32  O   UNL     1      44.772   5.124  13.725  0.00  0.00    +0.000 OA
ATOM     33  C   UNL     1      44.892   4.646  11.412  0.00  0.00    +0.000 A 
ATOM     34  H   UNL     1      43.328   3.131  13.877  0.00  0.00    +0.000 HD
ENDBRANCH  21  24
ENDBRANCH  19  20
ENDBRANCH   4  19
TORSDOF 8
ENDMDL
MODEL 8
REMARK VINA RESULT:    -6.575      3.546      9.002
REMARK INTER + INTRA:         -10.810
REMARK INTER:                  -9.686
REMARK INTRA:                  -1.124
REMARK UNBOUND:                -1.161
REMARK  Name = 
REMARK  8 active torsions:
REMARK  status: ('A' for Active; 'I' for Inactive)
REMARK    1  A    between atoms: C_2  and  C_3
REMARK    2  A    between atoms: C_3  and  C_4
REMARK    3  A    between atoms: C_3  and  N_11
REMARK    4  A    between atoms: C_4  and  C_5
REMARK    5  A    between atoms: N_11  and  C_12
REMARK    6  A    between atoms: C_15  and  C_16
REMARK    7  A    between atoms: C_16  and  N_17
REMARK    8  A    between atoms: C_18  and  C_20
REMARK                            x       y       z     vdW  Elec       q    Type
REMARK                         _______ _______ _______ _____ _____    ______ ____
ROOT
ATOM      1  C   UNL     1      50.258   7.385  15.653  0.00  0.00    +0.000 A 
ATOM      2  C   UNL     1      50.704   8.056  14.510  0.00  0.00    +0.000 A 
ATOM      3  C   UNL     1      49.915   8.150  13.356  0.00  0.00    +0.000 A 
ATOM      4  C   UNL     1      48.649   7.560  13.304  0.00  0.00    +0.000 A 
ATOM      5  C   UNL     1      48.216   6.830  14.415  0.00  0.00    +0.000 A 
ATOM      6  C   UNL     1      49.016   6.736  15.564  0.00  0.00    +0.000 A 
ENDROOT
BRANCH   1   7
ATOM      7  N   UNL     1      51.031   7.226  16.810  0.00  0.00    +0.000 N 
ATOM      8  H   UNL     1      51.459   8.108  17.093  0.00  0.00    +0.000 HD
BRANCH   7   9
ATOM      9  C   UNL     1      51.969   6.082  16.936  0.00  0.00    +0.000 C 
BRANCH   9  11
ATOM     10  N   UNL     1      54.577   6.997  17.249  0.00  0.00    +0.000 NA
ATOM     11  C   UNL     1      53.394   6.582  17.107  0.00  0.00    +0.000 C 
ENDBRANCH   9  11
BRANCH   9  12
ATOM     12  C   UNL     1      51.617   5.237  18.188  0.00  0.00    +0.000 C 
BRANCH  12  13
ATOM     13  C   UNL     1      51.741   3.731  18.049  0.00  0.00    +0.000 A 
ATOM     14  C   UNL     1      50.673   2.992  17.516  0.00  0.00    +0.000 A 
ATOM     15  C   UNL     1      50.798   1.621  17.279  0.00  0.00    +0.000 A 
ATOM     16  C   UNL     1      51.991   0.969  17.577  0.00  0.00    +0.000 A 
ATOM     17  C   UNL     1      53.052   1.684  18.131  0.00  0.00    +0.000 A 
ATOM     18  C   UNL     1      52.930   3.059  18.366  0.00  0.00    +0.000 A 
ENDBRANCH  12  13
ENDBRANCH   9  12
ENDBRANCH   7   9
ENDBRANCH   1   7
BRANCH   4  19
ATOM     19  C   UNL     1      47.799   7.684  12.066  0.00  0.00    +0.000 C 
BRANCH  19  20
ATOM     20  N   UNL     1      47.057   6.477  11.801  0.00  0.00    +0.000 N 
ATOM     21  C   UNL     1      45.706   6.416  12.034  0.00  0.00    +0.000 C 
ATOM     22  O   UNL     1      45.075   7.391  12.437  0.00  0.00    +0.000 OA
ATOM     23  H   UNL     1      47.586   5.618  11.680  0.00  0.00    +0.000 HD
BRANCH  21  24
ATOM     24  C   UNL     1      45.031   5.148  11.727  0.00  0.00    +0.000 A 
ATOM     25  C   UNL     1      44.319   4.493  12.724  0.00  0.00    +0.000 A 
ATOM     26  S   UNL     1      43.589   3.043  12.205  0.00  0.00    +0.000 S 
ATOM     27  C   UNL     1      44.232   3.214  10.641  0.00  0.00    +0.000 A 
ATOM     28  N   UNL     1      44.017   2.268   9.689  0.00  0.00    +0.000 NA
ATOM     29  C   UNL     1      44.589   2.513   8.559  0.00  0.00    +0.000 A 
ATOM     30  N   UNL     1      45.343   3.621   8.284  0.00  0.00    +0.000 N 
ATOM     31  C   UNL     1      45.561   4.617   9.205  0.00  0.00    +0.000 A 
ATOM     32  O   UNL     1      46.204   5.623   8.920  0.00  0.00    +0.000 OA
ATOM     33  C   UNL     1      44.967   4.381  10.507  0.00  0.00    +0.000 A 
ATOM     34  H   UNL     1      45.748   3.757   7.373  0.00  0.00    +0.000 HD
ENDBRANCH  21  24
ENDBRANCH  19  20
ENDBRANCH   4  19
TORSDOF 8
ENDMDL
MODEL 9
REMARK VINA RESULT:    -6.546      2.571      3.515
REMARK INTER + INTRA:         -10.768
REMARK INTER:                  -9.826
REMARK INTRA:                  -0.942
REMARK UNBOUND:                -1.161
REMARK  Name = 
REMARK  8 active torsions:
REMARK  status: ('A' for Active; 'I' for Inactive)
REMARK    1  A    between atoms: C_2  and  C_3
REMARK    2  A    between atoms: C_3  and  C_4
REMARK    3  A    between atoms: C_3  and  N_11
REMARK    4  A    between atoms: C_4  and  C_5
REMARK    5  A    between atoms: N_11  and  C_12
REMARK    6  A    between atoms: C_15  and  C_16
REMARK    7  A    between atoms: C_16  and  N_17
REMARK    8  A    between atoms: C_18  and  C_20
REMARK                            x       y       z     vdW  Elec       q    Type
REMARK                         _______ _______ _______ _____ _____    ______ ____
ROOT
ATOM      1  C   UNL     1      47.220   7.111  13.191  0.00  0.00    +0.000 A 
ATOM      2  C   UNL     1      47.662   6.014  13.936  0.00  0.00    +0.000 A 
ATOM      3  C   UNL     1      48.419   6.174  15.104  0.00  0.00    +0.000 A 
ATOM      4  C   UNL     1      48.771   7.447  15.560  0.00  0.00    +0.000 A 
ATOM      5  C   UNL     1      48.394   8.551  14.790  0.00  0.00    +0.000 A 
ATOM      6  C   UNL     1      47.641   8.381  13.618  0.00  0.00    +0.000 A 
ENDROOT
BRANCH   1   7
ATOM      7  N   UNL     1      46.502   6.996  11.993  0.00  0.00    +0.000 N 
ATOM      8  H   UNL     1      45.928   7.822  11.825  0.00  0.00    +0.000 HD
BRANCH   7   9
ATOM      9  C   UNL     1      45.786   5.738  11.664  0.00  0.00    +0.000 C 
BRANCH   9  11
ATOM     10  N   UNL     1      43.538   5.453  13.278  0.00  0.00    +0.000 NA
ATOM     11  C   UNL     1      44.558   5.582  12.546  0.00  0.00    +0.000 C 
ENDBRANCH   9  11
BRANCH   9  12
ATOM     12  C   UNL     1      45.302   5.767  10.191  0.00  0.00    +0.000 C 
BRANCH  12  13
ATOM     13  C   UNL     1      45.409   4.468   9.414  0.00  0.00    +0.000 A 
ATOM     14  C   UNL     1      46.084   4.448   8.183  0.00  0.00    +0.000 A 
ATOM     15  C   UNL     1      46.290   3.248   7.499  0.00  0.00    +0.000 A 
ATOM     16  C   UNL     1      45.817   2.053   8.032  0.00  0.00    +0.000 A 
ATOM     17  C   UNL     1      45.123   2.059   9.240  0.00  0.00    +0.000 A 
ATOM     18  C   UNL     1      44.918   3.260   9.930  0.00  0.00    +0.000 A 
ENDBRANCH  12  13
ENDBRANCH   9  12
ENDBRANCH   7   9
ENDBRANCH   1   7
BRANCH   4  19
ATOM     19  C   UNL     1      49.568   7.610  16.829  0.00  0.00    +0.000 C 
BRANCH  19  20
ATOM     20  N   UNL     1      50.440   6.486  17.065  0.00  0.00    +0.000 N 
ATOM     21  C   UNL     1      50.813   6.141  18.340  0.00  0.00    +0.000 C 
ATOM     22  O   UNL     1      50.392   6.747  19.322  0.00  0.00    +0.000 OA
ATOM     23  H   UNL     1      50.959   6.121  16.272  0.00  0.00    +0.000 HD
BRANCH  21  24
ATOM     24  C   UNL     1      51.697   4.976  18.485  0.00  0.00    +0.000 A 
ATOM     25  C   UNL     1      52.933   5.129  19.099  0.00  0.00    +0.000 A 
ATOM     26  S   UNL     1      53.832   3.684  19.198  0.00  0.00    +0.000 S 
ATOM     27  C   UNL     1      52.622   2.810  18.385  0.00  0.00    +0.000 A 
ATOM     28  N   UNL     1      52.783   1.491  18.099  0.00  0.00    +0.000 NA
ATOM     29  C   UNL     1      51.799   0.964  17.453  0.00  0.00    +0.000 A 
ATOM     30  N   UNL     1      50.662   1.625  17.078  0.00  0.00    +0.000 N 
ATOM     31  C   UNL     1      50.442   2.949  17.372  0.00  0.00    +0.000 A 
ATOM     32  O   UNL     1      49.393   3.508  17.065  0.00  0.00    +0.000 OA
ATOM     33  C   UNL     1      51.530   3.603  18.072  0.00  0.00    +0.000 A 
ATOM     34  H   UNL     1      49.924   1.146  16.589  0.00  0.00    +0.000 HD
ENDBRANCH  21  24
ENDBRANCH  19  20
ENDBRANCH   4  19
TORSDOF 8
ENDMDL
