MODEL 1
REMARK VINA RESULT:    -5.928      0.000      0.000
REMARK INTER + INTRA:          -8.015
REMARK INTER:                  -7.661
REMARK INTRA:                  -0.354
REMARK UNBOUND:                -0.354
REMARK  Name = 
REMARK  6 active torsions:
REMARK  status: ('A' for Active; 'I' for Inactive)
REMARK    1  A    between atoms: N_1  and  C_2
REMARK    2  A    between atoms: C_2  and  C_3
REMARK    3  A    between atoms: C_7  and  C_8
REMARK    4  A    between atoms: C_9  and  C_10
REMARK    5  A    between atoms: C_15  and  C_16
REMARK    6  A    between atoms: C_16  and  N_17
REMARK                            x       y       z     vdW  Elec       q    Type
REMARK                         _______ _______ _______ _____ _____    ______ ____
ROOT
ATOM      1  C   UNL     1      45.683   5.382   9.553  0.00  0.00    +0.000 C 
ATOM      2  C   UNL     1      45.827   5.589  10.873  0.00  0.00    +0.000 C 
ENDROOT
BRANCH   2   3
ATOM      3  C   UNL     1      45.725   6.914  11.505  0.00  0.00    +0.000 A 
ATOM      4  C   UNL     1      46.540   7.289  12.581  0.00  0.00    +0.000 A 
ATOM      5  C   UNL     1      46.399   8.548  13.164  0.00  0.00    +0.000 A 
ATOM      6 CL   UNL     1      47.423   8.998  14.472  0.00  0.00    +0.000 Cl
ATOM      7  C   UNL     1      45.443   9.443  12.694  0.00  0.00    +0.000 A 
ATOM      8  C   UNL     1      44.602   9.085  11.631  0.00  0.00    +0.000 A 
ATOM      9  C   UNL     1      44.748   7.814  11.049  0.00  0.00    +0.000 A 
BRANCH   8  10
ATOM     10  C   UNL     1      43.584  10.064  11.105  0.00  0.00    +0.000 C 
BRANCH  10  11
ATOM     11  N   UNL     1      42.892  10.753  12.187  0.00  0.00    +0.000 NA
ATOM     12  H   UNL     1      43.369  11.633  12.379  0.00  0.00    +0.000 HD
ATOM     13  H   UNL     1      42.963  10.197  13.037  0.00  0.00    +0.000 HD
ENDBRANCH  10  11
ENDBRANCH   8  10
ENDBRANCH   2   3
BRANCH   1  18
ATOM     14  C   UNL     1      46.477   2.597   7.095  0.00  0.00    +0.000 A 
ATOM     15  C   UNL     1      45.800   1.572   7.748  0.00  0.00    +0.000 A 
ATOM     16  N   UNL     1      45.129   1.726   8.909  0.00  0.00    +0.000 NA
ATOM     17  C   UNL     1      45.135   2.967   9.451  0.00  0.00    +0.000 A 
ATOM     18  C   UNL     1      45.785   4.071   8.899  0.00  0.00    +0.000 A 
ATOM     19  C   UNL     1      46.452   3.867   7.688  0.00  0.00    +0.000 A 
BRANCH  14  20
ATOM     20  C   UNL     1      47.185   2.359   5.795  0.00  0.00    +0.000 C 
BRANCH  20  21
ATOM     21  N   UNL     1      48.570   1.950   6.007  0.00  0.00    +0.000 NA
ATOM     22  H   UNL     1      49.004   2.576   6.683  0.00  0.00    +0.000 HD
ATOM     23  H   UNL     1      49.087   2.065   5.136  0.00  0.00    +0.000 HD
ENDBRANCH  20  21
ENDBRANCH  14  20
ENDBRANCH   1  18
TORSDOF 6
ENDMDL
MODEL 2
REMARK VINA RESULT:    -5.827      5.790      7.338
REMARK INTER + INTRA:          -7.885
REMARK INTER:                  -7.518
REMARK INTRA:                  -0.366
REMARK UNBOUND:                -0.354
REMARK  Name = 
REMARK  6 active torsions:
REMARK  status: ('A' for Active; 'I' for Inactive)
REMARK    1  A    between atoms: N_1  and  C_2
REMARK    2  A    between atoms: C_2  and  C_3
REMARK    3  A    between atoms: C_7  and  C_8
REMARK    4  A    between atoms: C_9  and  C_10
REMARK    5  A    between atoms: C_15  and  C_16
REMARK    6  A    between atoms: C_16  and  N_17
REMARK                            x       y       z     vdW  Elec       q    Type
REMARK                         _______ _______ _______ _____ _____    ______ ____
ROOT
ATOM      1  C   UNL     1      47.019   4.803  14.327  0.00  0.00    +0.000 C 
ATOM      2  C   UNL     1      46.784   4.008  15.385  0.00  0.00    +0.000 C 
ENDROOT
BRANCH   2   3
ATOM      3  C   UNL     1      47.734   3.828  16.495  0.00  0.00    +0.000 A 
ATOM      4  C   UNL     1      48.778   2.895  16.435  0.00  0.00    +0.000 A 
ATOM      5  C   UNL     1      49.646   2.743  17.516  0.00  0.00    +0.000 A 
ATOM      6 CL   UNL     1      50.935   1.606  17.417  0.00  0.00    +0.000 Cl
ATOM      7  C   UNL     1      49.482   3.504  18.669  0.00  0.00    +0.000 A 
ATOM      8  C   UNL     1      48.434   4.431  18.761  0.00  0.00    +0.000 A 
ATOM      9  C   UNL     1      47.562   4.578  17.670  0.00  0.00    +0.000 A 
BRANCH   8  10
ATOM     10  C   UNL     1      48.272   5.273  20.000  0.00  0.00    +0.000 C 
BRANCH  10  11
ATOM     11  N   UNL     1      48.159   4.452  21.199  0.00  0.00    +0.000 NA
ATOM     12  H   UNL     1      49.093   4.258  21.558  0.00  0.00    +0.000 HD
ATOM     13  H   UNL     1      47.756   3.551  20.950  0.00  0.00    +0.000 HD
ENDBRANCH  10  11
ENDBRANCH   8  10
ENDBRANCH   2   3
BRANCH   1  18
ATOM     14  C   UNL     1      44.603   4.189  11.462  0.00  0.00    +0.000 A 
ATOM     15  C   UNL     1      44.454   5.511  11.055  0.00  0.00    +0.000 A 
ATOM     16  N   UNL     1      45.068   6.559  11.644  0.00  0.00    +0.000 NA
ATOM     17  C   UNL     1      45.870   6.275  12.698  0.00  0.00    +0.000 A 
ATOM     18  C   UNL     1      46.089   4.995  13.206  0.00  0.00    +0.000 A 
ATOM     19  C   UNL     1      45.446   3.941  12.554  0.00  0.00    +0.000 A 
BRANCH  14  20
ATOM     20  C   UNL     1      43.906   3.070  10.746  0.00  0.00    +0.000 C 
BRANCH  20  21
ATOM     21  N   UNL     1      43.066   2.295  11.654  0.00  0.00    +0.000 NA
ATOM     22  H   UNL     1      42.197   2.800  11.819  0.00  0.00    +0.000 HD
ATOM     23  H   UNL     1      43.532   2.221  12.556  0.00  0.00    +0.000 HD
ENDBRANCH  20  21
ENDBRANCH  14  20
ENDBRANCH   1  18
TORSDOF 6
ENDMDL
MODEL 3
REMARK VINA RESULT:    -5.740      5.644      7.759
REMARK INTER + INTRA:          -7.773
REMARK INTER:                  -7.398
REMARK INTRA:                  -0.375
REMARK UNBOUND:                -0.354
REMARK  Name = 
REMARK  6 active torsions:
REMARK  status: ('A' for Active; 'I' for Inactive)
REMARK    1  A    between atoms: N_1  and  C_2
REMARK    2  A    between atoms: C_2  and  C_3
REMARK    3  A    between atoms: C_7  and  C_8
REMARK    4  A    between atoms: C_9  and  C_10
REMARK    5  A    between atoms: C_15  and  C_16
REMARK    6  A    between atoms: C_16  and  N_17
REMARK                            x       y       z     vdW  Elec       q    Type
REMARK                         _______ _______ _______ _____ _____    ______ ____
ROOT
ATOM      1  C   UNL     1      46.765   4.109  15.258  0.00  0.00    +0.000 C 
ATOM      2  C   UNL     1      46.972   4.985  14.260  0.00  0.00    +0.000 C 
ENDROOT
BRANCH   2   3
ATOM      3  C   UNL     1      46.019   5.206  13.160  0.00  0.00    +0.000 A 
ATOM      4  C   UNL     1      45.655   6.492  12.741  0.00  0.00    +0.000 A 
ATOM      5  C   UNL     1      44.734   6.659  11.707  0.00  0.00    +0.000 A 
ATOM      6 CL   UNL     1      44.313   8.246  11.192  0.00  0.00    +0.000 Cl
ATOM      7  C   UNL     1      44.158   5.555  11.086  0.00  0.00    +0.000 A 
ATOM      8  C   UNL     1      44.492   4.257  11.500  0.00  0.00    +0.000 A 
ATOM      9  C   UNL     1      45.419   4.096  12.544  0.00  0.00    +0.000 A 
BRANCH   8  10
ATOM     10  C   UNL     1      43.888   3.061  10.811  0.00  0.00    +0.000 C 
BRANCH  10  11
ATOM     11  N   UNL     1      43.069   2.272  11.722  0.00  0.00    +0.000 NA
ATOM     12  H   UNL     1      42.958   1.333  11.340  0.00  0.00    +0.000 HD
ATOM     13  H   UNL     1      42.135   2.675  11.767  0.00  0.00    +0.000 HD
ENDBRANCH  10  11
ENDBRANCH   8  10
ENDBRANCH   2   3
BRANCH   1  18
ATOM     14  C   UNL     1      49.587   2.734  17.396  0.00  0.00    +0.000 A 
ATOM     15  C   UNL     1      49.312   3.453  18.555  0.00  0.00    +0.000 A 
ATOM     16  N   UNL     1      48.299   4.337  18.676  0.00  0.00    +0.000 NA
ATOM     17  C   UNL     1      47.521   4.519  17.582  0.00  0.00    +0.000 A 
ATOM     18  C   UNL     1      47.703   3.867  16.363  0.00  0.00    +0.000 A 
ATOM     19  C   UNL     1      48.753   2.949  16.291  0.00  0.00    +0.000 A 
BRANCH  14  20
ATOM     20  C   UNL     1      50.719   1.751  17.340  0.00  0.00    +0.000 C 
BRANCH  20  21
ATOM     21  N   UNL     1      51.866   2.210  18.115  0.00  0.00    +0.000 NA
ATOM     22  H   UNL     1      51.777   3.210  18.285  0.00  0.00    +0.000 HD
ATOM     23  H   UNL     1      52.712   2.088  17.560  0.00  0.00    +0.000 HD
ENDBRANCH  20  21
ENDBRANCH  14  20
ENDBRANCH   1  18
TORSDOF 6
ENDMDL
MODEL 4
REMARK VINA RESULT:    -5.728      5.550      7.370
REMARK INTER + INTRA:          -7.756
REMARK INTER:                  -7.369
REMARK INTRA:                  -0.388
REMARK UNBOUND:                -0.354
REMARK  Name = 
REMARK  6 active torsions:
REMARK  status: ('A' for Active; 'I' for Inactive)
REMARK    1  A    between atoms: N_1  and  C_2
REMARK    2  A    between atoms: C_2  and  C_3
REMARK    3  A    between atoms: C_7  and  C_8
REMARK    4  A    between atoms: C_9  and  C_10
REMARK    5  A    between atoms: C_15  and  C_16
REMARK    6  A    between atoms: C_16  and  N_17
REMARK                            x       y       z     vdW  Elec       q    Type
REMARK                         _______ _______ _______ _____ _____    ______ ____
ROOT
ATOM      1  C   UNL     1      46.999   4.807  14.154  0.00  0.00    +0.000 C 
ATOM      2  C   UNL     1      46.808   3.910  15.136  0.00  0.00    +0.000 C 
ENDROOT
BRANCH   2   3
ATOM      3  C   UNL     1      47.669   3.808  16.326  0.00  0.00    +0.000 A 
ATOM      4  C   UNL     1      47.464   4.603  17.461  0.00  0.00    +0.000 A 
ATOM      5  C   UNL     1      48.314   4.489  18.561  0.00  0.00    +0.000 A 
ATOM      6 CL   UNL     1      48.034   5.459  19.955  0.00  0.00    +0.000 Cl
ATOM      7  C   UNL     1      49.380   3.595  18.542  0.00  0.00    +0.000 A 
ATOM      8  C   UNL     1      49.619   2.803  17.411  0.00  0.00    +0.000 A 
ATOM      9  C   UNL     1      48.760   2.924  16.305  0.00  0.00    +0.000 A 
BRANCH   8  10
ATOM     10  C   UNL     1      50.758   1.816  17.401  0.00  0.00    +0.000 C 
BRANCH  10  11
ATOM     11  N   UNL     1      51.896   2.303  18.171  0.00  0.00    +0.000 NA
ATOM     12  H   UNL     1      51.801   3.308  18.306  0.00  0.00    +0.000 HD
ATOM     13  H   UNL     1      52.749   2.166  17.630  0.00  0.00    +0.000 HD
ENDBRANCH  10  11
ENDBRANCH   8  10
ENDBRANCH   2   3
BRANCH   1  18
ATOM     14  C   UNL     1      44.673   4.026  11.255  0.00  0.00    +0.000 A 
ATOM     15  C   UNL     1      44.707   5.276  10.645  0.00  0.00    +0.000 A 
ATOM     16  N   UNL     1      45.413   6.328  11.112  0.00  0.00    +0.000 NA
ATOM     17  C   UNL     1      46.120   6.125  12.248  0.00  0.00    +0.000 A 
ATOM     18  C   UNL     1      46.157   4.924  12.956  0.00  0.00    +0.000 A 
ATOM     19  C   UNL     1      45.425   3.859  12.426  0.00  0.00    +0.000 A 
BRANCH  14  20
ATOM     20  C   UNL     1      43.882   2.894  10.669  0.00  0.00    +0.000 C 
BRANCH  20  21
ATOM     21  N   UNL     1      43.065   2.233  11.680  0.00  0.00    +0.000 NA
ATOM     22  H   UNL     1      42.237   2.796  11.862  0.00  0.00    +0.000 HD
ATOM     23  H   UNL     1      43.585   2.195  12.555  0.00  0.00    +0.000 HD
ENDBRANCH  20  21
ENDBRANCH  14  20
ENDBRANCH   1  18
TORSDOF 6
ENDMDL
MODEL 5
REMARK VINA RESULT:    -5.684      3.057      7.622
REMARK INTER + INTRA:          -7.700
REMARK INTER:                  -7.308
REMARK INTRA:                  -0.392
REMARK UNBOUND:                -0.354
REMARK  Name = 
REMARK  6 active torsions:
REMARK  status: ('A' for Active; 'I' for Inactive)
REMARK    1  A    between atoms: N_1  and  C_2
REMARK    2  A    between atoms: C_2  and  C_3
REMARK    3  A    between atoms: C_7  and  C_8
REMARK    4  A    between atoms: C_9  and  C_10
REMARK    5  A    between atoms: C_15  and  C_16
REMARK    6  A    between atoms: C_16  and  N_17
REMARK                            x       y       z     vdW  Elec       q    Type
REMARK                         _______ _______ _______ _____ _____    ______ ____
ROOT
ATOM      1  C   UNL     1      47.061   6.894  11.790  0.00  0.00    +0.000 C 
ATOM      2  C   UNL     1      45.887   6.759  11.149  0.00  0.00    +0.000 C 
ENDROOT
BRANCH   2   3
ATOM      3  C   UNL     1      45.389   5.478  10.623  0.00  0.00    +0.000 A 
ATOM      4  C   UNL     1      44.628   4.600  11.405  0.00  0.00    +0.000 A 
ATOM      5  C   UNL     1      44.190   3.387  10.875  0.00  0.00    +0.000 A 
ATOM      6 CL   UNL     1      43.239   2.330  11.845  0.00  0.00    +0.000 Cl
ATOM      7  C   UNL     1      44.510   3.027   9.570  0.00  0.00    +0.000 A 
ATOM      8  C   UNL     1      45.287   3.879   8.773  0.00  0.00    +0.000 A 
ATOM      9  C   UNL     1      45.727   5.099   9.314  0.00  0.00    +0.000 A 
BRANCH   8  10
ATOM     10  C   UNL     1      45.613   3.501   7.350  0.00  0.00    +0.000 C 
BRANCH  10  11
ATOM     11  N   UNL     1      46.802   4.193   6.869  0.00  0.00    +0.000 NA
ATOM     12  H   UNL     1      46.668   5.198   6.976  0.00  0.00    +0.000 HD
ATOM     13  H   UNL     1      46.907   4.023   5.871  0.00  0.00    +0.000 HD
ENDBRANCH  10  11
ENDBRANCH   8  10
ENDBRANCH   2   3
BRANCH   1  18
ATOM     14  C   UNL     1      47.694  10.587  12.412  0.00  0.00    +0.000 A 
ATOM     15  C   UNL     1      48.730  10.447  13.329  0.00  0.00    +0.000 A 
ATOM     16  N   UNL     1      49.215   9.260  13.751  0.00  0.00    +0.000 NA
ATOM     17  C   UNL     1      48.633   8.152  13.234  0.00  0.00    +0.000 A 
ATOM     18  C   UNL     1      47.582   8.162  12.318  0.00  0.00    +0.000 A 
ATOM     19  C   UNL     1      47.125   9.413  11.898  0.00  0.00    +0.000 A 
BRANCH  14  20
ATOM     20  C   UNL     1      47.219  11.940  11.972  0.00  0.00    +0.000 C 
BRANCH  20  21
ATOM     21  N   UNL     1      45.833  12.175  12.365  0.00  0.00    +0.000 NA
ATOM     22  H   UNL     1      45.807  12.476  13.337  0.00  0.00    +0.000 HD
ATOM     23  H   UNL     1      45.323  11.294  12.323  0.00  0.00    +0.000 HD
ENDBRANCH  20  21
ENDBRANCH  14  20
ENDBRANCH   1  18
TORSDOF 6
ENDMDL
MODEL 6
REMARK VINA RESULT:    -5.616      5.761      8.048
REMARK INTER + INTRA:          -7.612
REMARK INTER:                  -7.233
REMARK INTRA:                  -0.379
REMARK UNBOUND:                -0.354
REMARK  Name = 
REMARK  6 active torsions:
REMARK  status: ('A' for Active; 'I' for Inactive)
REMARK    1  A    between atoms: N_1  and  C_2
REMARK    2  A    between atoms: C_2  and  C_3
REMARK    3  A    between atoms: C_7  and  C_8
REMARK    4  A    between atoms: C_9  and  C_10
REMARK    5  A    between atoms: C_15  and  C_16
REMARK    6  A    between atoms: C_16  and  N_17
REMARK                            x       y       z     vdW  Elec       q    Type
REMARK                         _______ _______ _______ _____ _____    ______ ____
ROOT
ATOM      1  C   UNL     1      46.932   4.512  15.058  0.00  0.00    +0.000 C 
ATOM      2  C   UNL     1      46.606   3.735  14.011  0.00  0.00    +0.000 C 
ENDROOT
BRANCH   2   3
ATOM      3  C   UNL     1      45.879   4.226  12.828  0.00  0.00    +0.000 A 
ATOM      4  C   UNL     1      45.445   3.365  11.813  0.00  0.00    +0.000 A 
ATOM      5  C   UNL     1      44.775   3.872  10.700  0.00  0.00    +0.000 A 
ATOM      6 CL   UNL     1      44.231   2.795   9.472  0.00  0.00    +0.000 Cl
ATOM      7  C   UNL     1      44.540   5.238  10.577  0.00  0.00    +0.000 A 
ATOM      8  C   UNL     1      44.981   6.123  11.570  0.00  0.00    +0.000 A 
ATOM      9  C   UNL     1      45.657   5.606  12.688  0.00  0.00    +0.000 A 
BRANCH   8  10
ATOM     10  C   UNL     1      44.703   7.600  11.450  0.00  0.00    +0.000 C 
BRANCH  10  11
ATOM     11  N   UNL     1      43.327   7.856  11.041  0.00  0.00    +0.000 NA
ATOM     12  H   UNL     1      42.867   6.966  10.850  0.00  0.00    +0.000 HD
ATOM     13  H   UNL     1      43.330   8.371  10.163  0.00  0.00    +0.000 HD
ENDBRANCH  10  11
ENDBRANCH   8  10
ENDBRANCH   2   3
BRANCH   1  18
ATOM     14  C   UNL     1      48.408   4.263  18.549  0.00  0.00    +0.000 A 
ATOM     15  C   UNL     1      49.133   3.090  18.362  0.00  0.00    +0.000 A 
ATOM     16  N   UNL     1      49.163   2.393  17.207  0.00  0.00    +0.000 NA
ATOM     17  C   UNL     1      48.428   2.888  16.183  0.00  0.00    +0.000 A 
ATOM     18  C   UNL     1      47.652   4.045  16.250  0.00  0.00    +0.000 A 
ATOM     19  C   UNL     1      47.666   4.742  17.461  0.00  0.00    +0.000 A 
BRANCH  14  20
ATOM     20  C   UNL     1      48.438   4.998  19.856  0.00  0.00    +0.000 C 
BRANCH  20  21
ATOM     21  N   UNL     1      48.441   4.077  20.988  0.00  0.00    +0.000 NA
ATOM     22  H   UNL     1      47.793   3.314  20.801  0.00  0.00    +0.000 HD
ATOM     23  H   UNL     1      48.085   4.561  21.811  0.00  0.00    +0.000 HD
ENDBRANCH  20  21
ENDBRANCH  14  20
ENDBRANCH   1  18
TORSDOF 6
ENDMDL
MODEL 7
REMARK VINA RESULT:    -5.444      2.865      3.884
REMARK INTER + INTRA:          -7.390
REMARK INTER:                  -6.970
REMARK INTRA:                  -0.421
REMARK UNBOUND:                -0.354
REMARK  Name = 
REMARK  6 active torsions:
REMARK  status: ('A' for Active; 'I' for Inactive)
REMARK    1  A    between atoms: N_1  and  C_2
REMARK    2  A    between atoms: C_2  and  C_3
REMARK    3  A    between atoms: C_7  and  C_8
REMARK    4  A    between atoms: C_9  and  C_10
REMARK    5  A    between atoms: C_15  and  C_16
REMARK    6  A    between atoms: C_16  and  N_17
REMARK                            x       y       z     vdW  Elec       q    Type
REMARK                         _______ _______ _______ _____ _____    ______ ____
ROOT
ATOM      1  C   UNL     1      45.894   6.612  12.004  0.00  0.00    +0.000 C 
ATOM      2  C   UNL     1      47.205   6.743  11.742  0.00  0.00    +0.000 C 
ENDROOT
BRANCH   2   3
ATOM      3  C   UNL     1      47.919   8.030  11.785  0.00  0.00    +0.000 A 
ATOM      4  C   UNL     1      49.315   8.108  11.704  0.00  0.00    +0.000 A 
ATOM      5  C   UNL     1      49.954   9.346  11.766  0.00  0.00    +0.000 A 
ATOM      6 CL   UNL     1      51.670   9.423  11.646  0.00  0.00    +0.000 Cl
ATOM      7  C   UNL     1      49.218  10.516  11.919  0.00  0.00    +0.000 A 
ATOM      8  C   UNL     1      47.820  10.464  12.022  0.00  0.00    +0.000 A 
ATOM      9  C   UNL     1      47.183   9.213  11.960  0.00  0.00    +0.000 A 
BRANCH   8  10
ATOM     10  C   UNL     1      47.021  11.734  12.161  0.00  0.00    +0.000 C 
BRANCH  10  11
ATOM     11  N   UNL     1      45.588  11.468  12.181  0.00  0.00    +0.000 NA
ATOM     12  H   UNL     1      45.208  11.765  13.079  0.00  0.00    +0.000 HD
ATOM     13  H   UNL     1      45.434  10.463  12.124  0.00  0.00    +0.000 HD
ENDBRANCH  10  11
ENDBRANCH   8  10
ENDBRANCH   2   3
BRANCH   1  18
ATOM     14  C   UNL     1      44.377   3.325  10.856  0.00  0.00    +0.000 A 
ATOM     15  C   UNL     1      43.651   3.041  12.008  0.00  0.00    +0.000 A 
ATOM     16  N   UNL     1      43.633   3.826  13.106  0.00  0.00    +0.000 NA
ATOM     17  C   UNL     1      44.381   4.954  13.055  0.00  0.00    +0.000 A 
ATOM     18  C   UNL     1      45.159   5.341  11.964  0.00  0.00    +0.000 A 
ATOM     19  C   UNL     1      45.133   4.505  10.845  0.00  0.00    +0.000 A 
BRANCH  14  20
ATOM     20  C   UNL     1      44.333   2.416   9.664  0.00  0.00    +0.000 C 
BRANCH  20  21
ATOM     21  N   UNL     1      44.326   3.171   8.415  0.00  0.00    +0.000 NA
ATOM     22  H   UNL     1      44.083   2.547   7.648  0.00  0.00    +0.000 HD
ATOM     23  H   UNL     1      45.268   3.507   8.225  0.00  0.00    +0.000 HD
ENDBRANCH  20  21
ENDBRANCH  14  20
ENDBRANCH   1  18
TORSDOF 6
ENDMDL
MODEL 8
REMARK VINA RESULT:    -5.424      5.804      7.572
REMARK INTER + INTRA:          -7.364
REMARK INTER:                  -7.023
REMARK INTRA:                  -0.341
REMARK UNBOUND:                -0.354
REMARK  Name = 
REMARK  6 active torsions:
REMARK  status: ('A' for Active; 'I' for Inactive)
REMARK    1  A    between atoms: N_1  and  C_2
REMARK    2  A    between atoms: C_2  and  C_3
REMARK    3  A    between atoms: C_7  and  C_8
REMARK    4  A    between atoms: C_9  and  C_10
REMARK    5  A    between atoms: C_15  and  C_16
REMARK    6  A    between atoms: C_16  and  N_17
REMARK                            x       y       z     vdW  Elec       q    Type
REMARK                         _______ _______ _______ _____ _____    ______ ____
ROOT
ATOM      1  C   UNL     1      46.760   4.108  15.268  0.00  0.00    +0.000 C 
ATOM      2  C   UNL     1      46.994   4.874  14.189  0.00  0.00    +0.000 C 
ENDROOT
BRANCH   2   3
ATOM      3  C   UNL     1      46.033   5.045  13.087  0.00  0.00    +0.000 A 
ATOM      4  C   UNL     1      45.537   3.956  12.359  0.00  0.00    +0.000 A 
ATOM      5  C   UNL     1      44.641   4.162  11.310  0.00  0.00    +0.000 A 
ATOM      6 CL   UNL     1      44.027   2.810  10.440  0.00  0.00    +0.000 Cl
ATOM      7  C   UNL     1      44.236   5.448  10.967  0.00  0.00    +0.000 A 
ATOM      8  C   UNL     1      44.733   6.556  11.668  0.00  0.00    +0.000 A 
ATOM      9  C   UNL     1      45.637   6.342  12.722  0.00  0.00    +0.000 A 
BRANCH   8  10
ATOM     10  C   UNL     1      44.274   7.947  11.312  0.00  0.00    +0.000 C 
BRANCH  10  11
ATOM     11  N   UNL     1      42.858   7.975  10.968  0.00  0.00    +0.000 NA
ATOM     12  H   UNL     1      42.746   7.675  10.000  0.00  0.00    +0.000 HD
ATOM     13  H   UNL     1      42.522   8.935  11.011  0.00  0.00    +0.000 HD
ENDBRANCH  10  11
ENDBRANCH   8  10
ENDBRANCH   2   3
BRANCH   1  18
ATOM     14  C   UNL     1      49.590   2.829  17.455  0.00  0.00    +0.000 A 
ATOM     15  C   UNL     1      49.329   3.611  18.575  0.00  0.00    +0.000 A 
ATOM     16  N   UNL     1      48.323   4.508  18.657  0.00  0.00    +0.000 NA
ATOM     17  C   UNL     1      47.538   4.636  17.561  0.00  0.00    +0.000 A 
ATOM     18  C   UNL     1      47.705   3.919  16.377  0.00  0.00    +0.000 A 
ATOM     19  C   UNL     1      48.748   2.991  16.346  0.00  0.00    +0.000 A 
BRANCH  14  20
ATOM     20  C   UNL     1      50.714   1.836  17.442  0.00  0.00    +0.000 C 
BRANCH  20  21
ATOM     21  N   UNL     1      51.915   2.379  18.069  0.00  0.00    +0.000 NA
ATOM     22  H   UNL     1      51.670   2.777  18.973  0.00  0.00    +0.000 HD
ATOM     23  H   UNL     1      52.266   3.148  17.501  0.00  0.00    +0.000 HD
ENDBRANCH  20  21
ENDBRANCH  14  20
ENDBRANCH   1  18
TORSDOF 6
ENDMDL
MODEL 9
REMARK VINA RESULT:    -5.286      3.445      4.856
REMARK INTER + INTRA:          -7.186
REMARK INTER:                  -6.800
REMARK INTRA:                  -0.386
REMARK UNBOUND:                -0.354
REMARK  Name = 
REMARK  6 active torsions:
REMARK  status: ('A' for Active; 'I' for Inactive)
REMARK    1  A    between atoms: N_1  and  C_2
REMARK    2  A    between atoms: C_2  and  C_3
REMARK    3  A    between atoms: C_7  and  C_8
REMARK    4  A    between atoms: C_9  and  C_10
REMARK    5  A    between atoms: C_15  and  C_16
REMARK    6  A    between atoms: C_16  and  N_17
REMARK                            x       y       z     vdW  Elec       q    Type
REMARK                         _______ _______ _______ _____ _____    ______ ____
ROOT
ATOM      1  C   UNL     1      45.917   6.842  11.855  0.00  0.00    +0.000 C 
ATOM      2  C   UNL     1      47.260   6.821  11.821  0.00  0.00    +0.000 C 
ENDROOT
BRANCH   2   3
ATOM      3  C   UNL     1      48.096   8.031  11.882  0.00  0.00    +0.000 A 
ATOM      4  C   UNL     1      47.548   9.302  12.096  0.00  0.00    +0.000 A 
ATOM      5  C   UNL     1      48.372  10.426  12.129  0.00  0.00    +0.000 A 
ATOM      6 CL   UNL     1      47.683  11.978  12.412  0.00  0.00    +0.000 Cl
ATOM      7  C   UNL     1      49.745  10.303  11.940  0.00  0.00    +0.000 A 
ATOM      8  C   UNL     1      50.317   9.044  11.706  0.00  0.00    +0.000 A 
ATOM      9  C   UNL     1      49.480   7.916  11.672  0.00  0.00    +0.000 A 
BRANCH   8  10
ATOM     10  C   UNL     1      51.807   8.908  11.528  0.00  0.00    +0.000 C 
BRANCH  10  11
ATOM     11  N   UNL     1      52.176   7.565  11.097  0.00  0.00    +0.000 NA
ATOM     12  H   UNL     1      53.040   7.615  10.559  0.00  0.00    +0.000 HD
ATOM     13  H   UNL     1      51.464   7.210  10.462  0.00  0.00    +0.000 HD
ENDBRANCH  10  11
ENDBRANCH   8  10
ENDBRANCH   2   3
BRANCH   1  18
ATOM     14  C   UNL     1      44.262   3.612  10.737  0.00  0.00    +0.000 A 
ATOM     15  C   UNL     1      43.321   3.521  11.757  0.00  0.00    +0.000 A 
ATOM     16  N   UNL     1      43.201   4.416  12.760  0.00  0.00    +0.000 NA
ATOM     17  C   UNL     1      44.069   5.455  12.750  0.00  0.00    +0.000 A 
ATOM     18  C   UNL     1      45.062   5.650  11.791  0.00  0.00    +0.000 A 
ATOM     19  C   UNL     1      45.137   4.707  10.762  0.00  0.00    +0.000 A 
BRANCH  14  20
ATOM     20  C   UNL     1      44.324   2.591   9.640  0.00  0.00    +0.000 C 
BRANCH  20  21
ATOM     21  N   UNL     1      44.377   3.220   8.325  0.00  0.00    +0.000 NA
ATOM     22  H   UNL     1      45.320   3.135   7.950  0.00  0.00    +0.000 HD
ATOM     23  H   UNL     1      44.197   4.218   8.427  0.00  0.00    +0.000 HD
ENDBRANCH  20  21
ENDBRANCH  14  20
ENDBRANCH   1  18
TORSDOF 6
ENDMDL
